MODEL 1
REMARK VINA RESULT:    -8.774      0.000      0.000
REMARK INTER + INTRA:         -13.730
REMARK INTER:                 -12.364
REMARK INTRA:                  -1.366
REMARK UNBOUND:                -1.366
REMARK  Name = 
REMARK  8 active torsions:
REMARK  status: ('A' for Active; 'I' for Inactive)
REMARK    1  A    between atoms: C_1  and  C_2
REMARK    2  A    between atoms: C_2  and  N_3
REMARK    3  A    between atoms: C_2  and  C_25
REMARK    4  A    between atoms: N_3  and  C_4
REMARK    5  A    between atoms: C_4  and  C_5
REMARK    6  A    between atoms: C_10  and  C_11
REMARK    7  A    between atoms: C_11  and  N_12
REMARK    8  A    between atoms: C_13  and  C_15
REMARK                            x       y       z     vdW  Elec       q    Type
REMARK                         _______ _______ _______ _____ _____    ______ ____
ROOT
ATOM      1  C   UNL     1      44.701   6.672  11.762  0.00  0.00    +0.000 A 
ATOM      2  N   UNL     1      44.438   7.938  11.328  0.00  0.00    +0.000 NA
ATOM      3  C   UNL     1      45.149   8.956  11.856  0.00  0.00    +0.000 A 
ATOM      4  C   UNL     1      46.132   8.788  12.809  0.00  0.00    +0.000 A 
ATOM      5  C   UNL     1      46.404   7.497  13.241  0.00  0.00    +0.000 A 
ATOM      6  C   UNL     1      45.683   6.406  12.729  0.00  0.00    +0.000 A 
ENDROOT
BRANCH   1   7
ATOM      7  C   UNL     1      43.867   5.581  11.108  0.00  0.00    +0.000 C 
BRANCH   7   8
ATOM      8  N   UNL     1      44.413   5.125   9.824  0.00  0.00    +0.000 NA
ATOM      9  H   UNL     1      44.003   5.652   9.062  0.00  0.00    +0.000 HD
BRANCH   8  11
ATOM     10  C   UNL     1      44.101   2.886  10.833  0.00  0.00    +0.000 C 
ATOM     11  C   UNL     1      44.142   3.704   9.540  0.00  0.00    +0.000 C 
BRANCH  11  12
ATOM     12  C   UNL     1      45.216   3.160   8.593  0.00  0.00    +0.000 A 
ATOM     13  C   UNL     1      45.608   1.822   8.666  0.00  0.00    +0.000 A 
ATOM     14  C   UNL     1      46.620   1.357   7.838  0.00  0.00    +0.000 A 
ATOM     15  C   UNL     1      47.232   2.239   6.960  0.00  0.00    +0.000 A 
ATOM     16  C   UNL     1      46.800   3.554   6.948  0.00  0.00    +0.000 A 
ATOM     17  N   UNL     1      45.815   4.038   7.743  0.00  0.00    +0.000 NA
ENDBRANCH  11  12
ENDBRANCH   8  11
ENDBRANCH   7   8
ENDBRANCH   1   7
BRANCH   6  18
ATOM     18  C   UNL     1      46.042   5.030  13.210  0.00  0.00    +0.000 C 
BRANCH  18  19
ATOM     19  N   UNL     1      46.551   5.050  14.552  0.00  0.00    +0.000 N 
ATOM     20  C   UNL     1      47.262   4.009  15.075  0.00  0.00    +0.000 C 
ATOM     21  O   UNL     1      47.471   2.975  14.443  0.00  0.00    +0.000 OA
ATOM     22  H   UNL     1      46.273   5.825  15.146  0.00  0.00    +0.000 HD
BRANCH  20  23
ATOM     23  C   UNL     1      47.838   4.218  16.404  0.00  0.00    +0.000 A 
ATOM     24  C   UNL     1      47.503   3.350  17.432  0.00  0.00    +0.000 A 
ATOM     25  S   UNL     1      48.278   3.707  18.905  0.00  0.00    +0.000 S 
ATOM     26  C   UNL     1      49.057   5.060  18.227  0.00  0.00    +0.000 A 
ATOM     27  N   UNL     1      49.872   5.847  18.978  0.00  0.00    +0.000 NA
ATOM     28  C   UNL     1      50.371   6.854  18.350  0.00  0.00    +0.000 A 
ATOM     29  N   UNL     1      50.144   7.145  17.031  0.00  0.00    +0.000 N 
ATOM     30  C   UNL     1      49.387   6.340  16.211  0.00  0.00    +0.000 A 
ATOM     31  O   UNL     1      49.309   6.554  15.006  0.00  0.00    +0.000 OA
ATOM     32  C   UNL     1      48.758   5.219  16.886  0.00  0.00    +0.000 A 
ATOM     33  H   UNL     1      50.593   7.934  16.589  0.00  0.00    +0.000 HD
ENDBRANCH  20  23
ENDBRANCH  18  19
ENDBRANCH   6  18
TORSDOF 7
ENDMDL
MODEL 2
REMARK VINA RESULT:    -8.441      1.288      1.951
REMARK INTER + INTRA:         -13.261
REMARK INTER:                 -12.307
REMARK INTRA:                  -0.954
REMARK UNBOUND:                -1.366
REMARK  Name = 
REMARK  8 active torsions:
REMARK  status: ('A' for Active; 'I' for Inactive)
REMARK    1  A    between atoms: C_1  and  C_2
REMARK    2  A    between atoms: C_2  and  N_3
REMARK    3  A    between atoms: C_2  and  C_25
REMARK    4  A    between atoms: N_3  and  C_4
REMARK    5  A    between atoms: C_4  and  C_5
REMARK    6  A    between atoms: C_10  and  C_11
REMARK    7  A    between atoms: C_11  and  N_12
REMARK    8  A    between atoms: C_13  and  C_15
REMARK                            x       y       z     vdW  Elec       q    Type
REMARK                         _______ _______ _______ _____ _____    ______ ____
ROOT
ATOM      1  C   UNL     1      44.367   6.960  11.562  0.00  0.00    +0.000 A 
ATOM      2  N   UNL     1      43.915   8.146  11.063  0.00  0.00    +0.000 NA
ATOM      3  C   UNL     1      44.476   9.286  11.517  0.00  0.00    +0.000 A 
ATOM      4  C   UNL     1      45.486   9.320  12.455  0.00  0.00    +0.000 A 
ATOM      5  C   UNL     1      45.950   8.111  12.954  0.00  0.00    +0.000 A 
ATOM      6  C   UNL     1      45.391   6.898  12.521  0.00  0.00    +0.000 A 
ENDROOT
BRANCH   1   7
ATOM      7  C   UNL     1      43.695   5.722  10.990  0.00  0.00    +0.000 C 
BRANCH   7   8
ATOM      8  N   UNL     1      44.400   5.163   9.829  0.00  0.00    +0.000 NA
ATOM      9  H   UNL     1      44.068   5.597   8.976  0.00  0.00    +0.000 HD
BRANCH   8  11
ATOM     10  C   UNL     1      44.317   2.987  11.006  0.00  0.00    +0.000 C 
ATOM     11  C   UNL     1      44.202   3.712   9.664  0.00  0.00    +0.000 C 
BRANCH  11  12
ATOM     12  C   UNL     1      45.233   3.168   8.669  0.00  0.00    +0.000 A 
ATOM     13  C   UNL     1      45.609   1.824   8.707  0.00  0.00    +0.000 A 
ATOM     14  C   UNL     1      46.583   1.358   7.836  0.00  0.00    +0.000 A 
ATOM     15  C   UNL     1      47.173   2.245   6.947  0.00  0.00    +0.000 A 
ATOM     16  C   UNL     1      46.758   3.566   6.971  0.00  0.00    +0.000 A 
ATOM     17  N   UNL     1      45.811   4.050   7.809  0.00  0.00    +0.000 NA
ENDBRANCH  11  12
ENDBRANCH   8  11
ENDBRANCH   7   8
ENDBRANCH   1   7
BRANCH   6  18
ATOM     18  C   UNL     1      45.956   5.620  13.071  0.00  0.00    +0.000 C 
BRANCH  18  19
ATOM     19  N   UNL     1      46.690   5.840  14.285  0.00  0.00    +0.000 N 
ATOM     20  C   UNL     1      47.344   4.832  14.930  0.00  0.00    +0.000 C 
ATOM     21  O   UNL     1      47.309   3.668  14.535  0.00  0.00    +0.000 OA
ATOM     22  H   UNL     1      46.619   6.758  14.714  0.00  0.00    +0.000 HD
BRANCH  20  23
ATOM     23  C   UNL     1      48.165   5.221  16.078  0.00  0.00    +0.000 A 
ATOM     24  C   UNL     1      49.002   6.322  15.971  0.00  0.00    +0.000 A 
ATOM     25  S   UNL     1      49.865   6.662  17.398  0.00  0.00    +0.000 S 
ATOM     26  C   UNL     1      49.179   5.324  18.194  0.00  0.00    +0.000 A 
ATOM     27  N   UNL     1      49.522   5.020  19.473  0.00  0.00    +0.000 NA
ATOM     28  C   UNL     1      48.955   3.964  19.944  0.00  0.00    +0.000 A 
ATOM     29  N   UNL     1      48.060   3.185  19.258  0.00  0.00    +0.000 N 
ATOM     30  C   UNL     1      47.626   3.491  17.990  0.00  0.00    +0.000 A 
ATOM     31  O   UNL     1      46.729   2.850  17.453  0.00  0.00    +0.000 OA
ATOM     32  C   UNL     1      48.278   4.645  17.395  0.00  0.00    +0.000 A 
ATOM     33  H   UNL     1      47.626   2.387  19.698  0.00  0.00    +0.000 HD
ENDBRANCH  20  23
ENDBRANCH  18  19
ENDBRANCH   6  18
TORSDOF 7
ENDMDL
MODEL 3
REMARK VINA RESULT:    -8.321      1.929      2.211
REMARK INTER + INTRA:         -13.091
REMARK INTER:                 -11.978
REMARK INTRA:                  -1.113
REMARK UNBOUND:                -1.366
REMARK  Name = 
REMARK  8 active torsions:
REMARK  status: ('A' for Active; 'I' for Inactive)
REMARK    1  A    between atoms: C_1  and  C_2
REMARK    2  A    between atoms: C_2  and  N_3
REMARK    3  A    between atoms: C_2  and  C_25
REMARK    4  A    between atoms: N_3  and  C_4
REMARK    5  A    between atoms: C_4  and  C_5
REMARK    6  A    between atoms: C_10  and  C_11
REMARK    7  A    between atoms: C_11  and  N_12
REMARK    8  A    between atoms: C_13  and  C_15
REMARK                            x       y       z     vdW  Elec       q    Type
REMARK                         _______ _______ _______ _____ _____    ______ ____
ROOT
ATOM      1  C   UNL     1      46.259   5.773  12.384  0.00  0.00    +0.000 A 
ATOM      2  N   UNL     1      46.598   6.632  11.380  0.00  0.00    +0.000 NA
ATOM      3  C   UNL     1      47.777   7.281  11.465  0.00  0.00    +0.000 A 
ATOM      4  C   UNL     1      48.664   7.121  12.508  0.00  0.00    +0.000 A 
ATOM      5  C   UNL     1      48.321   6.239  13.523  0.00  0.00    +0.000 A 
ATOM      6  C   UNL     1      47.099   5.548  13.485  0.00  0.00    +0.000 A 
ENDROOT
BRANCH   1   7
ATOM      7  C   UNL     1      44.921   5.071  12.207  0.00  0.00    +0.000 C 
BRANCH   7   8
ATOM      8  N   UNL     1      44.342   5.254  10.871  0.00  0.00    +0.000 NA
ATOM      9  H   UNL     1      43.563   5.902  10.913  0.00  0.00    +0.000 HD
BRANCH   8  11
ATOM     10  C   UNL     1      43.566   2.956  11.360  0.00  0.00    +0.000 C 
ATOM     11  C   UNL     1      43.817   4.010  10.280  0.00  0.00    +0.000 C 
BRANCH  11  12
ATOM     12  C   UNL     1      44.807   3.486   9.236  0.00  0.00    +0.000 A 
ATOM     13  C   UNL     1      45.118   2.125   9.180  0.00  0.00    +0.000 A 
ATOM     14  C   UNL     1      46.057   1.673   8.264  0.00  0.00    +0.000 A 
ATOM     15  C   UNL     1      46.679   2.588   7.427  0.00  0.00    +0.000 A 
ATOM     16  C   UNL     1      46.329   3.923   7.544  0.00  0.00    +0.000 A 
ATOM     17  N   UNL     1      45.417   4.394   8.428  0.00  0.00    +0.000 NA
ENDBRANCH  11  12
ENDBRANCH   8  11
ENDBRANCH   7   8
ENDBRANCH   1   7
BRANCH   6  18
ATOM     18  C   UNL     1      46.796   4.582  14.595  0.00  0.00    +0.000 C 
BRANCH  18  19
ATOM     19  N   UNL     1      47.379   4.998  15.838  0.00  0.00    +0.000 N 
ATOM     20  C   UNL     1      47.254   4.263  16.981  0.00  0.00    +0.000 C 
ATOM     21  O   UNL     1      46.598   3.224  17.024  0.00  0.00    +0.000 OA
ATOM     22  H   UNL     1      47.804   5.920  15.871  0.00  0.00    +0.000 HD
BRANCH  20  23
ATOM     23  C   UNL     1      48.013   4.731  18.141  0.00  0.00    +0.000 A 
ATOM     24  C   UNL     1      47.400   5.573  19.058  0.00  0.00    +0.000 A 
ATOM     25  S   UNL     1      48.401   6.003  20.364  0.00  0.00    +0.000 S 
ATOM     26  C   UNL     1      49.703   5.110  19.728  0.00  0.00    +0.000 A 
ATOM     27  N   UNL     1      50.904   5.077  20.362  0.00  0.00    +0.000 NA
ATOM     28  C   UNL     1      51.811   4.391  19.757  0.00  0.00    +0.000 A 
ATOM     29  N   UNL     1      51.626   3.719  18.578  0.00  0.00    +0.000 N 
ATOM     30  C   UNL     1      50.411   3.661  17.936  0.00  0.00    +0.000 A 
ATOM     31  O   UNL     1      50.243   2.946  16.954  0.00  0.00    +0.000 OA
ATOM     32  C   UNL     1      49.369   4.464  18.552  0.00  0.00    +0.000 A 
ATOM     33  H   UNL     1      52.371   3.172  18.171  0.00  0.00    +0.000 HD
ENDBRANCH  20  23
ENDBRANCH  18  19
ENDBRANCH   6  18
TORSDOF 7
ENDMDL
MODEL 4
REMARK VINA RESULT:    -7.948      1.834      2.825
REMARK INTER + INTRA:         -12.566
REMARK INTER:                 -11.801
REMARK INTRA:                  -0.765
REMARK UNBOUND:                -1.366
REMARK  Name = 
REMARK  8 active torsions:
REMARK  status: ('A' for Active; 'I' for Inactive)
REMARK    1  A    between atoms: C_1  and  C_2
REMARK    2  A    between atoms: C_2  and  N_3
REMARK    3  A    between atoms: C_2  and  C_25
REMARK    4  A    between atoms: N_3  and  C_4
REMARK    5  A    between atoms: C_4  and  C_5
REMARK    6  A    between atoms: C_10  and  C_11
REMARK    7  A    between atoms: C_11  and  N_12
REMARK    8  A    between atoms: C_13  and  C_15
REMARK                            x       y       z     vdW  Elec       q    Type
REMARK                         _______ _______ _______ _____ _____    ______ ____
ROOT
ATOM      1  C   UNL     1      44.494   5.252  10.788  0.00  0.00    +0.000 A 
ATOM      2  N   UNL     1      43.141   5.125  10.677  0.00  0.00    +0.000 NA
ATOM      3  C   UNL     1      42.386   5.348  11.773  0.00  0.00    +0.000 A 
ATOM      4  C   UNL     1      42.906   5.704  12.999  0.00  0.00    +0.000 A 
ATOM      5  C   UNL     1      44.283   5.842  13.106  0.00  0.00    +0.000 A 
ATOM      6  C   UNL     1      45.111   5.609  11.997  0.00  0.00    +0.000 A 
ENDROOT
BRANCH   1   7
ATOM      7  C   UNL     1      45.273   4.997   9.506  0.00  0.00    +0.000 C 
BRANCH   7   8
ATOM      8  N   UNL     1      44.454   4.411   8.437  0.00  0.00    +0.000 NA
ATOM      9  H   UNL     1      43.472   4.594   8.608  0.00  0.00    +0.000 HD
BRANCH   8  11
ATOM     10  C   UNL     1      44.652   2.296   9.708  0.00  0.00    +0.000 C 
ATOM     11  C   UNL     1      44.592   2.948   8.325  0.00  0.00    +0.000 C 
BRANCH  11  12
ATOM     12  C   UNL     1      45.851   2.616   7.519  0.00  0.00    +0.000 A 
ATOM     13  C   UNL     1      46.181   3.363   6.386  0.00  0.00    +0.000 A 
ATOM     14  C   UNL     1      47.294   3.017   5.635  0.00  0.00    +0.000 A 
ATOM     15  C   UNL     1      48.055   1.923   6.021  0.00  0.00    +0.000 A 
ATOM     16  C   UNL     1      47.664   1.222   7.149  0.00  0.00    +0.000 A 
ATOM     17  N   UNL     1      46.583   1.535   7.902  0.00  0.00    +0.000 NA
ENDBRANCH  11  12
ENDBRANCH   8  11
ENDBRANCH   7   8
ENDBRANCH   1   7
BRANCH   6  18
ATOM     18  C   UNL     1      46.591   5.805  12.163  0.00  0.00    +0.000 C 
BRANCH  18  19
ATOM     19  N   UNL     1      46.992   5.699  13.537  0.00  0.00    +0.000 N 
ATOM     20  C   UNL     1      48.203   6.149  13.978  0.00  0.00    +0.000 C 
ATOM     21  O   UNL     1      49.039   6.631  13.216  0.00  0.00    +0.000 OA
ATOM     22  H   UNL     1      46.385   5.177  14.163  0.00  0.00    +0.000 HD
BRANCH  20  23
ATOM     23  C   UNL     1      48.426   6.105  15.423  0.00  0.00    +0.000 A 
ATOM     24  C   UNL     1      48.850   7.251  16.079  0.00  0.00    +0.000 A 
ATOM     25  S   UNL     1      49.033   7.047  17.758  0.00  0.00    +0.000 S 
ATOM     26  C   UNL     1      48.591   5.406  17.659  0.00  0.00    +0.000 A 
ATOM     27  N   UNL     1      48.569   4.620  18.768  0.00  0.00    +0.000 NA
ATOM     28  C   UNL     1      48.249   3.392  18.548  0.00  0.00    +0.000 A 
ATOM     29  N   UNL     1      47.933   2.875  17.319  0.00  0.00    +0.000 N 
ATOM     30  C   UNL     1      47.869   3.644  16.181  0.00  0.00    +0.000 A 
ATOM     31  O   UNL     1      47.457   3.182  15.122  0.00  0.00    +0.000 OA
ATOM     32  C   UNL     1      48.274   5.026  16.368  0.00  0.00    +0.000 A 
ATOM     33  H   UNL     1      47.658   1.908  17.219  0.00  0.00    +0.000 HD
ENDBRANCH  20  23
ENDBRANCH  18  19
ENDBRANCH   6  18
TORSDOF 7
ENDMDL
MODEL 5
REMARK VINA RESULT:    -7.465      3.320      8.122
REMARK INTER + INTRA:         -11.886
REMARK INTER:                  -9.936
REMARK INTRA:                  -1.950
REMARK UNBOUND:                -1.366
REMARK  Name = 
REMARK  8 active torsions:
REMARK  status: ('A' for Active; 'I' for Inactive)
REMARK    1  A    between atoms: C_1  and  C_2
REMARK    2  A    between atoms: C_2  and  N_3
REMARK    3  A    between atoms: C_2  and  C_25
REMARK    4  A    between atoms: N_3  and  C_4
REMARK    5  A    between atoms: C_4  and  C_5
REMARK    6  A    between atoms: C_10  and  C_11
REMARK    7  A    between atoms: C_11  and  N_12
REMARK    8  A    between atoms: C_13  and  C_15
REMARK                            x       y       z     vdW  Elec       q    Type
REMARK                         _______ _______ _______ _____ _____    ______ ____
ROOT
ATOM      1  C   UNL     1      48.896   4.495  18.407  0.00  0.00    +0.000 A 
ATOM      2  N   UNL     1      50.184   4.639  18.834  0.00  0.00    +0.000 NA
ATOM      3  C   UNL     1      51.122   3.812  18.328  0.00  0.00    +0.000 A 
ATOM      4  C   UNL     1      50.853   2.830  17.397  0.00  0.00    +0.000 A 
ATOM      5  C   UNL     1      49.544   2.693  16.957  0.00  0.00    +0.000 A 
ATOM      6  C   UNL     1      48.530   3.523  17.463  0.00  0.00    +0.000 A 
ENDROOT
BRANCH   1   7
ATOM      7  C   UNL     1      47.903   5.473  19.015  0.00  0.00    +0.000 C 
BRANCH   7   8
ATOM      8  N   UNL     1      47.491   6.533  18.086  0.00  0.00    +0.000 NA
ATOM      9  H   UNL     1      47.517   6.193  17.132  0.00  0.00    +0.000 HD
BRANCH   8  11
ATOM     10  C   UNL     1      47.600   8.941  18.652  0.00  0.00    +0.000 C 
ATOM     11  C   UNL     1      48.362   7.722  18.127  0.00  0.00    +0.000 C 
BRANCH  11  12
ATOM     12  C   UNL     1      48.916   7.996  16.726  0.00  0.00    +0.000 A 
ATOM     13  C   UNL     1      49.815   7.104  16.136  0.00  0.00    +0.000 A 
ATOM     14  C   UNL     1      50.350   7.392  14.889  0.00  0.00    +0.000 A 
ATOM     15  C   UNL     1      49.987   8.572  14.256  0.00  0.00    +0.000 A 
ATOM     16  C   UNL     1      49.100   9.414  14.903  0.00  0.00    +0.000 A 
ATOM     17  N   UNL     1      48.561   9.161  16.120  0.00  0.00    +0.000 NA
ENDBRANCH  11  12
ENDBRANCH   8  11
ENDBRANCH   7   8
ENDBRANCH   1   7
BRANCH   6  18
ATOM     18  C   UNL     1      47.138   3.350  16.926  0.00  0.00    +0.000 C 
BRANCH  18  19
ATOM     19  N   UNL     1      46.813   4.354  15.953  0.00  0.00    +0.000 N 
ATOM     20  C   UNL     1      46.899   4.119  14.611  0.00  0.00    +0.000 C 
ATOM     21  O   UNL     1      47.301   3.050  14.157  0.00  0.00    +0.000 OA
ATOM     22  H   UNL     1      46.617   5.290  16.294  0.00  0.00    +0.000 HD
BRANCH  20  23
ATOM     23  C   UNL     1      46.407   5.181  13.733  0.00  0.00    +0.000 A 
ATOM     24  C   UNL     1      47.152   6.342  13.590  0.00  0.00    +0.000 A 
ATOM     25  S   UNL     1      46.464   7.465  12.513  0.00  0.00    +0.000 S 
ATOM     26  C   UNL     1      45.125   6.453  12.231  0.00  0.00    +0.000 A 
ATOM     27  N   UNL     1      44.119   6.839  11.403  0.00  0.00    +0.000 NA
ATOM     28  C   UNL     1      43.152   5.994  11.304  0.00  0.00    +0.000 A 
ATOM     29  N   UNL     1      43.102   4.785  11.948  0.00  0.00    +0.000 N 
ATOM     30  C   UNL     1      44.126   4.318  12.737  0.00  0.00    +0.000 A 
ATOM     31  O   UNL     1      44.110   3.180  13.194  0.00  0.00    +0.000 OA
ATOM     32  C   UNL     1      45.217   5.259  12.923  0.00  0.00    +0.000 A 
ATOM     33  H   UNL     1      42.328   4.153  11.802  0.00  0.00    +0.000 HD
ENDBRANCH  20  23
ENDBRANCH  18  19
ENDBRANCH   6  18
TORSDOF 7
ENDMDL
MODEL 6
REMARK VINA RESULT:    -7.427      3.103      7.968
REMARK INTER + INTRA:         -11.832
REMARK INTER:                 -10.463
REMARK INTRA:                  -1.369
REMARK UNBOUND:                -1.366
REMARK  Name = 
REMARK  8 active torsions:
REMARK  status: ('A' for Active; 'I' for Inactive)
REMARK    1  A    between atoms: C_1  and  C_2
REMARK    2  A    between atoms: C_2  and  N_3
REMARK    3  A    between atoms: C_2  and  C_25
REMARK    4  A    between atoms: N_3  and  C_4
REMARK    5  A    between atoms: C_4  and  C_5
REMARK    6  A    between atoms: C_10  and  C_11
REMARK    7  A    between atoms: C_11  and  N_12
REMARK    8  A    between atoms: C_13  and  C_15
REMARK                            x       y       z     vdW  Elec       q    Type
REMARK                         _______ _______ _______ _____ _____    ______ ____
ROOT
ATOM      1  C   UNL     1      47.967   5.929  17.915  0.00  0.00    +0.000 A 
ATOM      2  N   UNL     1      47.597   5.845  19.225  0.00  0.00    +0.000 NA
ATOM      3  C   UNL     1      47.945   6.852  20.053  0.00  0.00    +0.000 A 
ATOM      4  C   UNL     1      48.650   7.966  19.648  0.00  0.00    +0.000 A 
ATOM      5  C   UNL     1      49.017   8.052  18.313  0.00  0.00    +0.000 A 
ATOM      6  C   UNL     1      48.688   7.025  17.414  0.00  0.00    +0.000 A 
ENDROOT
BRANCH   1   7
ATOM      7  C   UNL     1      47.526   4.762  17.044  0.00  0.00    +0.000 C 
BRANCH   7   8
ATOM      8  N   UNL     1      48.645   4.069  16.394  0.00  0.00    +0.000 NA
ATOM      9  H   UNL     1      48.488   4.014  15.394  0.00  0.00    +0.000 HD
BRANCH   8  11
ATOM     10  C   UNL     1      47.866   2.358  18.003  0.00  0.00    +0.000 C 
ATOM     11  C   UNL     1      48.833   2.685  16.863  0.00  0.00    +0.000 C 
BRANCH  11  12
ATOM     12  C   UNL     1      50.283   2.493  17.316  0.00  0.00    +0.000 A 
ATOM     13  C   UNL     1      51.046   3.590  17.722  0.00  0.00    +0.000 A 
ATOM     14  C   UNL     1      52.375   3.409  18.078  0.00  0.00    +0.000 A 
ATOM     15  C   UNL     1      52.923   2.137  18.012  0.00  0.00    +0.000 A 
ATOM     16  C   UNL     1      52.112   1.097  17.591  0.00  0.00    +0.000 A 
ATOM     17  N   UNL     1      50.812   1.242  17.237  0.00  0.00    +0.000 NA
ENDBRANCH  11  12
ENDBRANCH   8  11
ENDBRANCH   7   8
ENDBRANCH   1   7
BRANCH   6  18
ATOM     18  C   UNL     1      49.082   7.188  15.974  0.00  0.00    +0.000 C 
BRANCH  18  19
ATOM     19  N   UNL     1      47.959   7.037  15.093  0.00  0.00    +0.000 N 
ATOM     20  C   UNL     1      48.104   6.673  13.786  0.00  0.00    +0.000 C 
ATOM     21  O   UNL     1      49.208   6.496  13.274  0.00  0.00    +0.000 OA
ATOM     22  H   UNL     1      47.047   7.315  15.445  0.00  0.00    +0.000 HD
BRANCH  20  23
ATOM     23  C   UNL     1      46.871   6.421  13.040  0.00  0.00    +0.000 A 
ATOM     24  C   UNL     1      46.206   7.486  12.451  0.00  0.00    +0.000 A 
ATOM     25  S   UNL     1      44.809   7.027  11.595  0.00  0.00    +0.000 S 
ATOM     26  C   UNL     1      45.024   5.392  12.017  0.00  0.00    +0.000 A 
ATOM     27  N   UNL     1      44.137   4.444  11.617  0.00  0.00    +0.000 NA
ATOM     28  C   UNL     1      44.400   3.254  12.032  0.00  0.00    +0.000 A 
ATOM     29  N   UNL     1      45.481   2.916  12.803  0.00  0.00    +0.000 N 
ATOM     30  C   UNL     1      46.445   3.825  13.173  0.00  0.00    +0.000 A 
ATOM     31  O   UNL     1      47.467   3.469  13.751  0.00  0.00    +0.000 OA
ATOM     32  C   UNL     1      46.165   5.193  12.773  0.00  0.00    +0.000 A 
ATOM     33  H   UNL     1      45.648   1.957  13.069  0.00  0.00    +0.000 HD
ENDBRANCH  20  23
ENDBRANCH  18  19
ENDBRANCH   6  18
TORSDOF 7
ENDMDL
MODEL 7
REMARK VINA RESULT:    -7.214      3.097      7.855
REMARK INTER + INTRA:         -11.532
REMARK INTER:                 -10.250
REMARK INTRA:                  -1.282
REMARK UNBOUND:                -1.366
REMARK  Name = 
REMARK  8 active torsions:
REMARK  status: ('A' for Active; 'I' for Inactive)
REMARK    1  A    between atoms: C_1  and  C_2
REMARK    2  A    between atoms: C_2  and  N_3
REMARK    3  A    between atoms: C_2  and  C_25
REMARK    4  A    between atoms: N_3  and  C_4
REMARK    5  A    between atoms: C_4  and  C_5
REMARK    6  A    between atoms: C_10  and  C_11
REMARK    7  A    between atoms: C_11  and  N_12
REMARK    8  A    between atoms: C_13  and  C_15
REMARK                            x       y       z     vdW  Elec       q    Type
REMARK                         _______ _______ _______ _____ _____    ______ ____
ROOT
ATOM      1  C   UNL     1      49.060   7.699  13.978  0.00  0.00    +0.000 A 
ATOM      2  N   UNL     1      50.398   7.758  13.718  0.00  0.00    +0.000 NA
ATOM      3  C   UNL     1      50.794   8.088  12.472  0.00  0.00    +0.000 A 
ATOM      4  C   UNL     1      49.921   8.375  11.443  0.00  0.00    +0.000 A 
ATOM      5  C   UNL     1      48.560   8.324  11.713  0.00  0.00    +0.000 A 
ATOM      6  C   UNL     1      48.099   7.974  12.992  0.00  0.00    +0.000 A 
ENDROOT
BRANCH   1   7
ATOM      7  C   UNL     1      48.696   7.334  15.408  0.00  0.00    +0.000 C 
BRANCH   7   8
ATOM      8  N   UNL     1      48.166   5.972  15.542  0.00  0.00    +0.000 NA
ATOM      9  H   UNL     1      47.207   5.935  15.215  0.00  0.00    +0.000 HD
BRANCH   8  11
ATOM     10  C   UNL     1      48.636   6.560  17.900  0.00  0.00    +0.000 C 
ATOM     11  C   UNL     1      48.150   5.480  16.931  0.00  0.00    +0.000 C 
BRANCH  11  12
ATOM     12  C   UNL     1      49.027   4.228  17.038  0.00  0.00    +0.000 A 
ATOM     13  C   UNL     1      50.290   4.300  17.629  0.00  0.00    +0.000 A 
ATOM     14  C   UNL     1      51.095   3.170  17.670  0.00  0.00    +0.000 A 
ATOM     15  C   UNL     1      50.629   1.990  17.110  0.00  0.00    +0.000 A 
ATOM     16  C   UNL     1      49.371   1.993  16.531  0.00  0.00    +0.000 A 
ATOM     17  N   UNL     1      48.563   3.079  16.476  0.00  0.00    +0.000 NA
ENDBRANCH  11  12
ENDBRANCH   8  11
ENDBRANCH   7   8
ENDBRANCH   1   7
BRANCH   6  18
ATOM     18  C   UNL     1      46.616   7.967  13.234  0.00  0.00    +0.000 C 
BRANCH  18  19
ATOM     19  N   UNL     1      46.031   6.696  12.914  0.00  0.00    +0.000 N 
ATOM     20  C   UNL     1      45.046   6.564  11.979  0.00  0.00    +0.000 C 
ATOM     21  O   UNL     1      44.571   7.532  11.387  0.00  0.00    +0.000 OA
ATOM     22  H   UNL     1      46.299   5.900  13.486  0.00  0.00    +0.000 HD
BRANCH  20  23
ATOM     23  C   UNL     1      44.637   5.198  11.654  0.00  0.00    +0.000 A 
ATOM     24  C   UNL     1      43.894   4.474  12.575  0.00  0.00    +0.000 A 
ATOM     25  S   UNL     1      43.471   2.917  12.036  0.00  0.00    +0.000 S 
ATOM     26  C   UNL     1      44.301   3.142  10.568  0.00  0.00    +0.000 A 
ATOM     27  N   UNL     1      44.356   2.154   9.637  0.00  0.00    +0.000 NA
ATOM     28  C   UNL     1      45.043   2.444   8.587  0.00  0.00    +0.000 A 
ATOM     29  N   UNL     1      45.673   3.641   8.371  0.00  0.00    +0.000 N 
ATOM     30  C   UNL     1      45.586   4.697   9.248  0.00  0.00    +0.000 A 
ATOM     31  O   UNL     1      46.050   5.797   8.967  0.00  0.00    +0.000 OA
ATOM     32  C   UNL     1      44.866   4.401  10.474  0.00  0.00    +0.000 A 
ATOM     33  H   UNL     1      46.170   3.817   7.509  0.00  0.00    +0.000 HD
ENDBRANCH  20  23
ENDBRANCH  18  19
ENDBRANCH   6  18
TORSDOF 7
ENDMDL
MODEL 8
REMARK VINA RESULT:    -7.048      3.178      7.962
REMARK INTER + INTRA:         -11.298
REMARK INTER:                  -9.620
REMARK INTRA:                  -1.678
REMARK UNBOUND:                -1.366
REMARK  Name = 
REMARK  8 active torsions:
REMARK  status: ('A' for Active; 'I' for Inactive)
REMARK    1  A    between atoms: C_1  and  C_2
REMARK    2  A    between atoms: C_2  and  N_3
REMARK    3  A    between atoms: C_2  and  C_25
REMARK    4  A    between atoms: N_3  and  C_4
REMARK    5  A    between atoms: C_4  and  C_5
REMARK    6  A    between atoms: C_10  and  C_11
REMARK    7  A    between atoms: C_11  and  N_12
REMARK    8  A    between atoms: C_13  and  C_15
REMARK                            x       y       z     vdW  Elec       q    Type
REMARK                         _______ _______ _______ _____ _____    ______ ____
ROOT
ATOM      1  C   UNL     1      48.816   8.709  17.098  0.00  0.00    +0.000 A 
ATOM      2  N   UNL     1      49.181  10.003  17.329  0.00  0.00    +0.000 NA
ATOM      3  C   UNL     1      49.968  10.617  16.421  0.00  0.00    +0.000 A 
ATOM      4  C   UNL     1      50.420  10.011  15.268  0.00  0.00    +0.000 A 
ATOM      5  C   UNL     1      50.038   8.698  15.031  0.00  0.00    +0.000 A 
ATOM      6  C   UNL     1      49.230   8.012  15.952  0.00  0.00    +0.000 A 
ENDROOT
BRANCH   1   7
ATOM      7  C   UNL     1      47.918   8.094  18.160  0.00  0.00    +0.000 C 
BRANCH   7   8
ATOM      8  N   UNL     1      48.647   7.256  19.121  0.00  0.00    +0.000 NA
ATOM      9  H   UNL     1      49.477   6.867  18.688  0.00  0.00    +0.000 HD
BRANCH   8  11
ATOM     10  C   UNL     1      48.292   5.730  21.037  0.00  0.00    +0.000 C 
ATOM     11  C   UNL     1      47.862   6.113  19.620  0.00  0.00    +0.000 C 
BRANCH  11  12
ATOM     12  C   UNL     1      48.031   4.925  18.667  0.00  0.00    +0.000 A 
ATOM     13  C   UNL     1      49.268   4.290  18.544  0.00  0.00    +0.000 A 
ATOM     14  C   UNL     1      49.420   3.250  17.638  0.00  0.00    +0.000 A 
ATOM     15  C   UNL     1      48.336   2.870  16.860  0.00  0.00    +0.000 A 
ATOM     16  C   UNL     1      47.142   3.551  17.027  0.00  0.00    +0.000 A 
ATOM     17  N   UNL     1      46.963   4.568  17.903  0.00  0.00    +0.000 NA
ENDBRANCH  11  12
ENDBRANCH   8  11
ENDBRANCH   7   8
ENDBRANCH   1   7
BRANCH   6  18
ATOM     18  C   UNL     1      48.822   6.604  15.628  0.00  0.00    +0.000 C 
BRANCH  18  19
ATOM     19  N   UNL     1      47.657   6.566  14.789  0.00  0.00    +0.000 N 
ATOM     20  C   UNL     1      47.718   6.192  13.478  0.00  0.00    +0.000 C 
ATOM     21  O   UNL     1      48.780   5.909  12.926  0.00  0.00    +0.000 OA
ATOM     22  H   UNL     1      46.791   6.931  15.174  0.00  0.00    +0.000 HD
BRANCH  20  23
ATOM     23  C   UNL     1      46.439   6.064  12.778  0.00  0.00    +0.000 A 
ATOM     24  C   UNL     1      45.857   7.192  12.219  0.00  0.00    +0.000 A 
ATOM     25  S   UNL     1      44.392   6.874  11.415  0.00  0.00    +0.000 S 
ATOM     26  C   UNL     1      44.466   5.223  11.822  0.00  0.00    +0.000 A 
ATOM     27  N   UNL     1      43.478   4.367  11.452  0.00  0.00    +0.000 NA
ATOM     28  C   UNL     1      43.642   3.154  11.853  0.00  0.00    +0.000 A 
ATOM     29  N   UNL     1      44.714   2.709  12.581  0.00  0.00    +0.000 N 
ATOM     30  C   UNL     1      45.774   3.519  12.917  0.00  0.00    +0.000 A 
ATOM     31  O   UNL     1      46.778   3.064  13.454  0.00  0.00    +0.000 OA
ATOM     32  C   UNL     1      45.610   4.911  12.533  0.00  0.00    +0.000 A 
ATOM     33  H   UNL     1      44.799   1.736  12.836  0.00  0.00    +0.000 HD
ENDBRANCH  20  23
ENDBRANCH  18  19
ENDBRANCH   6  18
TORSDOF 7
ENDMDL
MODEL 9
REMARK VINA RESULT:    -6.938      2.740      3.529
REMARK INTER + INTRA:         -11.143
REMARK INTER:                 -10.045
REMARK INTRA:                  -1.098
REMARK UNBOUND:                -1.366
REMARK  Name = 
REMARK  8 active torsions:
REMARK  status: ('A' for Active; 'I' for Inactive)
REMARK    1  A    between atoms: C_1  and  C_2
REMARK    2  A    between atoms: C_2  and  N_3
REMARK    3  A    between atoms: C_2  and  C_25
REMARK    4  A    between atoms: N_3  and  C_4
REMARK    5  A    between atoms: C_4  and  C_5
REMARK    6  A    between atoms: C_10  and  C_11
REMARK    7  A    between atoms: C_11  and  N_12
REMARK    8  A    between atoms: C_13  and  C_15
REMARK                            x       y       z     vdW  Elec       q    Type
REMARK                         _______ _______ _______ _____ _____    ______ ____
ROOT
ATOM      1  C   UNL     1      47.450   7.243  12.942  0.00  0.00    +0.000 A 
ATOM      2  N   UNL     1      47.881   7.967  11.869  0.00  0.00    +0.000 NA
ATOM      3  C   UNL     1      49.165   8.380  11.850  0.00  0.00    +0.000 A 
ATOM      4  C   UNL     1      50.071   8.106  12.853  0.00  0.00    +0.000 A 
ATOM      5  C   UNL     1      49.632   7.360  13.938  0.00  0.00    +0.000 A 
ATOM      6  C   UNL     1      48.302   6.918  14.009  0.00  0.00    +0.000 A 
ENDROOT
BRANCH   1   7
ATOM      7  C   UNL     1      45.995   6.804  12.882  0.00  0.00    +0.000 C 
BRANCH   7   8
ATOM      8  N   UNL     1      45.610   6.251  11.577  0.00  0.00    +0.000 NA
ATOM      9  H   UNL     1      45.008   6.902  11.086  0.00  0.00    +0.000 HD
BRANCH   8  11
ATOM     10  C   UNL     1      45.391   4.123  12.821  0.00  0.00    +0.000 C 
ATOM     11  C   UNL     1      44.864   4.984  11.672  0.00  0.00    +0.000 C 
BRANCH  11  12
ATOM     12  C   UNL     1      44.970   4.230  10.343  0.00  0.00    +0.000 A 
ATOM     13  C   UNL     1      44.550   2.902  10.250  0.00  0.00    +0.000 A 
ATOM     14  C   UNL     1      44.702   2.215   9.053  0.00  0.00    +0.000 A 
ATOM     15  C   UNL     1      45.282   2.864   7.973  0.00  0.00    +0.000 A 
ATOM     16  C   UNL     1      45.684   4.178   8.139  0.00  0.00    +0.000 A 
ATOM     17  N   UNL     1      45.549   4.874   9.293  0.00  0.00    +0.000 NA
ENDBRANCH  11  12
ENDBRANCH   8  11
ENDBRANCH   7   8
ENDBRANCH   1   7
BRANCH   6  18
ATOM     18  C   UNL     1      47.893   6.087  15.192  0.00  0.00    +0.000 C 
BRANCH  18  19
ATOM     19  N   UNL     1      49.026   5.661  15.963  0.00  0.00    +0.000 N 
ATOM     20  C   UNL     1      48.895   4.914  17.096  0.00  0.00    +0.000 C 
ATOM     21  O   UNL     1      47.796   4.598  17.550  0.00  0.00    +0.000 OA
ATOM     22  H   UNL     1      49.936   6.026  15.696  0.00  0.00    +0.000 HD
BRANCH  20  23
ATOM     23  C   UNL     1      50.135   4.433  17.706  0.00  0.00    +0.000 A 
ATOM     24  C   UNL     1      50.856   5.279  18.535  0.00  0.00    +0.000 A 
ATOM     25  S   UNL     1      52.254   4.564  19.189  0.00  0.00    +0.000 S 
ATOM     26  C   UNL     1      51.965   3.110  18.353  0.00  0.00    +0.000 A 
ATOM     27  N   UNL     1      52.824   2.062  18.455  0.00  0.00    +0.000 NA
ATOM     28  C   UNL     1      52.504   1.036  17.746  0.00  0.00    +0.000 A 
ATOM     29  N   UNL     1      51.392   0.952  16.950  0.00  0.00    +0.000 N 
ATOM     30  C   UNL     1      50.456   1.956  16.870  0.00  0.00    +0.000 A 
ATOM     31  O   UNL     1      49.407   1.800  16.253  0.00  0.00    +0.000 OA
ATOM     32  C   UNL     1      50.799   3.157  17.611  0.00  0.00    +0.000 A 
ATOM     33  H   UNL     1      51.181   0.104  16.443  0.00  0.00    +0.000 HD
ENDBRANCH  20  23
ENDBRANCH  18  19
ENDBRANCH   6  18
TORSDOF 7
ENDMDL
