MODEL 1
REMARK VINA RESULT:    -7.894      0.000      0.000
REMARK INTER + INTRA:         -11.659
REMARK INTER:                 -10.663
REMARK INTRA:                  -0.996
REMARK UNBOUND:                -0.996
REMARK  Name = 
REMARK  6 active torsions:
REMARK  status: ('A' for Active; 'I' for Inactive)
REMARK    1  A    between atoms: C_2  and  C_19
REMARK    2  A    between atoms: N_3  and  C_4
REMARK    3  A    between atoms: C_4  and  C_5
REMARK    4  A    between atoms: C_8  and  C_9
REMARK    5  A    between atoms: C_9  and  O_10
REMARK    6  A    between atoms: O_10  and  C_11
REMARK                            x       y       z     vdW  Elec       q    Type
REMARK                         _______ _______ _______ _____ _____    ______ ____
ROOT
ATOM      1  O   UNL     1      49.368   7.039  13.592  0.00  0.00    +0.000 OA
ATOM      2  C   UNL     1      48.594   7.269  14.513  0.00  0.00    +0.000 C 
ATOM      3  N   UNL     1      47.433   7.997  14.391  0.00  0.00    +0.000 N 
ATOM      4  H   UNL     1      46.752   7.936  15.134  0.00  0.00    +0.000 HD
ENDROOT
BRANCH   2   5
ATOM      5  C   UNL     1      48.682   6.632  15.819  0.00  0.00    +0.000 A 
ATOM      6  C   UNL     1      49.318   7.216  16.899  0.00  0.00    +0.000 A 
ATOM      7  S   UNL     1      49.750   6.045  18.082  0.00  0.00    +0.000 S 
ATOM      8  C   UNL     1      48.963   4.801  17.221  0.00  0.00    +0.000 A 
ATOM      9  N   UNL     1      49.057   3.491  17.571  0.00  0.00    +0.000 NA
ATOM     10  C   UNL     1      48.356   2.693  16.831  0.00  0.00    +0.000 A 
ATOM     11  N   UNL     1      47.527   3.091  15.808  0.00  0.00    +0.000 N 
ATOM     12  C   UNL     1      47.381   4.404  15.438  0.00  0.00    +0.000 A 
ATOM     13  O   UNL     1      46.561   4.755  14.595  0.00  0.00    +0.000 OA
ATOM     14  C   UNL     1      48.261   5.304  16.148  0.00  0.00    +0.000 A 
ATOM     15  H   UNL     1      46.932   2.428  15.332  0.00  0.00    +0.000 HD
ENDBRANCH   2   5
BRANCH   3  16
ATOM     16  C   UNL     1      46.903   8.407  13.110  0.00  0.00    +0.000 C 
BRANCH  16  17
ATOM     17  C   UNL     1      46.165   7.274  12.427  0.00  0.00    +0.000 A 
ATOM     18  N   UNL     1      46.763   6.659  11.388  0.00  0.00    +0.000 NA
ATOM     19  C   UNL     1      46.064   5.682  10.777  0.00  0.00    +0.000 A 
ATOM     20  C   UNL     1      44.788   5.309  11.138  0.00  0.00    +0.000 A 
ATOM     21  C   UNL     1      44.258   6.010  12.201  0.00  0.00    +0.000 A 
ATOM     22  N   UNL     1      44.906   7.008  12.840  0.00  0.00    +0.000 NA
BRANCH  20  23
ATOM     23  C   UNL     1      44.043   4.207  10.452  0.00  0.00    +0.000 C 
BRANCH  23  24
ATOM     24  O   UNL     1      44.138   4.399   9.046  0.00  0.00    +0.000 OA
BRANCH  24  25
ATOM     25  C   UNL     1      45.078   3.558   8.490  0.00  0.00    +0.000 A 
ATOM     26  N   UNL     1      45.023   2.286   8.908  0.00  0.00    +0.000 NA
ATOM     27  C   UNL     1      45.935   1.454   8.374  0.00  0.00    +0.000 A 
ATOM     28  C   UNL     1      46.871   1.842   7.445  0.00  0.00    +0.000 A 
ATOM     29  C   UNL     1      46.825   3.163   7.075  0.00  0.00    +0.000 A 
ATOM     30  N   UNL     1      45.944   4.048   7.585  0.00  0.00    +0.000 NA
ENDBRANCH  24  25
ENDBRANCH  23  24
ENDBRANCH  20  23
ENDBRANCH  16  17
ENDBRANCH   3  16
TORSDOF 6
ENDMDL
MODEL 2
REMARK VINA RESULT:    -7.679      2.441      3.158
REMARK INTER + INTRA:         -11.368
REMARK INTER:                 -10.567
REMARK INTRA:                  -0.801
REMARK UNBOUND:                -0.996
REMARK  Name = 
REMARK  6 active torsions:
REMARK  status: ('A' for Active; 'I' for Inactive)
REMARK    1  A    between atoms: C_2  and  C_19
REMARK    2  A    between atoms: N_3  and  C_4
REMARK    3  A    between atoms: C_4  and  C_5
REMARK    4  A    between atoms: C_8  and  C_9
REMARK    5  A    between atoms: C_9  and  O_10
REMARK    6  A    between atoms: O_10  and  C_11
REMARK                            x       y       z     vdW  Elec       q    Type
REMARK                         _______ _______ _______ _____ _____    ______ ____
ROOT
ATOM      1  O   UNL     1      49.552   4.608  16.654  0.00  0.00    +0.000 OA
ATOM      2  C   UNL     1      48.744   5.511  16.474  0.00  0.00    +0.000 C 
ATOM      3  N   UNL     1      47.603   5.395  15.712  0.00  0.00    +0.000 N 
ATOM      4  H   UNL     1      46.890   6.101  15.811  0.00  0.00    +0.000 HD
ENDROOT
BRANCH   2   5
ATOM      5  C   UNL     1      48.762   6.769  17.206  0.00  0.00    +0.000 A 
ATOM      6  C   UNL     1      49.470   7.878  16.777  0.00  0.00    +0.000 A 
ATOM      7  S   UNL     1      49.765   8.972  18.070  0.00  0.00    +0.000 S 
ATOM      8  C   UNL     1      48.831   8.039  19.150  0.00  0.00    +0.000 A 
ATOM      9  N   UNL     1      48.770   8.298  20.483  0.00  0.00    +0.000 NA
ATOM     10  C   UNL     1      47.974   7.515  21.139  0.00  0.00    +0.000 A 
ATOM     11  N   UNL     1      47.193   6.534  20.576  0.00  0.00    +0.000 N 
ATOM     12  C   UNL     1      47.202   6.255  19.232  0.00  0.00    +0.000 A 
ATOM     13  O   UNL     1      46.425   5.450  18.728  0.00  0.00    +0.000 OA
ATOM     14  C   UNL     1      48.188   7.012  18.493  0.00  0.00    +0.000 A 
ATOM     15  H   UNL     1      46.520   6.022  21.128  0.00  0.00    +0.000 HD
ENDBRANCH   2   5
BRANCH   3  16
ATOM     16  C   UNL     1      47.137   4.126  15.198  0.00  0.00    +0.000 C 
BRANCH  16  17
ATOM     17  C   UNL     1      46.438   4.291  13.863  0.00  0.00    +0.000 A 
ATOM     18  N   UNL     1      46.225   5.540  13.407  0.00  0.00    +0.000 NA
ATOM     19  C   UNL     1      45.565   5.653  12.237  0.00  0.00    +0.000 A 
ATOM     20  C   UNL     1      45.088   4.580  11.516  0.00  0.00    +0.000 A 
ATOM     21  C   UNL     1      45.343   3.347  12.077  0.00  0.00    +0.000 A 
ATOM     22  N   UNL     1      45.984   3.174  13.253  0.00  0.00    +0.000 NA
BRANCH  20  23
ATOM     23  C   UNL     1      44.376   4.737  10.209  0.00  0.00    +0.000 C 
BRANCH  23  24
ATOM     24  O   UNL     1      44.156   3.448   9.651  0.00  0.00    +0.000 OA
BRANCH  24  25
ATOM     25  C   UNL     1      45.146   3.120   8.750  0.00  0.00    +0.000 A 
ATOM     26  N   UNL     1      45.544   1.841   8.781  0.00  0.00    +0.000 NA
ATOM     27  C   UNL     1      46.511   1.505   7.907  0.00  0.00    +0.000 A 
ATOM     28  C   UNL     1      47.069   2.388   7.013  0.00  0.00    +0.000 A 
ATOM     29  C   UNL     1      46.574   3.667   7.056  0.00  0.00    +0.000 A 
ATOM     30  N   UNL     1      45.617   4.066   7.918  0.00  0.00    +0.000 NA
ENDBRANCH  24  25
ENDBRANCH  23  24
ENDBRANCH  20  23
ENDBRANCH  16  17
ENDBRANCH   3  16
TORSDOF 6
ENDMDL
MODEL 3
REMARK VINA RESULT:    -7.506      1.486      1.939
REMARK INTER + INTRA:         -11.134
REMARK INTER:                 -10.355
REMARK INTRA:                  -0.779
REMARK UNBOUND:                -0.996
REMARK  Name = 
REMARK  6 active torsions:
REMARK  status: ('A' for Active; 'I' for Inactive)
REMARK    1  A    between atoms: C_2  and  C_19
REMARK    2  A    between atoms: N_3  and  C_4
REMARK    3  A    between atoms: C_4  and  C_5
REMARK    4  A    between atoms: C_8  and  C_9
REMARK    5  A    between atoms: C_9  and  O_10
REMARK    6  A    between atoms: O_10  and  C_11
REMARK                            x       y       z     vdW  Elec       q    Type
REMARK                         _______ _______ _______ _____ _____    ______ ____
ROOT
ATOM      1  O   UNL     1      48.410   8.114  16.610  0.00  0.00    +0.000 OA
ATOM      2  C   UNL     1      48.685   6.966  16.284  0.00  0.00    +0.000 C 
ATOM      3  N   UNL     1      48.340   6.394  15.081  0.00  0.00    +0.000 N 
ATOM      4  H   UNL     1      48.805   5.541  14.808  0.00  0.00    +0.000 HD
ENDROOT
BRANCH   2   5
ATOM      5  C   UNL     1      49.595   6.110  17.032  0.00  0.00    +0.000 A 
ATOM      6  C   UNL     1      50.785   6.566  17.569  0.00  0.00    +0.000 A 
ATOM      7  S   UNL     1      51.872   5.270  17.877  0.00  0.00    +0.000 S 
ATOM      8  C   UNL     1      50.704   4.109  17.433  0.00  0.00    +0.000 A 
ATOM      9  N   UNL     1      50.992   2.786  17.309  0.00  0.00    +0.000 NA
ATOM     10  C   UNL     1      49.972   2.048  17.010  0.00  0.00    +0.000 A 
ATOM     11  N   UNL     1      48.681   2.502  16.879  0.00  0.00    +0.000 N 
ATOM     12  C   UNL     1      48.340   3.824  17.023  0.00  0.00    +0.000 A 
ATOM     13  O   UNL     1      47.172   4.200  17.007  0.00  0.00    +0.000 OA
ATOM     14  C   UNL     1      49.477   4.696  17.212  0.00  0.00    +0.000 A 
ATOM     15  H   UNL     1      47.914   1.861  16.741  0.00  0.00    +0.000 HD
ENDBRANCH   2   5
BRANCH   3  16
ATOM     16  C   UNL     1      47.779   7.158  13.989  0.00  0.00    +0.000 C 
BRANCH  16  17
ATOM     17  C   UNL     1      46.793   6.335  13.184  0.00  0.00    +0.000 A 
ATOM     18  N   UNL     1      46.354   5.175  13.710  0.00  0.00    +0.000 NA
ATOM     19  C   UNL     1      45.510   4.446  12.952  0.00  0.00    +0.000 A 
ATOM     20  C   UNL     1      45.105   4.811  11.687  0.00  0.00    +0.000 A 
ATOM     21  C   UNL     1      45.624   6.005  11.234  0.00  0.00    +0.000 A 
ATOM     22  N   UNL     1      46.484   6.767  11.941  0.00  0.00    +0.000 NA
BRANCH  20  23
ATOM     23  C   UNL     1      44.151   3.990  10.877  0.00  0.00    +0.000 C 
BRANCH  23  24
ATOM     24  O   UNL     1      44.209   4.424   9.524  0.00  0.00    +0.000 OA
BRANCH  24  25
ATOM     25  C   UNL     1      45.089   3.656   8.791  0.00  0.00    +0.000 A 
ATOM     26  N   UNL     1      45.828   4.330   7.900  0.00  0.00    +0.000 NA
ATOM     27  C   UNL     1      46.691   3.595   7.176  0.00  0.00    +0.000 A 
ATOM     28  C   UNL     1      46.844   2.236   7.323  0.00  0.00    +0.000 A 
ATOM     29  C   UNL     1      46.050   1.651   8.277  0.00  0.00    +0.000 A 
ATOM     30  N   UNL     1      45.157   2.333   9.023  0.00  0.00    +0.000 NA
ENDBRANCH  24  25
ENDBRANCH  23  24
ENDBRANCH  20  23
ENDBRANCH  16  17
ENDBRANCH   3  16
TORSDOF 6
ENDMDL
MODEL 4
REMARK VINA RESULT:    -7.369      2.095      3.851
REMARK INTER + INTRA:         -10.949
REMARK INTER:                 -10.119
REMARK INTRA:                  -0.829
REMARK UNBOUND:                -0.996
REMARK  Name = 
REMARK  6 active torsions:
REMARK  status: ('A' for Active; 'I' for Inactive)
REMARK    1  A    between atoms: C_2  and  C_19
REMARK    2  A    between atoms: N_3  and  C_4
REMARK    3  A    between atoms: C_4  and  C_5
REMARK    4  A    between atoms: C_8  and  C_9
REMARK    5  A    between atoms: C_9  and  O_10
REMARK    6  A    between atoms: O_10  and  C_11
REMARK                            x       y       z     vdW  Elec       q    Type
REMARK                         _______ _______ _______ _____ _____    ______ ____
ROOT
ATOM      1  O   UNL     1      48.991   5.476  16.110  0.00  0.00    +0.000 OA
ATOM      2  C   UNL     1      48.584   6.306  15.306  0.00  0.00    +0.000 C 
ATOM      3  N   UNL     1      47.569   6.083  14.403  0.00  0.00    +0.000 N 
ATOM      4  H   UNL     1      47.150   6.882  13.952  0.00  0.00    +0.000 HD
ENDROOT
BRANCH   2   5
ATOM      5  C   UNL     1      48.970   7.709  15.329  0.00  0.00    +0.000 A 
ATOM      6  C   UNL     1      49.128   8.427  16.500  0.00  0.00    +0.000 A 
ATOM      7  S   UNL     1      49.023  10.120  16.219  0.00  0.00    +0.000 S 
ATOM      8  C   UNL     1      48.915   9.890  14.532  0.00  0.00    +0.000 A 
ATOM      9  N   UNL     1      48.648  10.905  13.667  0.00  0.00    +0.000 NA
ATOM     10  C   UNL     1      48.650  10.554  12.421  0.00  0.00    +0.000 A 
ATOM     11  N   UNL     1      48.951   9.295  11.958  0.00  0.00    +0.000 N 
ATOM     12  C   UNL     1      49.253   8.248  12.792  0.00  0.00    +0.000 A 
ATOM     13  O   UNL     1      49.621   7.159  12.363  0.00  0.00    +0.000 OA
ATOM     14  C   UNL     1      49.115   8.570  14.195  0.00  0.00    +0.000 A 
ATOM     15  H   UNL     1      49.032   9.109  10.969  0.00  0.00    +0.000 HD
ENDBRANCH   2   5
BRANCH   3  16
ATOM     16  C   UNL     1      46.740   4.899  14.442  0.00  0.00    +0.000 C 
BRANCH  16  17
ATOM     17  C   UNL     1      46.081   4.640  13.102  0.00  0.00    +0.000 A 
ATOM     18  N   UNL     1      46.132   5.610  12.169  0.00  0.00    +0.000 NA
ATOM     19  C   UNL     1      45.502   5.364  11.003  0.00  0.00    +0.000 A 
ATOM     20  C   UNL     1      44.803   4.207  10.736  0.00  0.00    +0.000 A 
ATOM     21  C   UNL     1      44.796   3.286  11.762  0.00  0.00    +0.000 A 
ATOM     22  N   UNL     1      45.396   3.484  12.955  0.00  0.00    +0.000 NA
BRANCH  20  23
ATOM     23  C   UNL     1      44.129   3.955   9.424  0.00  0.00    +0.000 C 
BRANCH  23  24
ATOM     24  O   UNL     1      44.286   2.583   9.086  0.00  0.00    +0.000 OA
BRANCH  24  25
ATOM     25  C   UNL     1      45.370   2.395   8.255  0.00  0.00    +0.000 A 
ATOM     26  N   UNL     1      45.646   3.420   7.438  0.00  0.00    +0.000 NA
ATOM     27  C   UNL     1      46.700   3.251   6.620  0.00  0.00    +0.000 A 
ATOM     28  C   UNL     1      47.479   2.117   6.604  0.00  0.00    +0.000 A 
ATOM     29  C   UNL     1      47.116   1.138   7.494  0.00  0.00    +0.000 A 
ATOM     30  N   UNL     1      46.062   1.244   8.328  0.00  0.00    +0.000 NA
ENDBRANCH  24  25
ENDBRANCH  23  24
ENDBRANCH  20  23
ENDBRANCH  16  17
ENDBRANCH   3  16
TORSDOF 6
ENDMDL
MODEL 5
REMARK VINA RESULT:    -7.200      2.140      3.307
REMARK INTER + INTRA:         -10.720
REMARK INTER:                  -9.768
REMARK INTRA:                  -0.952
REMARK UNBOUND:                -0.996
REMARK  Name = 
REMARK  6 active torsions:
REMARK  status: ('A' for Active; 'I' for Inactive)
REMARK    1  A    between atoms: C_2  and  C_19
REMARK    2  A    between atoms: N_3  and  C_4
REMARK    3  A    between atoms: C_4  and  C_5
REMARK    4  A    between atoms: C_8  and  C_9
REMARK    5  A    between atoms: C_9  and  O_10
REMARK    6  A    between atoms: O_10  and  C_11
REMARK                            x       y       z     vdW  Elec       q    Type
REMARK                         _______ _______ _______ _____ _____    ______ ____
ROOT
ATOM      1  O   UNL     1      46.761   3.961  17.260  0.00  0.00    +0.000 OA
ATOM      2  C   UNL     1      47.614   3.852  16.388  0.00  0.00    +0.000 C 
ATOM      3  N   UNL     1      47.486   4.340  15.108  0.00  0.00    +0.000 N 
ATOM      4  H   UNL     1      48.316   4.412  14.539  0.00  0.00    +0.000 HD
ENDROOT
BRANCH   2   5
ATOM      5  C   UNL     1      48.968   3.377  16.637  0.00  0.00    +0.000 A 
ATOM      6  C   UNL     1      49.320   2.042  16.570  0.00  0.00    +0.000 A 
ATOM      7  S   UNL     1      50.772   1.731  17.436  0.00  0.00    +0.000 S 
ATOM      8  C   UNL     1      50.996   3.389  17.769  0.00  0.00    +0.000 A 
ATOM      9  N   UNL     1      51.964   3.847  18.607  0.00  0.00    +0.000 NA
ATOM     10  C   UNL     1      52.014   5.137  18.703  0.00  0.00    +0.000 A 
ATOM     11  N   UNL     1      51.224   6.011  17.995  0.00  0.00    +0.000 N 
ATOM     12  C   UNL     1      50.253   5.595  17.119  0.00  0.00    +0.000 A 
ATOM     13  O   UNL     1      49.628   6.383  16.417  0.00  0.00    +0.000 OA
ATOM     14  C   UNL     1      50.072   4.161  17.099  0.00  0.00    +0.000 A 
ATOM     15  H   UNL     1      51.379   7.008  18.041  0.00  0.00    +0.000 HD
ENDBRANCH   2   5
BRANCH   3  16
ATOM     16  C   UNL     1      46.399   5.209  14.712  0.00  0.00    +0.000 C 
BRANCH  16  17
ATOM     17  C   UNL     1      45.819   4.798  13.373  0.00  0.00    +0.000 A 
ATOM     18  N   UNL     1      45.110   3.654  13.311  0.00  0.00    +0.000 NA
ATOM     19  C   UNL     1      44.642   3.296  12.099  0.00  0.00    +0.000 A 
ATOM     20  C   UNL     1      44.872   4.012  10.944  0.00  0.00    +0.000 A 
ATOM     21  C   UNL     1      45.623   5.156  11.112  0.00  0.00    +0.000 A 
ATOM     22  N   UNL     1      46.130   5.555  12.298  0.00  0.00    +0.000 NA
BRANCH  20  23
ATOM     23  C   UNL     1      44.323   3.598   9.615  0.00  0.00    +0.000 C 
BRANCH  23  24
ATOM     24  O   UNL     1      44.698   2.250   9.366  0.00  0.00    +0.000 OA
BRANCH  24  25
ATOM     25  C   UNL     1      45.644   2.172   8.366  0.00  0.00    +0.000 A 
ATOM     26  N   UNL     1      45.785   3.280   7.627  0.00  0.00    +0.000 NA
ATOM     27  C   UNL     1      46.703   3.219   6.646  0.00  0.00    +0.000 A 
ATOM     28  C   UNL     1      47.479   2.111   6.396  0.00  0.00    +0.000 A 
ATOM     29  C   UNL     1      47.263   1.039   7.225  0.00  0.00    +0.000 A 
ATOM     30  N   UNL     1      46.348   1.035   8.215  0.00  0.00    +0.000 NA
ENDBRANCH  24  25
ENDBRANCH  23  24
ENDBRANCH  20  23
ENDBRANCH  16  17
ENDBRANCH   3  16
TORSDOF 6
ENDMDL
MODEL 6
REMARK VINA RESULT:    -7.166      1.809      2.151
REMARK INTER + INTRA:         -10.675
REMARK INTER:                  -9.929
REMARK INTRA:                  -0.746
REMARK UNBOUND:                -0.996
REMARK  Name = 
REMARK  6 active torsions:
REMARK  status: ('A' for Active; 'I' for Inactive)
REMARK    1  A    between atoms: C_2  and  C_19
REMARK    2  A    between atoms: N_3  and  C_4
REMARK    3  A    between atoms: C_4  and  C_5
REMARK    4  A    between atoms: C_8  and  C_9
REMARK    5  A    between atoms: C_9  and  O_10
REMARK    6  A    between atoms: O_10  and  C_11
REMARK                            x       y       z     vdW  Elec       q    Type
REMARK                         _______ _______ _______ _____ _____    ______ ____
ROOT
ATOM      1  O   UNL     1      50.311   6.328  15.848  0.00  0.00    +0.000 OA
ATOM      2  C   UNL     1      49.245   6.883  16.086  0.00  0.00    +0.000 C 
ATOM      3  N   UNL     1      48.397   7.387  15.127  0.00  0.00    +0.000 N 
ATOM      4  H   UNL     1      47.451   7.609  15.396  0.00  0.00    +0.000 HD
ENDROOT
BRANCH   2   5
ATOM      5  C   UNL     1      48.621   6.901  17.402  0.00  0.00    +0.000 A 
ATOM      6  C   UNL     1      48.269   8.071  18.050  0.00  0.00    +0.000 A 
ATOM      7  S   UNL     1      48.098   7.824  19.743  0.00  0.00    +0.000 S 
ATOM      8  C   UNL     1      48.350   6.145  19.581  0.00  0.00    +0.000 A 
ATOM      9  N   UNL     1      48.493   5.316  20.649  0.00  0.00    +0.000 NA
ATOM     10  C   UNL     1      48.630   4.067  20.337  0.00  0.00    +0.000 A 
ATOM     11  N   UNL     1      48.581   3.565  19.058  0.00  0.00    +0.000 N 
ATOM     12  C   UNL     1      48.412   4.360  17.952  0.00  0.00    +0.000 A 
ATOM     13  O   UNL     1      48.265   3.891  16.828  0.00  0.00    +0.000 OA
ATOM     14  C   UNL     1      48.403   5.774  18.255  0.00  0.00    +0.000 A 
ATOM     15  H   UNL     1      48.597   2.570  18.887  0.00  0.00    +0.000 HD
ENDBRANCH   2   5
BRANCH   3  16
ATOM     16  C   UNL     1      48.588   7.142  13.714  0.00  0.00    +0.000 C 
BRANCH  16  17
ATOM     17  C   UNL     1      47.424   6.373  13.123  0.00  0.00    +0.000 A 
ATOM     18  N   UNL     1      47.061   5.216  13.709  0.00  0.00    +0.000 NA
ATOM     19  C   UNL     1      46.049   4.536  13.136  0.00  0.00    +0.000 A 
ATOM     20  C   UNL     1      45.400   4.945  11.991  0.00  0.00    +0.000 A 
ATOM     21  C   UNL     1      45.857   6.131  11.459  0.00  0.00    +0.000 A 
ATOM     22  N   UNL     1      46.876   6.846  11.981  0.00  0.00    +0.000 NA
BRANCH  20  23
ATOM     23  C   UNL     1      44.266   4.177  11.387  0.00  0.00    +0.000 C 
BRANCH  23  24
ATOM     24  O   UNL     1      44.105   4.587  10.035  0.00  0.00    +0.000 OA
BRANCH  24  25
ATOM     25  C   UNL     1      44.900   3.843   9.190  0.00  0.00    +0.000 A 
ATOM     26  N   UNL     1      44.885   2.521   9.410  0.00  0.00    +0.000 NA
ATOM     27  C   UNL     1      45.657   1.781   8.594  0.00  0.00    +0.000 A 
ATOM     28  C   UNL     1      46.416   2.310   7.577  0.00  0.00    +0.000 A 
ATOM     29  C   UNL     1      46.343   3.673   7.430  0.00  0.00    +0.000 A 
ATOM     30  N   UNL     1      45.600   4.468   8.226  0.00  0.00    +0.000 NA
ENDBRANCH  24  25
ENDBRANCH  23  24
ENDBRANCH  20  23
ENDBRANCH  16  17
ENDBRANCH   3  16
TORSDOF 6
ENDMDL
MODEL 7
REMARK VINA RESULT:    -7.102      2.877      8.032
REMARK INTER + INTRA:         -10.588
REMARK INTER:                  -9.769
REMARK INTRA:                  -0.819
REMARK UNBOUND:                -0.996
REMARK  Name = 
REMARK  6 active torsions:
REMARK  status: ('A' for Active; 'I' for Inactive)
REMARK    1  A    between atoms: C_2  and  C_19
REMARK    2  A    between atoms: N_3  and  C_4
REMARK    3  A    between atoms: C_4  and  C_5
REMARK    4  A    between atoms: C_8  and  C_9
REMARK    5  A    between atoms: C_9  and  O_10
REMARK    6  A    between atoms: O_10  and  C_11
REMARK                            x       y       z     vdW  Elec       q    Type
REMARK                         _______ _______ _______ _____ _____    ______ ____
ROOT
ATOM      1  O   UNL     1      44.959   7.349  11.507  0.00  0.00    +0.000 OA
ATOM      2  C   UNL     1      45.395   6.205  11.499  0.00  0.00    +0.000 C 
ATOM      3  N   UNL     1      46.613   5.832  12.020  0.00  0.00    +0.000 N 
ATOM      4  H   UNL     1      46.783   4.850  12.179  0.00  0.00    +0.000 HD
ENDROOT
BRANCH   2   5
ATOM      5  C   UNL     1      44.603   5.041  11.127  0.00  0.00    +0.000 A 
ATOM      6  C   UNL     1      43.567   4.557  11.904  0.00  0.00    +0.000 A 
ATOM      7  S   UNL     1      43.212   2.918  11.527  0.00  0.00    +0.000 S 
ATOM      8  C   UNL     1      44.334   2.910  10.242  0.00  0.00    +0.000 A 
ATOM      9  N   UNL     1      44.669   1.780   9.565  0.00  0.00    +0.000 NA
ATOM     10  C   UNL     1      45.501   1.973   8.592  0.00  0.00    +0.000 A 
ATOM     11  N   UNL     1      45.983   3.199   8.198  0.00  0.00    +0.000 N 
ATOM     12  C   UNL     1      45.651   4.368   8.835  0.00  0.00    +0.000 A 
ATOM     13  O   UNL     1      46.004   5.464   8.410  0.00  0.00    +0.000 OA
ATOM     14  C   UNL     1      44.841   4.171  10.016  0.00  0.00    +0.000 A 
ATOM     15  H   UNL     1      46.552   3.293   7.370  0.00  0.00    +0.000 HD
ENDBRANCH   2   5
BRANCH   3  16
ATOM     16  C   UNL     1      47.428   6.727  12.811  0.00  0.00    +0.000 C 
BRANCH  16  17
ATOM     17  C   UNL     1      47.833   6.092  14.126  0.00  0.00    +0.000 A 
ATOM     18  N   UNL     1      47.228   4.946  14.493  0.00  0.00    +0.000 NA
ATOM     19  C   UNL     1      47.582   4.428  15.686  0.00  0.00    +0.000 A 
ATOM     20  C   UNL     1      48.491   5.015  16.539  0.00  0.00    +0.000 A 
ATOM     21  C   UNL     1      49.040   6.193  16.079  0.00  0.00    +0.000 A 
ATOM     22  N   UNL     1      48.712   6.765  14.902  0.00  0.00    +0.000 NA
BRANCH  20  23
ATOM     23  C   UNL     1      48.878   4.406  17.851  0.00  0.00    +0.000 C 
BRANCH  23  24
ATOM     24  O   UNL     1      49.037   3.004  17.674  0.00  0.00    +0.000 OA
BRANCH  24  25
ATOM     25  C   UNL     1      50.368   2.647  17.696  0.00  0.00    +0.000 A 
ATOM     26  N   UNL     1      51.206   3.593  18.139  0.00  0.00    +0.000 NA
ATOM     27  C   UNL     1      52.508   3.260  18.166  0.00  0.00    +0.000 A 
ATOM     28  C   UNL     1      52.988   2.029  17.783  0.00  0.00    +0.000 A 
ATOM     29  C   UNL     1      52.040   1.129  17.362  0.00  0.00    +0.000 A 
ATOM     30  N   UNL     1      50.723   1.411  17.300  0.00  0.00    +0.000 NA
ENDBRANCH  24  25
ENDBRANCH  23  24
ENDBRANCH  20  23
ENDBRANCH  16  17
ENDBRANCH   3  16
TORSDOF 6
ENDMDL
MODEL 8
REMARK VINA RESULT:    -6.879      1.966      2.215
REMARK INTER + INTRA:         -10.287
REMARK INTER:                  -9.418
REMARK INTRA:                  -0.870
REMARK UNBOUND:                -0.996
REMARK  Name = 
REMARK  6 active torsions:
REMARK  status: ('A' for Active; 'I' for Inactive)
REMARK    1  A    between atoms: C_2  and  C_19
REMARK    2  A    between atoms: N_3  and  C_4
REMARK    3  A    between atoms: C_4  and  C_5
REMARK    4  A    between atoms: C_8  and  C_9
REMARK    5  A    between atoms: C_9  and  O_10
REMARK    6  A    between atoms: O_10  and  C_11
REMARK                            x       y       z     vdW  Elec       q    Type
REMARK                         _______ _______ _______ _____ _____    ______ ____
ROOT
ATOM      1  O   UNL     1      48.280   9.048  16.195  0.00  0.00    +0.000 OA
ATOM      2  C   UNL     1      48.536   7.867  15.998  0.00  0.00    +0.000 C 
ATOM      3  N   UNL     1      48.163   7.166  14.873  0.00  0.00    +0.000 N 
ATOM      4  H   UNL     1      48.612   6.282  14.692  0.00  0.00    +0.000 HD
ENDROOT
BRANCH   2   5
ATOM      5  C   UNL     1      49.449   7.090  16.824  0.00  0.00    +0.000 A 
ATOM      6  C   UNL     1      50.753   6.819  16.453  0.00  0.00    +0.000 A 
ATOM      7  S   UNL     1      51.380   5.463  17.304  0.00  0.00    +0.000 S 
ATOM      8  C   UNL     1      49.970   5.337  18.256  0.00  0.00    +0.000 A 
ATOM      9  N   UNL     1      49.744   4.297  19.102  0.00  0.00    +0.000 NA
ATOM     10  C   UNL     1      48.644   4.393  19.778  0.00  0.00    +0.000 A 
ATOM     11  N   UNL     1      47.779   5.460  19.727  0.00  0.00    +0.000 N 
ATOM     12  C   UNL     1      47.980   6.543  18.909  0.00  0.00    +0.000 A 
ATOM     13  O   UNL     1      47.257   7.533  18.950  0.00  0.00    +0.000 OA
ATOM     14  C   UNL     1      49.122   6.400  18.034  0.00  0.00    +0.000 A 
ATOM     15  H   UNL     1      46.987   5.519  20.352  0.00  0.00    +0.000 HD
ENDBRANCH   2   5
BRANCH   3  16
ATOM     16  C   UNL     1      47.591   7.809  13.711  0.00  0.00    +0.000 C 
BRANCH  16  17
ATOM     17  C   UNL     1      46.583   6.912  13.020  0.00  0.00    +0.000 A 
ATOM     18  N   UNL     1      45.524   7.488  12.420  0.00  0.00    +0.000 NA
ATOM     19  C   UNL     1      44.625   6.660  11.851  0.00  0.00    +0.000 A 
ATOM     20  C   UNL     1      44.723   5.286  11.875  0.00  0.00    +0.000 A 
ATOM     21  C   UNL     1      45.834   4.796  12.528  0.00  0.00    +0.000 A 
ATOM     22  N   UNL     1      46.757   5.576  13.130  0.00  0.00    +0.000 NA
BRANCH  20  23
ATOM     23  C   UNL     1      43.718   4.393  11.217  0.00  0.00    +0.000 C 
BRANCH  23  24
ATOM     24  O   UNL     1      43.697   4.679   9.824  0.00  0.00    +0.000 OA
BRANCH  24  25
ATOM     25  C   UNL     1      44.578   3.873   9.136  0.00  0.00    +0.000 A 
ATOM     26  N   UNL     1      44.552   2.578   9.477  0.00  0.00    +0.000 NA
ATOM     27  C   UNL     1      45.407   1.778   8.814  0.00  0.00    +0.000 A 
ATOM     28  C   UNL     1      46.260   2.223   7.831  0.00  0.00    +0.000 A 
ATOM     29  C   UNL     1      46.191   3.565   7.550  0.00  0.00    +0.000 A 
ATOM     30  N   UNL     1      45.365   4.418   8.190  0.00  0.00    +0.000 NA
ENDBRANCH  24  25
ENDBRANCH  23  24
ENDBRANCH  20  23
ENDBRANCH  16  17
ENDBRANCH   3  16
TORSDOF 6
ENDMDL
MODEL 9
REMARK VINA RESULT:    -6.626      3.047      7.598
REMARK INTER + INTRA:          -9.946
REMARK INTER:                  -9.053
REMARK INTRA:                  -0.893
REMARK UNBOUND:                -0.996
REMARK  Name = 
REMARK  6 active torsions:
REMARK  status: ('A' for Active; 'I' for Inactive)
REMARK    1  A    between atoms: C_2  and  C_19
REMARK    2  A    between atoms: N_3  and  C_4
REMARK    3  A    between atoms: C_4  and  C_5
REMARK    4  A    between atoms: C_8  and  C_9
REMARK    5  A    between atoms: C_9  and  O_10
REMARK    6  A    between atoms: O_10  and  C_11
REMARK                            x       y       z     vdW  Elec       q    Type
REMARK                         _______ _______ _______ _____ _____    ______ ____
ROOT
ATOM      1  O   UNL     1      44.740   7.536  12.337  0.00  0.00    +0.000 OA
ATOM      2  C   UNL     1      45.682   7.022  11.745  0.00  0.00    +0.000 C 
ATOM      3  N   UNL     1      46.990   7.433  11.858  0.00  0.00    +0.000 N 
ATOM      4  H   UNL     1      47.714   6.814  11.526  0.00  0.00    +0.000 HD
ENDROOT
BRANCH   2   5
ATOM      5  C   UNL     1      45.583   5.775  11.001  0.00  0.00    +0.000 A 
ATOM      6  C   UNL     1      45.932   5.666   9.667  0.00  0.00    +0.000 A 
ATOM      7  S   UNL     1      45.200   4.292   8.937  0.00  0.00    +0.000 S 
ATOM      8  C   UNL     1      44.547   3.777  10.426  0.00  0.00    +0.000 A 
ATOM      9  N   UNL     1      43.670   2.743  10.527  0.00  0.00    +0.000 NA
ATOM     10  C   UNL     1      43.317   2.464  11.741  0.00  0.00    +0.000 A 
ATOM     11  N   UNL     1      43.804   3.086  12.866  0.00  0.00    +0.000 N 
ATOM     12  C   UNL     1      44.710   4.115  12.814  0.00  0.00    +0.000 A 
ATOM     13  O   UNL     1      45.214   4.591  13.826  0.00  0.00    +0.000 OA
ATOM     14  C   UNL     1      45.013   4.549  11.468  0.00  0.00    +0.000 A 
ATOM     15  H   UNL     1      43.563   2.756  13.790  0.00  0.00    +0.000 HD
ENDBRANCH   2   5
BRANCH   3  16
ATOM     16  C   UNL     1      47.420   8.399  12.845  0.00  0.00    +0.000 C 
BRANCH  16  17
ATOM     17  C   UNL     1      48.049   7.722  14.047  0.00  0.00    +0.000 A 
ATOM     18  N   UNL     1      48.021   6.376  14.107  0.00  0.00    +0.000 NA
ATOM     19  C   UNL     1      48.552   5.807  15.207  0.00  0.00    +0.000 A 
ATOM     20  C   UNL     1      49.086   6.519  16.259  0.00  0.00    +0.000 A 
ATOM     21  C   UNL     1      49.051   7.889  16.108  0.00  0.00    +0.000 A 
ATOM     22  N   UNL     1      48.517   8.514  15.037  0.00  0.00    +0.000 NA
BRANCH  20  23
ATOM     23  C   UNL     1      49.686   5.857  17.460  0.00  0.00    +0.000 C 
BRANCH  23  24
ATOM     24  O   UNL     1      49.245   4.507  17.505  0.00  0.00    +0.000 OA
BRANCH  24  25
ATOM     25  C   UNL     1      50.310   3.637  17.606  0.00  0.00    +0.000 A 
ATOM     26  N   UNL     1      51.377   4.116  18.261  0.00  0.00    +0.000 NA
ATOM     27  C   UNL     1      52.424   3.279  18.367  0.00  0.00    +0.000 A 
ATOM     28  C   UNL     1      52.433   2.000  17.862  0.00  0.00    +0.000 A 
ATOM     29  C   UNL     1      51.281   1.607  17.226  0.00  0.00    +0.000 A 
ATOM     30  N   UNL     1      50.205   2.405  17.075  0.00  0.00    +0.000 NA
ENDBRANCH  24  25
ENDBRANCH  23  24
ENDBRANCH  20  23
ENDBRANCH  16  17
ENDBRANCH   3  16
TORSDOF 6
ENDMDL
