MODEL 1
REMARK VINA RESULT:    -8.468      0.000      0.000
REMARK INTER + INTRA:         -14.198
REMARK INTER:                 -12.923
REMARK INTRA:                  -1.275
REMARK UNBOUND:                -1.275
REMARK  Name = 
REMARK  10 active torsions:
REMARK  status: ('A' for Active; 'I' for Inactive)
REMARK    1  A    between atoms: C_2  and  C_23
REMARK    2  A    between atoms: N_3  and  C_4
REMARK    3  A    between atoms: C_4  and  C_5
REMARK    4  A    between atoms: C_8  and  C_9
REMARK    5  A    between atoms: C_9  and  C_10
REMARK    6  A    between atoms: C_9  and  C_12
REMARK    7  A    between atoms: C_9  and  C_14
REMARK    8  A    between atoms: C_10  and  O_11
REMARK    9  A    between atoms: C_12  and  O_13
REMARK   10  A    between atoms: C_14  and  C_15
REMARK                            x       y       z     vdW  Elec       q    Type
REMARK                         _______ _______ _______ _____ _____    ______ ____
ROOT
ATOM      1  C   UNL     1      47.502   6.612  12.856  0.00  0.00    +0.000 A 
ATOM      2  C   UNL     1      47.143   5.371  13.375  0.00  0.00    +0.000 A 
ATOM      3  C   UNL     1      46.032   4.683  12.879  0.00  0.00    +0.000 A 
ATOM      4  C   UNL     1      45.215   5.224  11.876  0.00  0.00    +0.000 A 
ATOM      5  C   UNL     1      45.642   6.439  11.301  0.00  0.00    +0.000 A 
ATOM      6  C   UNL     1      46.771   7.118  11.776  0.00  0.00    +0.000 A 
ENDROOT
BRANCH   1   7
ATOM      7  C   UNL     1      48.725   7.316  13.380  0.00  0.00    +0.000 C 
BRANCH   7  10
ATOM      8  O   UNL     1      50.527   6.633  15.515  0.00  0.00    +0.000 OA
ATOM      9  C   UNL     1      49.423   7.113  15.743  0.00  0.00    +0.000 C 
ATOM     10  N   UNL     1      48.546   7.554  14.784  0.00  0.00    +0.000 N 
ATOM     11  H   UNL     1      47.603   7.761  15.064  0.00  0.00    +0.000 HD
BRANCH   9  12
ATOM     12  C   UNL     1      48.778   7.080  17.048  0.00  0.00    +0.000 A 
ATOM     13  C   UNL     1      48.483   8.229  17.759  0.00  0.00    +0.000 A 
ATOM     14  S   UNL     1      48.302   7.901  19.436  0.00  0.00    +0.000 S 
ATOM     15  C   UNL     1      48.483   6.223  19.186  0.00  0.00    +0.000 A 
ATOM     16  N   UNL     1      48.597   5.335  20.212  0.00  0.00    +0.000 NA
ATOM     17  C   UNL     1      48.689   4.100  19.836  0.00  0.00    +0.000 A 
ATOM     18  N   UNL     1      48.627   3.664  18.535  0.00  0.00    +0.000 N 
ATOM     19  C   UNL     1      48.490   4.520  17.469  0.00  0.00    +0.000 A 
ATOM     20  O   UNL     1      48.351   4.115  16.320  0.00  0.00    +0.000 OA
ATOM     21  C   UNL     1      48.521   5.919  17.843  0.00  0.00    +0.000 A 
ATOM     22  H   UNL     1      48.617   2.680  18.316  0.00  0.00    +0.000 HD
ENDBRANCH   9  12
ENDBRANCH   7  10
ENDBRANCH   1   7
BRANCH   4  23
ATOM     23  C   UNL     1      43.907   4.533  11.396  0.00  0.00    +0.000 C 
BRANCH  23  24
ATOM     24  C   UNL     1      43.814   3.118  12.048  0.00  0.00    +0.000 C 
BRANCH  24  25
ATOM     25  O   UNL     1      42.741   2.334  11.514  0.00  0.00    +0.000 OA
ATOM     26  H   UNL     1      43.026   1.952  10.674  0.00  0.00    +0.000 HD
ENDBRANCH  24  25
ENDBRANCH  23  24
BRANCH  23  27
ATOM     27  C   UNL     1      42.694   5.365  11.924  0.00  0.00    +0.000 C 
BRANCH  27  28
ATOM     28  O   UNL     1      42.746   5.595  13.331  0.00  0.00    +0.000 OA
ATOM     29  H   UNL     1      42.298   6.443  13.500  0.00  0.00    +0.000 HD
ENDBRANCH  27  28
ENDBRANCH  23  27
BRANCH  23  30
ATOM     30  C   UNL     1      43.726   4.421   9.840  0.00  0.00    +0.000 C 
BRANCH  30  31
ATOM     31  C   UNL     1      44.795   3.688   9.061  0.00  0.00    +0.000 A 
ATOM     32  N   UNL     1      45.582   4.381   8.218  0.00  0.00    +0.000 NA
ATOM     33  C   UNL     1      46.473   3.678   7.499  0.00  0.00    +0.000 A 
ATOM     34  C   UNL     1      46.614   2.315   7.587  0.00  0.00    +0.000 A 
ATOM     35  C   UNL     1      45.790   1.697   8.491  0.00  0.00    +0.000 A 
ATOM     36  N   UNL     1      44.888   2.354   9.245  0.00  0.00    +0.000 NA
ENDBRANCH  30  31
ENDBRANCH  23  30
ENDBRANCH   4  23
TORSDOF 10
ENDMDL
MODEL 2
REMARK VINA RESULT:    -8.342      1.535      1.708
REMARK INTER + INTRA:         -14.006
REMARK INTER:                 -12.762
REMARK INTRA:                  -1.244
REMARK UNBOUND:                -1.275
REMARK  Name = 
REMARK  10 active torsions:
REMARK  status: ('A' for Active; 'I' for Inactive)
REMARK    1  A    between atoms: C_2  and  C_23
REMARK    2  A    between atoms: N_3  and  C_4
REMARK    3  A    between atoms: C_4  and  C_5
REMARK    4  A    between atoms: C_8  and  C_9
REMARK    5  A    between atoms: C_9  and  C_10
REMARK    6  A    between atoms: C_9  and  C_12
REMARK    7  A    between atoms: C_9  and  C_14
REMARK    8  A    between atoms: C_10  and  O_11
REMARK    9  A    between atoms: C_12  and  O_13
REMARK   10  A    between atoms: C_14  and  C_15
REMARK                            x       y       z     vdW  Elec       q    Type
REMARK                         _______ _______ _______ _____ _____    ______ ____
ROOT
ATOM      1  C   UNL     1      47.457   6.601  12.992  0.00  0.00    +0.000 A 
ATOM      2  C   UNL     1      47.046   5.368  13.491  0.00  0.00    +0.000 A 
ATOM      3  C   UNL     1      45.979   4.680  12.907  0.00  0.00    +0.000 A 
ATOM      4  C   UNL     1      45.255   5.214  11.831  0.00  0.00    +0.000 A 
ATOM      5  C   UNL     1      45.738   6.421  11.283  0.00  0.00    +0.000 A 
ATOM      6  C   UNL     1      46.825   7.100  11.847  0.00  0.00    +0.000 A 
ENDROOT
BRANCH   1   7
ATOM      7  C   UNL     1      48.634   7.306  13.614  0.00  0.00    +0.000 C 
BRANCH   7  10
ATOM      8  O   UNL     1      48.817   8.335  16.292  0.00  0.00    +0.000 OA
ATOM      9  C   UNL     1      49.160   7.190  16.027  0.00  0.00    +0.000 C 
ATOM     10  N   UNL     1      49.015   6.593  14.799  0.00  0.00    +0.000 N 
ATOM     11  H   UNL     1      49.489   5.720  14.638  0.00  0.00    +0.000 HD
BRANCH   9  12
ATOM     12  C   UNL     1      49.978   6.363  16.903  0.00  0.00    +0.000 A 
ATOM     13  C   UNL     1      51.198   6.786  17.397  0.00  0.00    +0.000 A 
ATOM     14  S   UNL     1      52.179   5.456  17.869  0.00  0.00    +0.000 S 
ATOM     15  C   UNL     1      50.929   4.343  17.542  0.00  0.00    +0.000 A 
ATOM     16  N   UNL     1      51.119   2.996  17.569  0.00  0.00    +0.000 NA
ATOM     17  C   UNL     1      50.050   2.305  17.332  0.00  0.00    +0.000 A 
ATOM     18  N   UNL     1      48.800   2.832  17.122  0.00  0.00    +0.000 N 
ATOM     19  C   UNL     1      48.554   4.184  17.108  0.00  0.00    +0.000 A 
ATOM     20  O   UNL     1      47.422   4.641  17.003  0.00  0.00    +0.000 OA
ATOM     21  C   UNL     1      49.751   4.990  17.234  0.00  0.00    +0.000 A 
ATOM     22  H   UNL     1      47.992   2.235  17.030  0.00  0.00    +0.000 HD
ENDBRANCH   9  12
ENDBRANCH   7  10
ENDBRANCH   1   7
BRANCH   4  23
ATOM     23  C   UNL     1      43.991   4.525  11.246  0.00  0.00    +0.000 C 
BRANCH  23  24
ATOM     24  C   UNL     1      43.900   3.072  11.809  0.00  0.00    +0.000 C 
BRANCH  24  25
ATOM     25  O   UNL     1      42.666   2.427  11.476  0.00  0.00    +0.000 OA
ATOM     26  H   UNL     1      42.263   2.094  12.288  0.00  0.00    +0.000 HD
ENDBRANCH  24  25
ENDBRANCH  23  24
BRANCH  23  27
ATOM     27  C   UNL     1      42.733   5.297  11.758  0.00  0.00    +0.000 C 
BRANCH  27  28
ATOM     28  O   UNL     1      42.544   5.183  13.168  0.00  0.00    +0.000 OA
ATOM     29  H   UNL     1      42.326   6.072  13.501  0.00  0.00    +0.000 HD
ENDBRANCH  27  28
ENDBRANCH  23  27
BRANCH  23  30
ATOM     30  C   UNL     1      43.890   4.501   9.679  0.00  0.00    +0.000 C 
BRANCH  30  31
ATOM     31  C   UNL     1      44.966   3.758   8.918  0.00  0.00    +0.000 A 
ATOM     32  N   UNL     1      45.779   4.445   8.095  0.00  0.00    +0.000 NA
ATOM     33  C   UNL     1      46.675   3.734   7.392  0.00  0.00    +0.000 A 
ATOM     34  C   UNL     1      46.798   2.369   7.476  0.00  0.00    +0.000 A 
ATOM     35  C   UNL     1      45.948   1.757   8.360  0.00  0.00    +0.000 A 
ATOM     36  N   UNL     1      45.039   2.422   9.098  0.00  0.00    +0.000 NA
ENDBRANCH  30  31
ENDBRANCH  23  30
ENDBRANCH   4  23
TORSDOF 10
ENDMDL
MODEL 3
REMARK VINA RESULT:    -7.232      2.123      2.892
REMARK INTER + INTRA:         -12.313
REMARK INTER:                 -10.949
REMARK INTRA:                  -1.363
REMARK UNBOUND:                -1.275
REMARK  Name = 
REMARK  10 active torsions:
REMARK  status: ('A' for Active; 'I' for Inactive)
REMARK    1  A    between atoms: C_2  and  C_23
REMARK    2  A    between atoms: N_3  and  C_4
REMARK    3  A    between atoms: C_4  and  C_5
REMARK    4  A    between atoms: C_8  and  C_9
REMARK    5  A    between atoms: C_9  and  C_10
REMARK    6  A    between atoms: C_9  and  C_12
REMARK    7  A    between atoms: C_9  and  C_14
REMARK    8  A    between atoms: C_10  and  O_11
REMARK    9  A    between atoms: C_12  and  O_13
REMARK   10  A    between atoms: C_14  and  C_15
REMARK                            x       y       z     vdW  Elec       q    Type
REMARK                         _______ _______ _______ _____ _____    ______ ____
ROOT
ATOM      1  C   UNL     1      46.716   8.254  12.099  0.00  0.00    +0.000 A 
ATOM      2  C   UNL     1      47.239   6.964  12.068  0.00  0.00    +0.000 A 
ATOM      3  C   UNL     1      46.414   5.865  11.813  0.00  0.00    +0.000 A 
ATOM      4  C   UNL     1      45.033   6.005  11.619  0.00  0.00    +0.000 A 
ATOM      5  C   UNL     1      44.535   7.324  11.566  0.00  0.00    +0.000 A 
ATOM      6  C   UNL     1      45.362   8.431  11.793  0.00  0.00    +0.000 A 
ENDROOT
BRANCH   1   7
ATOM      7  C   UNL     1      47.630   9.427  12.338  0.00  0.00    +0.000 C 
BRANCH   7  10
ATOM      8  O   UNL     1      49.965  10.855  13.219  0.00  0.00    +0.000 OA
ATOM      9  C   UNL     1      49.608   9.822  13.769  0.00  0.00    +0.000 C 
ATOM     10  N   UNL     1      48.456   9.133  13.474  0.00  0.00    +0.000 N 
ATOM     11  H   UNL     1      48.347   8.209  13.853  0.00  0.00    +0.000 HD
BRANCH   9  12
ATOM     12  C   UNL     1      50.455   9.040  14.659  0.00  0.00    +0.000 A 
ATOM     13  C   UNL     1      51.818   8.911  14.464  0.00  0.00    +0.000 A 
ATOM     14  S   UNL     1      52.436   7.514  15.249  0.00  0.00    +0.000 S 
ATOM     15  C   UNL     1      50.920   7.167  15.951  0.00  0.00    +0.000 A 
ATOM     16  N   UNL     1      50.671   6.013  16.628  0.00  0.00    +0.000 NA
ATOM     17  C   UNL     1      49.477   5.937  17.124  0.00  0.00    +0.000 A 
ATOM     18  N   UNL     1      48.527   6.926  17.051  0.00  0.00    +0.000 N 
ATOM     19  C   UNL     1      48.741   8.116  16.398  0.00  0.00    +0.000 A 
ATOM     20  O   UNL     1      47.918   9.024  16.411  0.00  0.00    +0.000 OA
ATOM     21  C   UNL     1      50.016   8.180  15.715  0.00  0.00    +0.000 A 
ATOM     22  H   UNL     1      47.647   6.838  17.534  0.00  0.00    +0.000 HD
ENDBRANCH   9  12
ENDBRANCH   7  10
ENDBRANCH   1   7
BRANCH   4  23
ATOM     23  C   UNL     1      44.080   4.788  11.455  0.00  0.00    +0.000 C 
BRANCH  23  24
ATOM     24  C   UNL     1      44.726   3.545  12.143  0.00  0.00    +0.000 C 
BRANCH  24  25
ATOM     25  O   UNL     1      43.801   2.465  12.311  0.00  0.00    +0.000 OA
ATOM     26  H   UNL     1      44.074   1.733  11.743  0.00  0.00    +0.000 HD
ENDBRANCH  24  25
ENDBRANCH  23  24
BRANCH  23  27
ATOM     27  C   UNL     1      42.753   5.101  12.218  0.00  0.00    +0.000 C 
BRANCH  27  28
ATOM     28  O   UNL     1      42.890   5.009  13.636  0.00  0.00    +0.000 OA
ATOM     29  H   UNL     1      43.037   4.070  13.850  0.00  0.00    +0.000 HD
ENDBRANCH  27  28
ENDBRANCH  23  27
BRANCH  23  30
ATOM     30  C   UNL     1      43.672   4.434   9.980  0.00  0.00    +0.000 C 
BRANCH  30  31
ATOM     31  C   UNL     1      44.686   3.704   9.128  0.00  0.00    +0.000 A 
ATOM     32  N   UNL     1      44.777   2.365   9.221  0.00  0.00    +0.000 NA
ATOM     33  C   UNL     1      45.735   1.768   8.494  0.00  0.00    +0.000 A 
ATOM     34  C   UNL     1      46.605   2.448   7.677  0.00  0.00    +0.000 A 
ATOM     35  C   UNL     1      46.419   3.804   7.622  0.00  0.00    +0.000 A 
ATOM     36  N   UNL     1      45.468   4.453   8.321  0.00  0.00    +0.000 NA
ENDBRANCH  30  31
ENDBRANCH  23  30
ENDBRANCH   4  23
TORSDOF 10
ENDMDL
MODEL 4
REMARK VINA RESULT:    -6.930      4.530      5.636
REMARK INTER + INTRA:         -11.851
REMARK INTER:                 -10.682
REMARK INTRA:                  -1.169
REMARK UNBOUND:                -1.275
REMARK  Name = 
REMARK  10 active torsions:
REMARK  status: ('A' for Active; 'I' for Inactive)
REMARK    1  A    between atoms: C_2  and  C_23
REMARK    2  A    between atoms: N_3  and  C_4
REMARK    3  A    between atoms: C_4  and  C_5
REMARK    4  A    between atoms: C_8  and  C_9
REMARK    5  A    between atoms: C_9  and  C_10
REMARK    6  A    between atoms: C_9  and  C_12
REMARK    7  A    between atoms: C_9  and  C_14
REMARK    8  A    between atoms: C_10  and  O_11
REMARK    9  A    between atoms: C_12  and  O_13
REMARK   10  A    between atoms: C_14  and  C_15
REMARK                            x       y       z     vdW  Elec       q    Type
REMARK                         _______ _______ _______ _____ _____    ______ ____
ROOT
ATOM      1  C   UNL     1      46.613   8.692  12.114  0.00  0.00    +0.000 A 
ATOM      2  C   UNL     1      47.292   7.477  12.158  0.00  0.00    +0.000 A 
ATOM      3  C   UNL     1      46.613   6.271  11.967  0.00  0.00    +0.000 A 
ATOM      4  C   UNL     1      45.226   6.227  11.765  0.00  0.00    +0.000 A 
ATOM      5  C   UNL     1      44.568   7.468  11.635  0.00  0.00    +0.000 A 
ATOM      6  C   UNL     1      45.249   8.680  11.799  0.00  0.00    +0.000 A 
ENDROOT
BRANCH   1   7
ATOM      7  C   UNL     1      47.372   9.981  12.285  0.00  0.00    +0.000 C 
BRANCH   7  10
ATOM      8  O   UNL     1      49.871  10.734  13.491  0.00  0.00    +0.000 OA
ATOM      9  C   UNL     1      49.825  10.278  12.356  0.00  0.00    +0.000 C 
ATOM     10  N   UNL     1      48.689   9.806  11.745  0.00  0.00    +0.000 N 
ATOM     11  H   UNL     1      48.724   9.623  10.757  0.00  0.00    +0.000 HD
BRANCH   9  12
ATOM     12  C   UNL     1      50.917  10.374  11.397  0.00  0.00    +0.000 A 
ATOM     13  C   UNL     1      50.950  11.334  10.402  0.00  0.00    +0.000 A 
ATOM     14  S   UNL     1      51.973  10.860   9.106  0.00  0.00    +0.000 S 
ATOM     15  C   UNL     1      52.468   9.454   9.934  0.00  0.00    +0.000 A 
ATOM     16  N   UNL     1      53.225   8.485   9.350  0.00  0.00    +0.000 NA
ATOM     17  C   UNL     1      53.537   7.508  10.139  0.00  0.00    +0.000 A 
ATOM     18  N   UNL     1      53.208   7.432  11.470  0.00  0.00    +0.000 N 
ATOM     19  C   UNL     1      52.466   8.396  12.109  0.00  0.00    +0.000 A 
ATOM     20  O   UNL     1      52.249   8.361  13.315  0.00  0.00    +0.000 OA
ATOM     21  C   UNL     1      51.984   9.436  11.224  0.00  0.00    +0.000 A 
ATOM     22  H   UNL     1      53.557   6.686  12.051  0.00  0.00    +0.000 HD
ENDBRANCH   9  12
ENDBRANCH   7  10
ENDBRANCH   1   7
BRANCH   4  23
ATOM     23  C   UNL     1      44.433   4.893  11.672  0.00  0.00    +0.000 C 
BRANCH  23  24
ATOM     24  C   UNL     1      45.342   3.728  12.176  0.00  0.00    +0.000 C 
BRANCH  24  25
ATOM     25  O   UNL     1      44.595   2.559  12.529  0.00  0.00    +0.000 OA
ATOM     26  H   UNL     1      43.755   2.834  12.917  0.00  0.00    +0.000 HD
ENDBRANCH  24  25
ENDBRANCH  23  24
BRANCH  23  27
ATOM     27  C   UNL     1      43.214   4.981  12.644  0.00  0.00    +0.000 C 
BRANCH  27  28
ATOM     28  O   UNL     1      41.969   5.148  11.966  0.00  0.00    +0.000 OA
ATOM     29  H   UNL     1      41.894   4.422  11.321  0.00  0.00    +0.000 HD
ENDBRANCH  27  28
ENDBRANCH  23  27
BRANCH  23  30
ATOM     30  C   UNL     1      43.848   4.544  10.257  0.00  0.00    +0.000 C 
BRANCH  30  31
ATOM     31  C   UNL     1      44.739   3.785   9.298  0.00  0.00    +0.000 A 
ATOM     32  N   UNL     1      44.781   2.442   9.367  0.00  0.00    +0.000 NA
ATOM     33  C   UNL     1      45.635   1.816   8.541  0.00  0.00    +0.000 A 
ATOM     34  C   UNL     1      46.446   2.472   7.646  0.00  0.00    +0.000 A 
ATOM     35  C   UNL     1      46.314   3.835   7.625  0.00  0.00    +0.000 A 
ATOM     36  N   UNL     1      45.467   4.513   8.423  0.00  0.00    +0.000 NA
ENDBRANCH  30  31
ENDBRANCH  23  30
ENDBRANCH   4  23
TORSDOF 10
ENDMDL
MODEL 5
REMARK VINA RESULT:    -6.895      3.116      3.433
REMARK INTER + INTRA:         -11.798
REMARK INTER:                 -10.563
REMARK INTRA:                  -1.235
REMARK UNBOUND:                -1.275
REMARK  Name = 
REMARK  10 active torsions:
REMARK  status: ('A' for Active; 'I' for Inactive)
REMARK    1  A    between atoms: C_2  and  C_23
REMARK    2  A    between atoms: N_3  and  C_4
REMARK    3  A    between atoms: C_4  and  C_5
REMARK    4  A    between atoms: C_8  and  C_9
REMARK    5  A    between atoms: C_9  and  C_10
REMARK    6  A    between atoms: C_9  and  C_12
REMARK    7  A    between atoms: C_9  and  C_14
REMARK    8  A    between atoms: C_10  and  O_11
REMARK    9  A    between atoms: C_12  and  O_13
REMARK   10  A    between atoms: C_14  and  C_15
REMARK                            x       y       z     vdW  Elec       q    Type
REMARK                         _______ _______ _______ _____ _____    ______ ____
ROOT
ATOM      1  C   UNL     1      46.347   8.709  12.122  0.00  0.00    +0.000 A 
ATOM      2  C   UNL     1      47.050   7.533  12.368  0.00  0.00    +0.000 A 
ATOM      3  C   UNL     1      46.449   6.286  12.175  0.00  0.00    +0.000 A 
ATOM      4  C   UNL     1      45.112   6.165  11.768  0.00  0.00    +0.000 A 
ATOM      5  C   UNL     1      44.442   7.361  11.439  0.00  0.00    +0.000 A 
ATOM      6  C   UNL     1      45.050   8.612  11.604  0.00  0.00    +0.000 A 
ENDROOT
BRANCH   1   7
ATOM      7  C   UNL     1      47.027  10.040  12.301  0.00  0.00    +0.000 C 
BRANCH   7  10
ATOM      8  O   UNL     1      49.517  11.291  13.010  0.00  0.00    +0.000 OA
ATOM      9  C   UNL     1      48.898  10.607  13.815  0.00  0.00    +0.000 C 
ATOM     10  N   UNL     1      47.661  10.056  13.588  0.00  0.00    +0.000 N 
ATOM     11  H   UNL     1      47.323   9.368  14.238  0.00  0.00    +0.000 HD
BRANCH   9  12
ATOM     12  C   UNL     1      49.472  10.082  15.046  0.00  0.00    +0.000 A 
ATOM     13  C   UNL     1      49.179  10.614  16.288  0.00  0.00    +0.000 A 
ATOM     14  S   UNL     1      50.397  10.233  17.438  0.00  0.00    +0.000 S 
ATOM     15  C   UNL     1      51.231   9.255  16.317  0.00  0.00    +0.000 A 
ATOM     16  N   UNL     1      52.462   8.731  16.570  0.00  0.00    +0.000 NA
ATOM     17  C   UNL     1      52.926   7.984  15.621  0.00  0.00    +0.000 A 
ATOM     18  N   UNL     1      52.256   7.669  14.465  0.00  0.00    +0.000 N 
ATOM     19  C   UNL     1      51.004   8.155  14.174  0.00  0.00    +0.000 A 
ATOM     20  O   UNL     1      50.380   7.801  13.180  0.00  0.00    +0.000 OA
ATOM     21  C   UNL     1      50.510   9.103  15.152  0.00  0.00    +0.000 A 
ATOM     22  H   UNL     1      52.638   7.010  13.804  0.00  0.00    +0.000 HD
ENDBRANCH   9  12
ENDBRANCH   7  10
ENDBRANCH   1   7
BRANCH   4  23
ATOM     23  C   UNL     1      44.388   4.793  11.664  0.00  0.00    +0.000 C 
BRANCH  23  24
ATOM     24  C   UNL     1      45.334   3.679  12.213  0.00  0.00    +0.000 C 
BRANCH  24  25
ATOM     25  O   UNL     1      44.633   2.475  12.546  0.00  0.00    +0.000 OA
ATOM     26  H   UNL     1      44.177   2.155  11.757  0.00  0.00    +0.000 HD
ENDBRANCH  24  25
ENDBRANCH  23  24
BRANCH  23  27
ATOM     27  C   UNL     1      43.134   4.833  12.595  0.00  0.00    +0.000 C 
BRANCH  27  28
ATOM     28  O   UNL     1      41.925   5.114  11.891  0.00  0.00    +0.000 OA
ATOM     29  H   UNL     1      41.190   4.782  12.438  0.00  0.00    +0.000 HD
ENDBRANCH  27  28
ENDBRANCH  23  27
BRANCH  23  30
ATOM     30  C   UNL     1      43.868   4.402  10.235  0.00  0.00    +0.000 C 
BRANCH  30  31
ATOM     31  C   UNL     1      44.845   3.735   9.293  0.00  0.00    +0.000 A 
ATOM     32  N   UNL     1      45.539   4.493   8.424  0.00  0.00    +0.000 NA
ATOM     33  C   UNL     1      46.345   3.850   7.564  0.00  0.00    +0.000 A 
ATOM     34  C   UNL     1      46.490   2.484   7.533  0.00  0.00    +0.000 A 
ATOM     35  C   UNL     1      45.767   1.796   8.471  0.00  0.00    +0.000 A 
ATOM     36  N   UNL     1      44.953   2.390   9.365  0.00  0.00    +0.000 NA
ENDBRANCH  30  31
ENDBRANCH  23  30
ENDBRANCH   4  23
TORSDOF 10
ENDMDL
MODEL 6
REMARK VINA RESULT:    -6.859      1.509      2.424
REMARK INTER + INTRA:         -11.743
REMARK INTER:                 -11.324
REMARK INTRA:                  -0.418
REMARK UNBOUND:                -1.275
REMARK  Name = 
REMARK  10 active torsions:
REMARK  status: ('A' for Active; 'I' for Inactive)
REMARK    1  A    between atoms: C_2  and  C_23
REMARK    2  A    between atoms: N_3  and  C_4
REMARK    3  A    between atoms: C_4  and  C_5
REMARK    4  A    between atoms: C_8  and  C_9
REMARK    5  A    between atoms: C_9  and  C_10
REMARK    6  A    between atoms: C_9  and  C_12
REMARK    7  A    between atoms: C_9  and  C_14
REMARK    8  A    between atoms: C_10  and  O_11
REMARK    9  A    between atoms: C_12  and  O_13
REMARK   10  A    between atoms: C_14  and  C_15
REMARK                            x       y       z     vdW  Elec       q    Type
REMARK                         _______ _______ _______ _____ _____    ______ ____
ROOT
ATOM      1  C   UNL     1      47.028   7.315  13.195  0.00  0.00    +0.000 A 
ATOM      2  C   UNL     1      45.799   7.767  12.720  0.00  0.00    +0.000 A 
ATOM      3  C   UNL     1      44.860   6.873  12.200  0.00  0.00    +0.000 A 
ATOM      4  C   UNL     1      45.126   5.500  12.095  0.00  0.00    +0.000 A 
ATOM      5  C   UNL     1      46.336   5.047  12.660  0.00  0.00    +0.000 A 
ATOM      6  C   UNL     1      47.268   5.937  13.208  0.00  0.00    +0.000 A 
ENDROOT
BRANCH   1   7
ATOM      7  C   UNL     1      48.008   8.293  13.786  0.00  0.00    +0.000 C 
BRANCH   7  10
ATOM      8  O   UNL     1      50.247   6.928  14.966  0.00  0.00    +0.000 OA
ATOM      9  C   UNL     1      49.264   7.229  15.632  0.00  0.00    +0.000 C 
ATOM     10  N   UNL     1      48.199   7.963  15.169  0.00  0.00    +0.000 N 
ATOM     11  H   UNL     1      47.369   8.000  15.735  0.00  0.00    +0.000 HD
BRANCH   9  12
ATOM     12  C   UNL     1      48.965   6.666  16.941  0.00  0.00    +0.000 A 
ATOM     13  C   UNL     1      48.554   5.356  17.110  0.00  0.00    +0.000 A 
ATOM     14  S   UNL     1      47.721   5.148  18.598  0.00  0.00    +0.000 S 
ATOM     15  C   UNL     1      48.030   6.759  19.065  0.00  0.00    +0.000 A 
ATOM     16  N   UNL     1      47.469   7.326  20.168  0.00  0.00    +0.000 NA
ATOM     17  C   UNL     1      47.847   8.544  20.388  0.00  0.00    +0.000 A 
ATOM     18  N   UNL     1      48.769   9.232  19.640  0.00  0.00    +0.000 N 
ATOM     19  C   UNL     1      49.379   8.695  18.532  0.00  0.00    +0.000 A 
ATOM     20  O   UNL     1      50.262   9.286  17.921  0.00  0.00    +0.000 OA
ATOM     21  C   UNL     1      48.880   7.382  18.177  0.00  0.00    +0.000 A 
ATOM     22  H   UNL     1      49.084  10.149  19.916  0.00  0.00    +0.000 HD
ENDBRANCH   9  12
ENDBRANCH   7  10
ENDBRANCH   1   7
BRANCH   4  23
ATOM     23  C   UNL     1      44.147   4.505  11.410  0.00  0.00    +0.000 C 
BRANCH  23  24
ATOM     24  C   UNL     1      44.585   3.047  11.754  0.00  0.00    +0.000 C 
BRANCH  24  25
ATOM     25  O   UNL     1      43.752   2.441  12.748  0.00  0.00    +0.000 OA
ATOM     26  H   UNL     1      44.286   1.822  13.262  0.00  0.00    +0.000 HD
ENDBRANCH  24  25
ENDBRANCH  23  24
BRANCH  23  27
ATOM     27  C   UNL     1      42.726   4.717  12.024  0.00  0.00    +0.000 C 
BRANCH  27  28
ATOM     28  O   UNL     1      41.961   5.704  11.333  0.00  0.00    +0.000 OA
ATOM     29  H   UNL     1      41.066   5.695  11.717  0.00  0.00    +0.000 HD
ENDBRANCH  27  28
ENDBRANCH  23  27
BRANCH  23  30
ATOM     30  C   UNL     1      43.988   4.666   9.856  0.00  0.00    +0.000 C 
BRANCH  30  31
ATOM     31  C   UNL     1      44.937   3.890   8.970  0.00  0.00    +0.000 A 
ATOM     32  N   UNL     1      44.940   2.546   9.032  0.00  0.00    +0.000 NA
ATOM     33  C   UNL     1      45.845   1.904   8.275  0.00  0.00    +0.000 A 
ATOM     34  C   UNL     1      46.745   2.543   7.458  0.00  0.00    +0.000 A 
ATOM     35  C   UNL     1      46.650   3.910   7.437  0.00  0.00    +0.000 A 
ATOM     36  N   UNL     1      45.755   4.604   8.166  0.00  0.00    +0.000 NA
ENDBRANCH  30  31
ENDBRANCH  23  30
ENDBRANCH   4  23
TORSDOF 10
ENDMDL
MODEL 7
REMARK VINA RESULT:    -6.603      3.000      4.808
REMARK INTER + INTRA:         -11.352
REMARK INTER:                 -10.608
REMARK INTRA:                  -0.744
REMARK UNBOUND:                -1.275
REMARK  Name = 
REMARK  10 active torsions:
REMARK  status: ('A' for Active; 'I' for Inactive)
REMARK    1  A    between atoms: C_2  and  C_23
REMARK    2  A    between atoms: N_3  and  C_4
REMARK    3  A    between atoms: C_4  and  C_5
REMARK    4  A    between atoms: C_8  and  C_9
REMARK    5  A    between atoms: C_9  and  C_10
REMARK    6  A    between atoms: C_9  and  C_12
REMARK    7  A    between atoms: C_9  and  C_14
REMARK    8  A    between atoms: C_10  and  O_11
REMARK    9  A    between atoms: C_12  and  O_13
REMARK   10  A    between atoms: C_14  and  C_15
REMARK                            x       y       z     vdW  Elec       q    Type
REMARK                         _______ _______ _______ _____ _____    ______ ____
ROOT
ATOM      1  C   UNL     1      47.530   6.016  14.179  0.00  0.00    +0.000 A 
ATOM      2  C   UNL     1      47.010   4.746  14.413  0.00  0.00    +0.000 A 
ATOM      3  C   UNL     1      45.981   4.237  13.617  0.00  0.00    +0.000 A 
ATOM      4  C   UNL     1      45.404   4.989  12.584  0.00  0.00    +0.000 A 
ATOM      5  C   UNL     1      46.000   6.236  12.303  0.00  0.00    +0.000 A 
ATOM      6  C   UNL     1      47.050   6.739  13.081  0.00  0.00    +0.000 A 
ENDROOT
BRANCH   1   7
ATOM      7  C   UNL     1      48.664   6.529  15.026  0.00  0.00    +0.000 C 
BRANCH   7  10
ATOM      8  O   UNL     1      49.328   9.278  15.549  0.00  0.00    +0.000 OA
ATOM      9  C   UNL     1      49.665   8.730  14.507  0.00  0.00    +0.000 C 
ATOM     10  N   UNL     1      49.473   7.400  14.222  0.00  0.00    +0.000 N 
ATOM     11  H   UNL     1      49.621   7.092  13.276  0.00  0.00    +0.000 HD
BRANCH   9  12
ATOM     12  C   UNL     1      50.114   9.445  13.320  0.00  0.00    +0.000 A 
ATOM     13  C   UNL     1      49.338  10.403  12.693  0.00  0.00    +0.000 A 
ATOM     14  S   UNL     1      49.819  10.628  11.059  0.00  0.00    +0.000 S 
ATOM     15  C   UNL     1      51.133   9.556  11.237  0.00  0.00    +0.000 A 
ATOM     16  N   UNL     1      51.893   9.143  10.185  0.00  0.00    +0.000 NA
ATOM     17  C   UNL     1      52.870   8.360  10.512  0.00  0.00    +0.000 A 
ATOM     18  N   UNL     1      53.190   7.989  11.795  0.00  0.00    +0.000 N 
ATOM     19  C   UNL     1      52.467   8.398  12.890  0.00  0.00    +0.000 A 
ATOM     20  O   UNL     1      52.810   8.132  14.036  0.00  0.00    +0.000 OA
ATOM     21  C   UNL     1      51.286   9.165  12.549  0.00  0.00    +0.000 A 
ATOM     22  H   UNL     1      54.017   7.447  11.989  0.00  0.00    +0.000 HD
ENDBRANCH   9  12
ENDBRANCH   7  10
ENDBRANCH   1   7
BRANCH   4  23
ATOM     23  C   UNL     1      44.179   4.491  11.766  0.00  0.00    +0.000 C 
BRANCH  23  24
ATOM     24  C   UNL     1      44.066   2.941  11.917  0.00  0.00    +0.000 C 
BRANCH  24  25
ATOM     25  O   UNL     1      42.770   2.445  11.564  0.00  0.00    +0.000 OA
ATOM     26  H   UNL     1      42.715   1.516  11.823  0.00  0.00    +0.000 HD
ENDBRANCH  24  25
ENDBRANCH  23  24
BRANCH  23  27
ATOM     27  C   UNL     1      42.889   5.110  12.393  0.00  0.00    +0.000 C 
BRANCH  27  28
ATOM     28  O   UNL     1      41.881   5.398  11.426  0.00  0.00    +0.000 OA
ATOM     29  H   UNL     1      42.308   5.890  10.702  0.00  0.00    +0.000 HD
ENDBRANCH  27  28
ENDBRANCH  23  27
BRANCH  23  30
ATOM     30  C   UNL     1      44.167   4.885  10.246  0.00  0.00    +0.000 C 
BRANCH  30  31
ATOM     31  C   UNL     1      44.942   4.008   9.288  0.00  0.00    +0.000 A 
ATOM     32  N   UNL     1      44.847   2.670   9.402  0.00  0.00    +0.000 NA
ATOM     33  C   UNL     1      45.604   1.934   8.572  0.00  0.00    +0.000 A 
ATOM     34  C   UNL     1      46.449   2.472   7.633  0.00  0.00    +0.000 A 
ATOM     35  C   UNL     1      46.459   3.841   7.570  0.00  0.00    +0.000 A 
ATOM     36  N   UNL     1      45.713   4.628   8.369  0.00  0.00    +0.000 NA
ENDBRANCH  30  31
ENDBRANCH  23  30
ENDBRANCH   4  23
TORSDOF 10
ENDMDL
MODEL 8
REMARK VINA RESULT:    -6.444      3.286      9.038
REMARK INTER + INTRA:         -11.109
REMARK INTER:                  -9.826
REMARK INTRA:                  -1.283
REMARK UNBOUND:                -1.275
REMARK  Name = 
REMARK  10 active torsions:
REMARK  status: ('A' for Active; 'I' for Inactive)
REMARK    1  A    between atoms: C_2  and  C_23
REMARK    2  A    between atoms: N_3  and  C_4
REMARK    3  A    between atoms: C_4  and  C_5
REMARK    4  A    between atoms: C_8  and  C_9
REMARK    5  A    between atoms: C_9  and  C_10
REMARK    6  A    between atoms: C_9  and  C_12
REMARK    7  A    between atoms: C_9  and  C_14
REMARK    8  A    between atoms: C_10  and  O_11
REMARK    9  A    between atoms: C_12  and  O_13
REMARK   10  A    between atoms: C_14  and  C_15
REMARK                            x       y       z     vdW  Elec       q    Type
REMARK                         _______ _______ _______ _____ _____    ______ ____
ROOT
ATOM      1  C   UNL     1      47.798   6.248  14.240  0.00  0.00    +0.000 A 
ATOM      2  C   UNL     1      47.194   5.063  14.654  0.00  0.00    +0.000 A 
ATOM      3  C   UNL     1      47.586   4.436  15.839  0.00  0.00    +0.000 A 
ATOM      4  C   UNL     1      48.622   4.944  16.637  0.00  0.00    +0.000 A 
ATOM      5  C   UNL     1      49.163   6.188  16.251  0.00  0.00    +0.000 A 
ATOM      6  C   UNL     1      48.753   6.834  15.078  0.00  0.00    +0.000 A 
ENDROOT
BRANCH   1   7
ATOM      7  C   UNL     1      47.333   6.925  12.979  0.00  0.00    +0.000 C 
BRANCH   7  10
ATOM      8  O   UNL     1      45.282   7.484  11.042  0.00  0.00    +0.000 OA
ATOM      9  C   UNL     1      45.554   6.335  11.366  0.00  0.00    +0.000 C 
ATOM     10  N   UNL     1      46.579   5.979  12.207  0.00  0.00    +0.000 N 
ATOM     11  H   UNL     1      46.605   5.034  12.549  0.00  0.00    +0.000 HD
BRANCH   9  12
ATOM     12  C   UNL     1      44.697   5.190  11.093  0.00  0.00    +0.000 A 
ATOM     13  C   UNL     1      43.689   4.794  11.954  0.00  0.00    +0.000 A 
ATOM     14  S   UNL     1      43.267   3.147  11.712  0.00  0.00    +0.000 S 
ATOM     15  C   UNL     1      44.326   3.010  10.382  0.00  0.00    +0.000 A 
ATOM     16  N   UNL     1      44.598   1.821   9.778  0.00  0.00    +0.000 NA
ATOM     17  C   UNL     1      45.394   1.913   8.761  0.00  0.00    +0.000 A 
ATOM     18  N   UNL     1      45.903   3.086   8.261  0.00  0.00    +0.000 N 
ATOM     19  C   UNL     1      45.639   4.312   8.822  0.00  0.00    +0.000 A 
ATOM     20  O   UNL     1      46.029   5.359   8.318  0.00  0.00    +0.000 OA
ATOM     21  C   UNL     1      44.862   4.234  10.042  0.00  0.00    +0.000 A 
ATOM     22  H   UNL     1      46.448   3.097   7.412  0.00  0.00    +0.000 HD
ENDBRANCH   9  12
ENDBRANCH   7  10
ENDBRANCH   1   7
BRANCH   4  23
ATOM     23  C   UNL     1      49.156   4.199  17.892  0.00  0.00    +0.000 C 
BRANCH  23  24
ATOM     24  C   UNL     1      49.365   5.234  19.043  0.00  0.00    +0.000 C 
BRANCH  24  25
ATOM     25  O   UNL     1      48.140   5.599  19.687  0.00  0.00    +0.000 OA
ATOM     26  H   UNL     1      48.333   6.254  20.370  0.00  0.00    +0.000 HD
ENDBRANCH  24  25
ENDBRANCH  23  24
BRANCH  23  27
ATOM     27  C   UNL     1      48.058   3.196  18.369  0.00  0.00    +0.000 C 
BRANCH  27  28
ATOM     28  O   UNL     1      48.217   2.799  19.731  0.00  0.00    +0.000 OA
ATOM     29  H   UNL     1      49.172   2.699  19.891  0.00  0.00    +0.000 HD
ENDBRANCH  27  28
ENDBRANCH  23  27
BRANCH  23  30
ATOM     30  C   UNL     1      50.465   3.358  17.682  0.00  0.00    +0.000 C 
BRANCH  30  31
ATOM     31  C   UNL     1      51.784   4.018  18.015  0.00  0.00    +0.000 A 
ATOM     32  N   UNL     1      52.250   4.993  17.213  0.00  0.00    +0.000 NA
ATOM     33  C   UNL     1      53.455   5.504  17.512  0.00  0.00    +0.000 A 
ATOM     34  C   UNL     1      54.215   5.087  18.578  0.00  0.00    +0.000 A 
ATOM     35  C   UNL     1      53.649   4.111  19.355  0.00  0.00    +0.000 A 
ATOM     36  N   UNL     1      52.440   3.572  19.108  0.00  0.00    +0.000 NA
ENDBRANCH  30  31
ENDBRANCH  23  30
ENDBRANCH   4  23
TORSDOF 10
ENDMDL
MODEL 9
REMARK VINA RESULT:    -6.344      2.913      8.418
REMARK INTER + INTRA:         -10.957
REMARK INTER:                  -9.888
REMARK INTRA:                  -1.069
REMARK UNBOUND:                -1.275
REMARK  Name = 
REMARK  10 active torsions:
REMARK  status: ('A' for Active; 'I' for Inactive)
REMARK    1  A    between atoms: C_2  and  C_23
REMARK    2  A    between atoms: N_3  and  C_4
REMARK    3  A    between atoms: C_4  and  C_5
REMARK    4  A    between atoms: C_8  and  C_9
REMARK    5  A    between atoms: C_9  and  C_10
REMARK    6  A    between atoms: C_9  and  C_12
REMARK    7  A    between atoms: C_9  and  C_14
REMARK    8  A    between atoms: C_10  and  O_11
REMARK    9  A    between atoms: C_12  and  O_13
REMARK   10  A    between atoms: C_14  and  C_15
REMARK                            x       y       z     vdW  Elec       q    Type
REMARK                         _______ _______ _______ _____ _____    ______ ____
ROOT
ATOM      1  C   UNL     1      48.360   6.605  13.782  0.00  0.00    +0.000 A 
ATOM      2  C   UNL     1      49.209   7.359  14.589  0.00  0.00    +0.000 A 
ATOM      3  C   UNL     1      49.322   7.089  15.955  0.00  0.00    +0.000 A 
ATOM      4  C   UNL     1      48.566   6.084  16.576  0.00  0.00    +0.000 A 
ATOM      5  C   UNL     1      47.780   5.274  15.731  0.00  0.00    +0.000 A 
ATOM      6  C   UNL     1      47.684   5.523  14.356  0.00  0.00    +0.000 A 
ENDROOT
BRANCH   1   7
ATOM      7  C   UNL     1      48.283   6.890  12.306  0.00  0.00    +0.000 C 
BRANCH   7  10
ATOM      8  O   UNL     1      45.773   8.161  11.710  0.00  0.00    +0.000 OA
ATOM      9  C   UNL     1      45.909   6.947  11.615  0.00  0.00    +0.000 C 
ATOM     10  N   UNL     1      47.094   6.276  11.787  0.00  0.00    +0.000 N 
ATOM     11  H   UNL     1      47.063   5.274  11.865  0.00  0.00    +0.000 HD
BRANCH   9  12
ATOM     12  C   UNL     1      44.799   6.009  11.531  0.00  0.00    +0.000 A 
ATOM     13  C   UNL     1      43.790   5.964  12.476  0.00  0.00    +0.000 A 
ATOM     14  S   UNL     1      42.991   4.444  12.471  0.00  0.00    +0.000 S 
ATOM     15  C   UNL     1      43.896   3.908  11.128  0.00  0.00    +0.000 A 
ATOM     16  N   UNL     1      43.850   2.625  10.675  0.00  0.00    +0.000 NA
ATOM     17  C   UNL     1      44.573   2.407   9.624  0.00  0.00    +0.000 A 
ATOM     18  N   UNL     1      45.298   3.361   8.953  0.00  0.00    +0.000 N 
ATOM     19  C   UNL     1      45.357   4.673   9.358  0.00  0.00    +0.000 A 
ATOM     20  O   UNL     1      45.937   5.533   8.705  0.00  0.00    +0.000 OA
ATOM     21  C   UNL     1      44.670   4.923  10.608  0.00  0.00    +0.000 A 
ATOM     22  H   UNL     1      45.770   3.144   8.089  0.00  0.00    +0.000 HD
ENDBRANCH   9  12
ENDBRANCH   7  10
ENDBRANCH   1   7
BRANCH   4  23
ATOM     23  C   UNL     1      48.586   5.847  18.112  0.00  0.00    +0.000 C 
BRANCH  23  24
ATOM     24  C   UNL     1      49.771   6.651  18.733  0.00  0.00    +0.000 C 
BRANCH  24  25
ATOM     25  O   UNL     1      49.848   6.512  20.156  0.00  0.00    +0.000 OA
ATOM     26  H   UNL     1      49.064   6.916  20.548  0.00  0.00    +0.000 HD
ENDBRANCH  24  25
ENDBRANCH  23  24
BRANCH  23  27
ATOM     27  C   UNL     1      47.268   6.432  18.713  0.00  0.00    +0.000 C 
BRANCH  27  28
ATOM     28  O   UNL     1      46.242   5.452  18.868  0.00  0.00    +0.000 OA
ATOM     29  H   UNL     1      46.656   4.661  19.258  0.00  0.00    +0.000 HD
ENDBRANCH  27  28
ENDBRANCH  23  27
BRANCH  23  30
ATOM     30  C   UNL     1      48.656   4.347  18.571  0.00  0.00    +0.000 C 
BRANCH  30  31
ATOM     31  C   UNL     1      49.911   3.570  18.238  0.00  0.00    +0.000 A 
ATOM     32  N   UNL     1      51.098   4.023  18.681  0.00  0.00    +0.000 NA
ATOM     33  C   UNL     1      52.190   3.337  18.306  0.00  0.00    +0.000 A 
ATOM     34  C   UNL     1      52.149   2.217  17.511  0.00  0.00    +0.000 A 
ATOM     35  C   UNL     1      50.895   1.813  17.132  0.00  0.00    +0.000 A 
ATOM     36  N   UNL     1      49.767   2.456  17.488  0.00  0.00    +0.000 NA
ENDBRANCH  30  31
ENDBRANCH  23  30
ENDBRANCH   4  23
TORSDOF 10
ENDMDL
