MODEL 1
REMARK VINA RESULT:    -7.071      0.000      0.000
REMARK INTER + INTRA:          -9.339
REMARK INTER:                  -8.724
REMARK INTRA:                  -0.615
REMARK UNBOUND:                -0.615
REMARK  Name = 
REMARK  6 active torsions:
REMARK  status: ('A' for Active; 'I' for Inactive)
REMARK    1  A    between atoms: C_1  and  C_2
REMARK    2  A    between atoms: C_2  and  C_3
REMARK    3  A    between atoms: C_2  and  C_4
REMARK    4  A    between atoms: C_2  and  C_18
REMARK    5  A    between atoms: C_4  and  N_5
REMARK    6  A    between atoms: C_8  and  N_9
REMARK                            x       y       z     vdW  Elec       q    Type
REMARK                         _______ _______ _______ _____ _____    ______ ____
ROOT
ATOM      1  N   UNL     1      46.695   5.116  14.284  0.00  0.00    +0.000 N 
ATOM      2  C   UNL     1      47.250   4.360  15.337  0.00  0.00    +0.000 A 
ATOM      3  C   UNL     1      47.424   4.980  16.573  0.00  0.00    +0.000 A 
ATOM      4  C   UNL     1      47.972   4.292  17.662  0.00  0.00    +0.000 A 
ATOM      5  C   UNL     1      48.409   2.993  17.417  0.00  0.00    +0.000 A 
ATOM      6  C   UNL     1      48.247   2.451  16.153  0.00  0.00    +0.000 A 
ATOM      7  N   UNL     1      47.670   3.100  15.122  0.00  0.00    +0.000 NA
ATOM      8  H   UNL     1      45.992   5.751  14.657  0.00  0.00    +0.000 HD
ENDROOT
BRANCH   4   9
ATOM      9  N   UNL     1      48.076   4.880  18.903  0.00  0.00    +0.000 N 
ATOM     10  C   UNL     1      47.372   6.124  19.253  0.00  0.00    +0.000 C 
ATOM     11  C   UNL     1      48.375   7.119  19.850  0.00  0.00    +0.000 C 
ATOM     12  O   UNL     1      49.056   6.553  20.985  0.00  0.00    +0.000 OA
ATOM     13  C   UNL     1      49.769   5.363  20.600  0.00  0.00    +0.000 C 
ATOM     14  C   UNL     1      48.831   4.290  20.016  0.00  0.00    +0.000 C 
ENDBRANCH   4   9
BRANCH   1  15
ATOM     15  C   UNL     1      46.112   4.275  13.232  0.00  0.00    +0.000 C 
BRANCH  15  17
ATOM     16  C   UNL     1      43.869   5.371  12.932  0.00  0.00    +0.000 C 
ATOM     17  C   UNL     1      45.230   5.102  12.245  0.00  0.00    +0.000 C 
ATOM     18  C   UNL     1      45.913   6.480  12.056  0.00  0.00    +0.000 C 
BRANCH  17  19
ATOM     19  C   UNL     1      45.094   4.424  10.864  0.00  0.00    +0.000 A 
ATOM     20  C   UNL     1      45.455   5.071   9.670  0.00  0.00    +0.000 A 
ATOM     21  C   UNL     1      45.354   4.433   8.431  0.00  0.00    +0.000 A 
ATOM     22  C   UNL     1      44.884   3.127   8.355  0.00  0.00    +0.000 A 
ATOM     23  C   UNL     1      44.508   2.464   9.518  0.00  0.00    +0.000 A 
ATOM     24  C   UNL     1      44.606   3.105  10.758  0.00  0.00    +0.000 A 
ENDBRANCH  17  19
ENDBRANCH  15  17
ENDBRANCH   1  15
TORSDOF 4
ENDMDL
MODEL 2
REMARK VINA RESULT:    -7.016      4.443      8.702
REMARK INTER + INTRA:          -9.271
REMARK INTER:                  -8.374
REMARK INTRA:                  -0.897
REMARK UNBOUND:                -0.615
REMARK  Name = 
REMARK  6 active torsions:
REMARK  status: ('A' for Active; 'I' for Inactive)
REMARK    1  A    between atoms: C_1  and  C_2
REMARK    2  A    between atoms: C_2  and  C_3
REMARK    3  A    between atoms: C_2  and  C_4
REMARK    4  A    between atoms: C_2  and  C_18
REMARK    5  A    between atoms: C_4  and  N_5
REMARK    6  A    between atoms: C_8  and  N_9
REMARK                            x       y       z     vdW  Elec       q    Type
REMARK                         _______ _______ _______ _____ _____    ______ ____
ROOT
ATOM      1  N   UNL     1      45.571   6.653  10.752  0.00  0.00    +0.000 N 
ATOM      2  C   UNL     1      45.137   5.323  10.568  0.00  0.00    +0.000 A 
ATOM      3  C   UNL     1      45.578   4.637   9.438  0.00  0.00    +0.000 A 
ATOM      4  C   UNL     1      45.185   3.316   9.189  0.00  0.00    +0.000 A 
ATOM      5  C   UNL     1      44.270   2.765  10.082  0.00  0.00    +0.000 A 
ATOM      6  C   UNL     1      43.837   3.518  11.161  0.00  0.00    +0.000 A 
ATOM      7  N   UNL     1      44.259   4.770  11.424  0.00  0.00    +0.000 NA
ATOM      8  H   UNL     1      46.529   6.745  10.421  0.00  0.00    +0.000 HD
ENDROOT
BRANCH   4   9
ATOM      9  N   UNL     1      45.678   2.612   8.114  0.00  0.00    +0.000 N 
ATOM     10  C   UNL     1      45.734   1.142   8.087  0.00  0.00    +0.000 C 
ATOM     11  C   UNL     1      47.149   0.699   7.695  0.00  0.00    +0.000 C 
ATOM     12  O   UNL     1      47.543   1.273   6.435  0.00  0.00    +0.000 OA
ATOM     13  C   UNL     1      47.519   2.710   6.508  0.00  0.00    +0.000 C 
ATOM     14  C   UNL     1      46.121   3.247   6.866  0.00  0.00    +0.000 C 
ENDBRANCH   4   9
BRANCH   1  15
ATOM     15  C   UNL     1      45.472   7.090  12.149  0.00  0.00    +0.000 C 
BRANCH  15  17
ATOM     16  C   UNL     1      47.912   7.392  11.621  0.00  0.00    +0.000 C 
ATOM     17  C   UNL     1      46.874   7.383  12.770  0.00  0.00    +0.000 C 
ATOM     18  C   UNL     1      46.834   8.821  13.345  0.00  0.00    +0.000 C 
BRANCH  17  19
ATOM     19  C   UNL     1      47.232   6.404  13.909  0.00  0.00    +0.000 A 
ATOM     20  C   UNL     1      46.672   5.117  13.999  0.00  0.00    +0.000 A 
ATOM     21  C   UNL     1      47.030   4.232  15.020  0.00  0.00    +0.000 A 
ATOM     22  C   UNL     1      47.959   4.615  15.981  0.00  0.00    +0.000 A 
ATOM     23  C   UNL     1      48.523   5.885  15.925  0.00  0.00    +0.000 A 
ATOM     24  C   UNL     1      48.161   6.771  14.904  0.00  0.00    +0.000 A 
ENDBRANCH  17  19
ENDBRANCH  15  17
ENDBRANCH   1  15
TORSDOF 4
ENDMDL
MODEL 3
REMARK VINA RESULT:    -7.002      3.352      8.318
REMARK INTER + INTRA:          -9.254
REMARK INTER:                  -8.610
REMARK INTRA:                  -0.644
REMARK UNBOUND:                -0.615
REMARK  Name = 
REMARK  6 active torsions:
REMARK  status: ('A' for Active; 'I' for Inactive)
REMARK    1  A    between atoms: C_1  and  C_2
REMARK    2  A    between atoms: C_2  and  C_3
REMARK    3  A    between atoms: C_2  and  C_4
REMARK    4  A    between atoms: C_2  and  C_18
REMARK    5  A    between atoms: C_4  and  N_5
REMARK    6  A    between atoms: C_8  and  N_9
REMARK                            x       y       z     vdW  Elec       q    Type
REMARK                         _______ _______ _______ _____ _____    ______ ____
ROOT
ATOM      1  N   UNL     1      47.522   4.664  15.550  0.00  0.00    +0.000 N 
ATOM      2  C   UNL     1      47.567   5.456  14.384  0.00  0.00    +0.000 A 
ATOM      3  C   UNL     1      46.534   5.323  13.457  0.00  0.00    +0.000 A 
ATOM      4  C   UNL     1      46.515   6.074  12.275  0.00  0.00    +0.000 A 
ATOM      5  C   UNL     1      47.620   6.889  12.043  0.00  0.00    +0.000 A 
ATOM      6  C   UNL     1      48.634   6.942  12.985  0.00  0.00    +0.000 A 
ATOM      7  N   UNL     1      48.622   6.256  14.145  0.00  0.00    +0.000 NA
ATOM      8  H   UNL     1      46.556   4.560  15.851  0.00  0.00    +0.000 HD
ENDROOT
BRANCH   4   9
ATOM      9  N   UNL     1      45.459   5.999  11.395  0.00  0.00    +0.000 N 
ATOM     10  C   UNL     1      44.182   6.690  11.627  0.00  0.00    +0.000 C 
ATOM     11  C   UNL     1      43.031   5.689  11.469  0.00  0.00    +0.000 C 
ATOM     12  O   UNL     1      43.068   5.055  10.177  0.00  0.00    +0.000 OA
ATOM     13  C   UNL     1      44.311   4.352   9.999  0.00  0.00    +0.000 C 
ATOM     14  C   UNL     1      45.527   5.291  10.110  0.00  0.00    +0.000 C 
ENDBRANCH   4   9
BRANCH   1  15
ATOM     15  C   UNL     1      48.336   5.218  16.639  0.00  0.00    +0.000 C 
BRANCH  15  17
ATOM     16  C   UNL     1      48.231   4.910  19.132  0.00  0.00    +0.000 C 
ATOM     17  C   UNL     1      48.539   4.190  17.796  0.00  0.00    +0.000 C 
ATOM     18  C   UNL     1      47.464   3.086  17.629  0.00  0.00    +0.000 C 
BRANCH  17  19
ATOM     19  C   UNL     1      49.935   3.531  17.764  0.00  0.00    +0.000 A 
ATOM     20  C   UNL     1      51.095   4.206  18.182  0.00  0.00    +0.000 A 
ATOM     21  C   UNL     1      52.347   3.584  18.176  0.00  0.00    +0.000 A 
ATOM     22  C   UNL     1      52.470   2.268  17.745  0.00  0.00    +0.000 A 
ATOM     23  C   UNL     1      51.342   1.577  17.316  0.00  0.00    +0.000 A 
ATOM     24  C   UNL     1      50.089   2.202  17.319  0.00  0.00    +0.000 A 
ENDBRANCH  17  19
ENDBRANCH  15  17
ENDBRANCH   1  15
TORSDOF 4
ENDMDL
MODEL 4
REMARK VINA RESULT:    -6.535      3.600      8.395
REMARK INTER + INTRA:          -8.678
REMARK INTER:                  -7.930
REMARK INTRA:                  -0.748
REMARK UNBOUND:                -0.615
REMARK  Name = 
REMARK  6 active torsions:
REMARK  status: ('A' for Active; 'I' for Inactive)
REMARK    1  A    between atoms: C_1  and  C_2
REMARK    2  A    between atoms: C_2  and  C_3
REMARK    3  A    between atoms: C_2  and  C_4
REMARK    4  A    between atoms: C_2  and  C_18
REMARK    5  A    between atoms: C_4  and  N_5
REMARK    6  A    between atoms: C_8  and  N_9
REMARK                            x       y       z     vdW  Elec       q    Type
REMARK                         _______ _______ _______ _____ _____    ______ ____
ROOT
ATOM      1  N   UNL     1      47.621   4.379  16.122  0.00  0.00    +0.000 N 
ATOM      2  C   UNL     1      47.414   5.032  14.889  0.00  0.00    +0.000 A 
ATOM      3  C   UNL     1      46.368   4.594  14.078  0.00  0.00    +0.000 A 
ATOM      4  C   UNL     1      46.106   5.193  12.840  0.00  0.00    +0.000 A 
ATOM      5  C   UNL     1      46.995   6.184  12.433  0.00  0.00    +0.000 A 
ATOM      6  C   UNL     1      48.040   6.543  13.267  0.00  0.00    +0.000 A 
ATOM      7  N   UNL     1      48.257   5.999  14.481  0.00  0.00    +0.000 NA
ATOM      8  H   UNL     1      46.723   4.115  16.520  0.00  0.00    +0.000 HD
ENDROOT
BRANCH   4   9
ATOM      9  N   UNL     1      45.029   4.810  12.072  0.00  0.00    +0.000 N 
ATOM     10  C   UNL     1      43.797   4.257  12.655  0.00  0.00    +0.000 C 
ATOM     11  C   UNL     1      43.445   2.948  11.938  0.00  0.00    +0.000 C 
ATOM     12  O   UNL     1      43.322   3.149  10.518  0.00  0.00    +0.000 OA
ATOM     13  C   UNL     1      44.557   3.649   9.973  0.00  0.00    +0.000 C 
ATOM     14  C   UNL     1      44.972   4.986  10.615  0.00  0.00    +0.000 C 
ENDBRANCH   4   9
BRANCH   1  15
ATOM     15  C   UNL     1      48.377   5.200  17.075  0.00  0.00    +0.000 C 
BRANCH  15  17
ATOM     16  C   UNL     1      49.114   4.417  19.348  0.00  0.00    +0.000 C 
ATOM     17  C   UNL     1      49.454   4.367  17.838  0.00  0.00    +0.000 C 
ATOM     18  C   UNL     1      49.295   2.890  17.395  0.00  0.00    +0.000 C 
BRANCH  17  19
ATOM     19  C   UNL     1      50.893   4.827  17.519  0.00  0.00    +0.000 A 
ATOM     20  C   UNL     1      51.165   6.013  16.815  0.00  0.00    +0.000 A 
ATOM     21  C   UNL     1      52.474   6.431  16.562  0.00  0.00    +0.000 A 
ATOM     22  C   UNL     1      53.548   5.667  17.004  0.00  0.00    +0.000 A 
ATOM     23  C   UNL     1      53.311   4.483  17.694  0.00  0.00    +0.000 A 
ATOM     24  C   UNL     1      52.000   4.064  17.944  0.00  0.00    +0.000 A 
ENDBRANCH  17  19
ENDBRANCH  15  17
ENDBRANCH   1  15
TORSDOF 4
ENDMDL
MODEL 5
REMARK VINA RESULT:    -6.512      2.721      3.736
REMARK INTER + INTRA:          -8.650
REMARK INTER:                  -7.952
REMARK INTRA:                  -0.697
REMARK UNBOUND:                -0.615
REMARK  Name = 
REMARK  6 active torsions:
REMARK  status: ('A' for Active; 'I' for Inactive)
REMARK    1  A    between atoms: C_1  and  C_2
REMARK    2  A    between atoms: C_2  and  C_3
REMARK    3  A    between atoms: C_2  and  C_4
REMARK    4  A    between atoms: C_2  and  C_18
REMARK    5  A    between atoms: C_4  and  N_5
REMARK    6  A    between atoms: C_8  and  N_9
REMARK                            x       y       z     vdW  Elec       q    Type
REMARK                         _______ _______ _______ _____ _____    ______ ____
ROOT
ATOM      1  N   UNL     1      45.775   6.898  12.757  0.00  0.00    +0.000 N 
ATOM      2  C   UNL     1      47.163   7.144  12.834  0.00  0.00    +0.000 A 
ATOM      3  C   UNL     1      47.784   7.034  14.077  0.00  0.00    +0.000 A 
ATOM      4  C   UNL     1      49.156   7.268  14.229  0.00  0.00    +0.000 A 
ATOM      5  C   UNL     1      49.839   7.696  13.094  0.00  0.00    +0.000 A 
ATOM      6  C   UNL     1      49.152   7.828  11.898  0.00  0.00    +0.000 A 
ATOM      7  N   UNL     1      47.842   7.551  11.746  0.00  0.00    +0.000 NA
ATOM      8  H   UNL     1      45.529   6.153  13.404  0.00  0.00    +0.000 HD
ENDROOT
BRANCH   4   9
ATOM      9  N   UNL     1      49.784   7.088  15.440  0.00  0.00    +0.000 N 
ATOM     10  C   UNL     1      51.182   7.482  15.674  0.00  0.00    +0.000 C 
ATOM     11  C   UNL     1      51.944   6.298  16.283  0.00  0.00    +0.000 C 
ATOM     12  O   UNL     1      51.309   5.837  17.491  0.00  0.00    +0.000 OA
ATOM     13  C   UNL     1      49.959   5.419  17.219  0.00  0.00    +0.000 C 
ATOM     14  C   UNL     1      49.107   6.561  16.632  0.00  0.00    +0.000 C 
ENDBRANCH   4   9
BRANCH   1  15
ATOM     15  C   UNL     1      45.338   6.557  11.399  0.00  0.00    +0.000 C 
BRANCH  15  17
ATOM     16  C   UNL     1      44.688   4.529  12.737  0.00  0.00    +0.000 C 
ATOM     17  C   UNL     1      44.518   5.230  11.366  0.00  0.00    +0.000 C 
ATOM     18  C   UNL     1      43.021   5.613  11.245  0.00  0.00    +0.000 C 
BRANCH  17  19
ATOM     19  C   UNL     1      44.896   4.330  10.169  0.00  0.00    +0.000 A 
ATOM     20  C   UNL     1      45.607   4.816   9.058  0.00  0.00    +0.000 A 
ATOM     21  C   UNL     1      45.968   3.981   7.997  0.00  0.00    +0.000 A 
ATOM     22  C   UNL     1      45.622   2.635   8.019  0.00  0.00    +0.000 A 
ATOM     23  C   UNL     1      44.909   2.127   9.100  0.00  0.00    +0.000 A 
ATOM     24  C   UNL     1      44.545   2.964  10.160  0.00  0.00    +0.000 A 
ENDBRANCH  17  19
ENDBRANCH  15  17
ENDBRANCH   1  15
TORSDOF 4
ENDMDL
MODEL 6
REMARK VINA RESULT:    -6.199      3.295      7.814
REMARK INTER + INTRA:          -8.263
REMARK INTER:                  -7.532
REMARK INTRA:                  -0.731
REMARK UNBOUND:                -0.615
REMARK  Name = 
REMARK  6 active torsions:
REMARK  status: ('A' for Active; 'I' for Inactive)
REMARK    1  A    between atoms: C_1  and  C_2
REMARK    2  A    between atoms: C_2  and  C_3
REMARK    3  A    between atoms: C_2  and  C_4
REMARK    4  A    between atoms: C_2  and  C_18
REMARK    5  A    between atoms: C_4  and  N_5
REMARK    6  A    between atoms: C_8  and  N_9
REMARK                            x       y       z     vdW  Elec       q    Type
REMARK                         _______ _______ _______ _____ _____    ______ ____
ROOT
ATOM      1  N   UNL     1      49.002   6.521  14.857  0.00  0.00    +0.000 N 
ATOM      2  C   UNL     1      47.878   6.820  14.057  0.00  0.00    +0.000 A 
ATOM      3  C   UNL     1      47.265   5.777  13.366  0.00  0.00    +0.000 A 
ATOM      4  C   UNL     1      46.148   6.000  12.551  0.00  0.00    +0.000 A 
ATOM      5  C   UNL     1      45.745   7.325  12.405  0.00  0.00    +0.000 A 
ATOM      6  C   UNL     1      46.426   8.320  13.086  0.00  0.00    +0.000 A 
ATOM      7  N   UNL     1      47.468   8.093  13.910  0.00  0.00    +0.000 NA
ATOM      8  H   UNL     1      48.877   5.607  15.286  0.00  0.00    +0.000 HD
ENDROOT
BRANCH   4   9
ATOM      9  N   UNL     1      45.497   4.961  11.926  0.00  0.00    +0.000 N 
ATOM     10  C   UNL     1      45.085   5.016  10.515  0.00  0.00    +0.000 C 
ATOM     11  C   UNL     1      43.604   4.634  10.408  0.00  0.00    +0.000 C 
ATOM     12  O   UNL     1      43.357   3.339  10.986  0.00  0.00    +0.000 OA
ATOM     13  C   UNL     1      43.730   3.331  12.376  0.00  0.00    +0.000 C 
ATOM     14  C   UNL     1      45.218   3.674  12.577  0.00  0.00    +0.000 C 
ENDBRANCH   4   9
BRANCH   1  15
ATOM     15  C   UNL     1      49.247   7.537  15.886  0.00  0.00    +0.000 C 
BRANCH  15  17
ATOM     16  C   UNL     1      50.649   7.209  17.948  0.00  0.00    +0.000 C 
ATOM     17  C   UNL     1      49.262   6.923  17.321  0.00  0.00    +0.000 C 
ATOM     18  C   UNL     1      48.223   7.699  18.168  0.00  0.00    +0.000 C 
BRANCH  17  19
ATOM     19  C   UNL     1      48.886   5.425  17.327  0.00  0.00    +0.000 A 
ATOM     20  C   UNL     1      47.551   4.985  17.304  0.00  0.00    +0.000 A 
ATOM     21  C   UNL     1      47.228   3.625  17.278  0.00  0.00    +0.000 A 
ATOM     22  C   UNL     1      48.237   2.669  17.280  0.00  0.00    +0.000 A 
ATOM     23  C   UNL     1      49.567   3.073  17.313  0.00  0.00    +0.000 A 
ATOM     24  C   UNL     1      49.889   4.434  17.341  0.00  0.00    +0.000 A 
ENDBRANCH  17  19
ENDBRANCH  15  17
ENDBRANCH   1  15
TORSDOF 4
ENDMDL
MODEL 7
REMARK VINA RESULT:    -6.063      3.094      8.720
REMARK INTER + INTRA:          -8.095
REMARK INTER:                  -7.466
REMARK INTRA:                  -0.629
REMARK UNBOUND:                -0.615
REMARK  Name = 
REMARK  6 active torsions:
REMARK  status: ('A' for Active; 'I' for Inactive)
REMARK    1  A    between atoms: C_1  and  C_2
REMARK    2  A    between atoms: C_2  and  C_3
REMARK    3  A    between atoms: C_2  and  C_4
REMARK    4  A    between atoms: C_2  and  C_18
REMARK    5  A    between atoms: C_4  and  N_5
REMARK    6  A    between atoms: C_8  and  N_9
REMARK                            x       y       z     vdW  Elec       q    Type
REMARK                         _______ _______ _______ _____ _____    ______ ____
ROOT
ATOM      1  N   UNL     1      47.990   5.570  15.497  0.00  0.00    +0.000 N 
ATOM      2  C   UNL     1      47.582   5.922  14.193  0.00  0.00    +0.000 A 
ATOM      3  C   UNL     1      46.525   5.217  13.620  0.00  0.00    +0.000 A 
ATOM      4  C   UNL     1      46.070   5.509  12.329  0.00  0.00    +0.000 A 
ATOM      5  C   UNL     1      46.783   6.477  11.626  0.00  0.00    +0.000 A 
ATOM      6  C   UNL     1      47.853   7.109  12.238  0.00  0.00    +0.000 A 
ATOM      7  N   UNL     1      48.254   6.860  13.501  0.00  0.00    +0.000 NA
ATOM      8  H   UNL     1      47.175   5.306  16.046  0.00  0.00    +0.000 HD
ENDROOT
BRANCH   4   9
ATOM      9  N   UNL     1      44.979   4.865  11.790  0.00  0.00    +0.000 N 
ATOM     10  C   UNL     1      43.823   4.452  12.599  0.00  0.00    +0.000 C 
ATOM     11  C   UNL     1      43.520   2.973  12.327  0.00  0.00    +0.000 C 
ATOM     12  O   UNL     1      43.302   2.737  10.923  0.00  0.00    +0.000 OA
ATOM     13  C   UNL     1      44.466   3.111  10.165  0.00  0.00    +0.000 C 
ATOM     14  C   UNL     1      44.827   4.597  10.354  0.00  0.00    +0.000 C 
ENDBRANCH   4   9
BRANCH   1  15
ATOM     15  C   UNL     1      48.727   6.647  16.167  0.00  0.00    +0.000 C 
BRANCH  15  17
ATOM     16  C   UNL     1      49.663   4.616  17.318  0.00  0.00    +0.000 C 
ATOM     17  C   UNL     1      49.453   6.144  17.454  0.00  0.00    +0.000 C 
ATOM     18  C   UNL     1      50.863   6.787  17.472  0.00  0.00    +0.000 C 
BRANCH  17  19
ATOM     19  C   UNL     1      48.710   6.546  18.747  0.00  0.00    +0.000 A 
ATOM     20  C   UNL     1      48.164   5.596  19.627  0.00  0.00    +0.000 A 
ATOM     21  C   UNL     1      47.521   5.975  20.809  0.00  0.00    +0.000 A 
ATOM     22  C   UNL     1      47.406   7.320  21.139  0.00  0.00    +0.000 A 
ATOM     23  C   UNL     1      47.927   8.285  20.283  0.00  0.00    +0.000 A 
ATOM     24  C   UNL     1      48.567   7.904  19.099  0.00  0.00    +0.000 A 
ENDBRANCH  17  19
ENDBRANCH  15  17
ENDBRANCH   1  15
TORSDOF 4
ENDMDL
MODEL 8
REMARK VINA RESULT:    -5.878      3.129      8.587
REMARK INTER + INTRA:          -7.867
REMARK INTER:                  -7.192
REMARK INTRA:                  -0.675
REMARK UNBOUND:                -0.615
REMARK  Name = 
REMARK  6 active torsions:
REMARK  status: ('A' for Active; 'I' for Inactive)
REMARK    1  A    between atoms: C_1  and  C_2
REMARK    2  A    between atoms: C_2  and  C_3
REMARK    3  A    between atoms: C_2  and  C_4
REMARK    4  A    between atoms: C_2  and  C_18
REMARK    5  A    between atoms: C_4  and  N_5
REMARK    6  A    between atoms: C_8  and  N_9
REMARK                            x       y       z     vdW  Elec       q    Type
REMARK                         _______ _______ _______ _____ _____    ______ ____
ROOT
ATOM      1  N   UNL     1      48.192   4.947  16.381  0.00  0.00    +0.000 N 
ATOM      2  C   UNL     1      47.752   5.331  15.097  0.00  0.00    +0.000 A 
ATOM      3  C   UNL     1      46.634   4.691  14.564  0.00  0.00    +0.000 A 
ATOM      4  C   UNL     1      46.143   5.018  13.295  0.00  0.00    +0.000 A 
ATOM      5  C   UNL     1      46.880   5.950  12.569  0.00  0.00    +0.000 A 
ATOM      6  C   UNL     1      48.007   6.517  13.140  0.00  0.00    +0.000 A 
ATOM      7  N   UNL     1      48.446   6.236  14.383  0.00  0.00    +0.000 NA
ATOM      8  H   UNL     1      47.387   4.724  16.962  0.00  0.00    +0.000 HD
ENDROOT
BRANCH   4   9
ATOM      9  N   UNL     1      44.997   4.439  12.798  0.00  0.00    +0.000 N 
ATOM     10  C   UNL     1      44.998   3.132  12.123  0.00  0.00    +0.000 C 
ATOM     11  C   UNL     1      44.268   3.259  10.780  0.00  0.00    +0.000 C 
ATOM     12  O   UNL     1      42.934   3.768  10.959  0.00  0.00    +0.000 OA
ATOM     13  C   UNL     1      42.970   5.065  11.582  0.00  0.00    +0.000 C 
ATOM     14  C   UNL     1      43.660   5.026  12.958  0.00  0.00    +0.000 C 
ENDBRANCH   4   9
BRANCH   1  15
ATOM     15  C   UNL     1      49.015   5.976  17.026  0.00  0.00    +0.000 C 
BRANCH  15  17
ATOM     16  C   UNL     1      47.168   5.578  18.686  0.00  0.00    +0.000 C 
ATOM     17  C   UNL     1      48.528   6.289  18.476  0.00  0.00    +0.000 C 
ATOM     18  C   UNL     1      49.531   5.628  19.454  0.00  0.00    +0.000 C 
BRANCH  17  19
ATOM     19  C   UNL     1      48.476   7.804  18.769  0.00  0.00    +0.000 A 
ATOM     20  C   UNL     1      47.282   8.466  19.104  0.00  0.00    +0.000 A 
ATOM     21  C   UNL     1      47.258   9.832  19.396  0.00  0.00    +0.000 A 
ATOM     22  C   UNL     1      48.432  10.575  19.356  0.00  0.00    +0.000 A 
ATOM     23  C   UNL     1      49.628   9.951  19.017  0.00  0.00    +0.000 A 
ATOM     24  C   UNL     1      49.651   8.584  18.721  0.00  0.00    +0.000 A 
ENDBRANCH  17  19
ENDBRANCH  15  17
ENDBRANCH   1  15
TORSDOF 4
ENDMDL
MODEL 9
REMARK VINA RESULT:    -5.817      5.221      7.631
REMARK INTER + INTRA:          -7.793
REMARK INTER:                  -7.162
REMARK INTRA:                  -0.630
REMARK UNBOUND:                -0.615
REMARK  Name = 
REMARK  6 active torsions:
REMARK  status: ('A' for Active; 'I' for Inactive)
REMARK    1  A    between atoms: C_1  and  C_2
REMARK    2  A    between atoms: C_2  and  C_3
REMARK    3  A    between atoms: C_2  and  C_4
REMARK    4  A    between atoms: C_2  and  C_18
REMARK    5  A    between atoms: C_4  and  N_5
REMARK    6  A    between atoms: C_8  and  N_9
REMARK                            x       y       z     vdW  Elec       q    Type
REMARK                         _______ _______ _______ _____ _____    ______ ____
ROOT
ATOM      1  N   UNL     1      48.582   7.622  12.197  0.00  0.00    +0.000 N 
ATOM      2  C   UNL     1      47.965   6.632  12.990  0.00  0.00    +0.000 A 
ATOM      3  C   UNL     1      46.778   6.065  12.530  0.00  0.00    +0.000 A 
ATOM      4  C   UNL     1      46.108   5.080  13.266  0.00  0.00    +0.000 A 
ATOM      5  C   UNL     1      46.646   4.765  14.511  0.00  0.00    +0.000 A 
ATOM      6  C   UNL     1      47.805   5.398  14.929  0.00  0.00    +0.000 A 
ATOM      7  N   UNL     1      48.474   6.308  14.193  0.00  0.00    +0.000 NA
ATOM      8  H   UNL     1      48.455   7.396  11.214  0.00  0.00    +0.000 HD
ENDROOT
BRANCH   4   9
ATOM      9  N   UNL     1      44.976   4.466  12.778  0.00  0.00    +0.000 N 
ATOM     10  C   UNL     1      45.003   3.137  12.148  0.00  0.00    +0.000 C 
ATOM     11  C   UNL     1      44.285   3.207  10.795  0.00  0.00    +0.000 C 
ATOM     12  O   UNL     1      42.941   3.700  10.945  0.00  0.00    +0.000 OA
ATOM     13  C   UNL     1      42.951   5.017  11.524  0.00  0.00    +0.000 C 
ATOM     14  C   UNL     1      43.629   5.036  12.907  0.00  0.00    +0.000 C 
ENDBRANCH   4   9
BRANCH   1  15
ATOM     15  C   UNL     1      50.009   7.778  12.502  0.00  0.00    +0.000 C 
BRANCH  15  17
ATOM     16  C   UNL     1      49.451   9.946  11.356  0.00  0.00    +0.000 C 
ATOM     17  C   UNL     1      50.620   9.035  11.806  0.00  0.00    +0.000 C 
ATOM     18  C   UNL     1      51.408   9.823  12.883  0.00  0.00    +0.000 C 
BRANCH  17  19
ATOM     19  C   UNL     1      51.584   8.666  10.658  0.00  0.00    +0.000 A 
ATOM     20  C   UNL     1      51.796   7.337  10.252  0.00  0.00    +0.000 A 
ATOM     21  C   UNL     1      52.649   7.023   9.191  0.00  0.00    +0.000 A 
ATOM     22  C   UNL     1      53.317   8.034   8.509  0.00  0.00    +0.000 A 
ATOM     23  C   UNL     1      53.136   9.358   8.895  0.00  0.00    +0.000 A 
ATOM     24  C   UNL     1      52.284   9.671   9.960  0.00  0.00    +0.000 A 
ENDBRANCH  17  19
ENDBRANCH  15  17
ENDBRANCH   1  15
TORSDOF 4
ENDMDL
