MODEL 1
REMARK VINA RESULT:    -8.048      0.000      0.000
REMARK INTER + INTRA:         -11.348
REMARK INTER:                 -10.401
REMARK INTRA:                  -0.947
REMARK UNBOUND:                -0.947
REMARK  Name = 
REMARK  5 active torsions:
REMARK  status: ('A' for Active; 'I' for Inactive)
REMARK    1  A    between atoms: C_2  and  C_5
REMARK    2  A    between atoms: C_9  and  C_10
REMARK    3  A    between atoms: C_10  and  N_11
REMARK    4  A    between atoms: N_11  and  C_12
REMARK    5  A    between atoms: C_16  and  C_17
REMARK                            x       y       z     vdW  Elec       q    Type
REMARK                         _______ _______ _______ _____ _____    ______ ____
ROOT
ATOM      1  N   UNL     1      44.519   2.630  11.833  0.00  0.00    +0.000 N 
ATOM      2  H   UNL     1      43.925   2.101  12.468  0.00  0.00    +0.000 HD
ENDROOT
BRANCH   1   3
ATOM      3  C   UNL     1      45.233   3.633  12.504  0.00  0.00    +0.000 A 
ATOM      4  C   UNL     1      46.384   3.293  13.224  0.00  0.00    +0.000 A 
ATOM      5  C   UNL     1      47.151   4.271  13.864  0.00  0.00    +0.000 A 
ATOM      6  C   UNL     1      46.800   5.615  13.759  0.00  0.00    +0.000 A 
ATOM      7  C   UNL     1      45.697   5.996  12.987  0.00  0.00    +0.000 A 
ATOM      8  C   UNL     1      44.931   4.995  12.368  0.00  0.00    +0.000 A 
BRANCH   7   9
ATOM      9  C   UNL     1      45.331   7.450  12.759  0.00  0.00    +0.000 C 
ATOM     10  C   UNL     1      44.540   7.631  11.456  0.00  0.00    +0.000 C 
ATOM     11  C   UNL     1      44.265   9.104  11.194  0.00  0.00    +0.000 C 
ATOM     12  O   UNL     1      45.479   9.852  11.195  0.00  0.00    +0.000 OA
ATOM     13  C   UNL     1      46.139   9.805  12.459  0.00  0.00    +0.000 C 
ATOM     14  C   UNL     1      46.551   8.378  12.800  0.00  0.00    +0.000 C 
ENDBRANCH   7   9
ENDBRANCH   1   3
BRANCH   1  15
ATOM     15  C   UNL     1      43.797   3.010  10.623  0.00  0.00    +0.000 C 
BRANCH  15  20
ATOM     16  C   UNL     1      46.352   2.299   7.873  0.00  0.00    +0.000 A 
ATOM     17  C   UNL     1      46.645   3.600   7.441  0.00  0.00    +0.000 A 
ATOM     18  C   UNL     1      46.016   4.701   8.024  0.00  0.00    +0.000 A 
ATOM     19  C   UNL     1      45.084   4.515   9.046  0.00  0.00    +0.000 A 
ATOM     20  C   UNL     1      44.773   3.227   9.493  0.00  0.00    +0.000 A 
ATOM     21  C   UNL     1      45.414   2.126   8.902  0.00  0.00    +0.000 A 
BRANCH  16  23
ATOM     22  F   UNL     1      46.679   0.870   5.969  0.00  0.00    +0.000 F 
ATOM     23  C   UNL     1      47.030   1.097   7.266  0.00  0.00    +0.000 C 
ATOM     24  F   UNL     1      46.747  -0.057   7.933  0.00  0.00    +0.000 F 
ATOM     25  F   UNL     1      48.387   1.208   7.269  0.00  0.00    +0.000 F 
ENDBRANCH  16  23
ENDBRANCH  15  20
ENDBRANCH   1  15
TORSDOF 5
ENDMDL
MODEL 2
REMARK VINA RESULT:    -7.671      3.921      6.898
REMARK INTER + INTRA:         -10.860
REMARK INTER:                  -9.799
REMARK INTRA:                  -1.061
REMARK UNBOUND:                -0.947
REMARK  Name = 
REMARK  5 active torsions:
REMARK  status: ('A' for Active; 'I' for Inactive)
REMARK    1  A    between atoms: C_2  and  C_5
REMARK    2  A    between atoms: C_9  and  C_10
REMARK    3  A    between atoms: C_10  and  N_11
REMARK    4  A    between atoms: N_11  and  C_12
REMARK    5  A    between atoms: C_16  and  C_17
REMARK                            x       y       z     vdW  Elec       q    Type
REMARK                         _______ _______ _______ _____ _____    ______ ____
ROOT
ATOM      1  N   UNL     1      44.227   6.417  10.691  0.00  0.00    +0.000 N 
ATOM      2  H   UNL     1      43.402   6.827  10.260  0.00  0.00    +0.000 HD
ENDROOT
BRANCH   1   3
ATOM      3  C   UNL     1      44.290   5.033  10.478  0.00  0.00    +0.000 A 
ATOM      4  C   UNL     1      43.535   4.177  11.289  0.00  0.00    +0.000 A 
ATOM      5  C   UNL     1      43.531   2.796  11.075  0.00  0.00    +0.000 A 
ATOM      6  C   UNL     1      44.253   2.250  10.017  0.00  0.00    +0.000 A 
ATOM      7  C   UNL     1      44.960   3.083   9.143  0.00  0.00    +0.000 A 
ATOM      8  C   UNL     1      44.964   4.466   9.388  0.00  0.00    +0.000 A 
BRANCH   7   9
ATOM      9  C   UNL     1      45.681   2.550   7.919  0.00  0.00    +0.000 C 
ATOM     10  C   UNL     1      46.295   1.170   8.188  0.00  0.00    +0.000 C 
ATOM     11  C   UNL     1      47.094   0.693   6.984  0.00  0.00    +0.000 C 
ATOM     12  O   UNL     1      48.078   1.658   6.617  0.00  0.00    +0.000 OA
ATOM     13  C   UNL     1      47.493   2.899   6.222  0.00  0.00    +0.000 C 
ATOM     14  C   UNL     1      46.731   3.529   7.381  0.00  0.00    +0.000 C 
ENDBRANCH   7   9
ENDBRANCH   1   3
BRANCH   1  15
ATOM     15  C   UNL     1      44.407   6.899  12.056  0.00  0.00    +0.000 C 
BRANCH  15  20
ATOM     16  C   UNL     1      48.194   7.317  12.351  0.00  0.00    +0.000 A 
ATOM     17  C   UNL     1      48.509   6.262  13.218  0.00  0.00    +0.000 A 
ATOM     18  C   UNL     1      47.508   5.426  13.715  0.00  0.00    +0.000 A 
ATOM     19  C   UNL     1      46.177   5.635  13.352  0.00  0.00    +0.000 A 
ATOM     20  C   UNL     1      45.836   6.683  12.490  0.00  0.00    +0.000 A 
ATOM     21  C   UNL     1      46.851   7.516  11.993  0.00  0.00    +0.000 A 
BRANCH  16  23
ATOM     22  F   UNL     1      50.084   8.747  12.743  0.00  0.00    +0.000 F 
ATOM     23  C   UNL     1      49.261   8.224  11.792  0.00  0.00    +0.000 C 
ATOM     24  F   UNL     1      48.743   9.290  11.121  0.00  0.00    +0.000 F 
ATOM     25  F   UNL     1      50.076   7.584  10.908  0.00  0.00    +0.000 F 
ENDBRANCH  16  23
ENDBRANCH  15  20
ENDBRANCH   1  15
TORSDOF 5
ENDMDL
MODEL 3
REMARK VINA RESULT:    -7.630      2.306      3.245
REMARK INTER + INTRA:         -10.808
REMARK INTER:                  -9.628
REMARK INTRA:                  -1.180
REMARK UNBOUND:                -0.947
REMARK  Name = 
REMARK  5 active torsions:
REMARK  status: ('A' for Active; 'I' for Inactive)
REMARK    1  A    between atoms: C_2  and  C_5
REMARK    2  A    between atoms: C_9  and  C_10
REMARK    3  A    between atoms: C_10  and  N_11
REMARK    4  A    between atoms: N_11  and  C_12
REMARK    5  A    between atoms: C_16  and  C_17
REMARK                            x       y       z     vdW  Elec       q    Type
REMARK                         _______ _______ _______ _____ _____    ______ ____
ROOT
ATOM      1  N   UNL     1      43.730   6.049  12.413  0.00  0.00    +0.000 N 
ATOM      2  H   UNL     1      43.222   6.817  12.845  0.00  0.00    +0.000 HD
ENDROOT
BRANCH   1   3
ATOM      3  C   UNL     1      45.092   6.075  12.745  0.00  0.00    +0.000 A 
ATOM      4  C   UNL     1      45.611   5.095  13.598  0.00  0.00    +0.000 A 
ATOM      5  C   UNL     1      46.972   5.057  13.912  0.00  0.00    +0.000 A 
ATOM      6  C   UNL     1      47.847   5.978  13.341  0.00  0.00    +0.000 A 
ATOM      7  C   UNL     1      47.374   6.926  12.428  0.00  0.00    +0.000 A 
ATOM      8  C   UNL     1      45.999   6.956  12.142  0.00  0.00    +0.000 A 
BRANCH   7   9
ATOM      9  C   UNL     1      48.298   7.887  11.704  0.00  0.00    +0.000 C 
ATOM     10  C   UNL     1      49.772   7.544  11.958  0.00  0.00    +0.000 C 
ATOM     11  C   UNL     1      50.683   8.572  11.306  0.00  0.00    +0.000 C 
ATOM     12  O   UNL     1      50.354   9.890  11.743  0.00  0.00    +0.000 OA
ATOM     13  C   UNL     1      49.027  10.262  11.372  0.00  0.00    +0.000 C 
ATOM     14  C   UNL     1      48.004   9.354  12.040  0.00  0.00    +0.000 C 
ENDBRANCH   7   9
ENDBRANCH   1   3
BRANCH   1  15
ATOM     15  C   UNL     1      43.381   5.908  11.004  0.00  0.00    +0.000 C 
BRANCH  15  20
ATOM     16  C   UNL     1      45.306   3.420   8.836  0.00  0.00    +0.000 A 
ATOM     17  C   UNL     1      44.901   2.204   9.404  0.00  0.00    +0.000 A 
ATOM     18  C   UNL     1      44.021   2.185  10.487  0.00  0.00    +0.000 A 
ATOM     19  C   UNL     1      43.535   3.381  11.017  0.00  0.00    +0.000 A 
ATOM     20  C   UNL     1      43.927   4.607  10.469  0.00  0.00    +0.000 A 
ATOM     21  C   UNL     1      44.810   4.616   9.377  0.00  0.00    +0.000 A 
BRANCH  16  23
ATOM     22  F   UNL     1      47.176   2.468   7.665  0.00  0.00    +0.000 F 
ATOM     23  C   UNL     1      46.246   3.464   7.657  0.00  0.00    +0.000 C 
ATOM     24  F   UNL     1      46.949   4.628   7.591  0.00  0.00    +0.000 F 
ATOM     25  F   UNL     1      45.593   3.352   6.467  0.00  0.00    +0.000 F 
ENDBRANCH  16  23
ENDBRANCH  15  20
ENDBRANCH   1  15
TORSDOF 5
ENDMDL
MODEL 4
REMARK VINA RESULT:    -7.608      3.939      6.914
REMARK INTER + INTRA:         -10.778
REMARK INTER:                  -9.741
REMARK INTRA:                  -1.037
REMARK UNBOUND:                -0.947
REMARK  Name = 
REMARK  5 active torsions:
REMARK  status: ('A' for Active; 'I' for Inactive)
REMARK    1  A    between atoms: C_2  and  C_5
REMARK    2  A    between atoms: C_9  and  C_10
REMARK    3  A    between atoms: C_10  and  N_11
REMARK    4  A    between atoms: N_11  and  C_12
REMARK    5  A    between atoms: C_16  and  C_17
REMARK                            x       y       z     vdW  Elec       q    Type
REMARK                         _______ _______ _______ _____ _____    ______ ____
ROOT
ATOM      1  N   UNL     1      44.597   6.425  10.600  0.00  0.00    +0.000 N 
ATOM      2  H   UNL     1      43.912   6.931  10.043  0.00  0.00    +0.000 HD
ENDROOT
BRANCH   1   3
ATOM      3  C   UNL     1      44.542   5.045  10.361  0.00  0.00    +0.000 A 
ATOM      4  C   UNL     1      43.720   4.240  11.159  0.00  0.00    +0.000 A 
ATOM      5  C   UNL     1      43.599   2.869  10.920  0.00  0.00    +0.000 A 
ATOM      6  C   UNL     1      44.269   2.284   9.848  0.00  0.00    +0.000 A 
ATOM      7  C   UNL     1      45.041   3.071   8.987  0.00  0.00    +0.000 A 
ATOM      8  C   UNL     1      45.162   4.444   9.257  0.00  0.00    +0.000 A 
BRANCH   7   9
ATOM      9  C   UNL     1      45.710   2.502   7.749  0.00  0.00    +0.000 C 
ATOM     10  C   UNL     1      46.474   1.211   8.070  0.00  0.00    +0.000 C 
ATOM     11  C   UNL     1      47.217   0.708   6.842  0.00  0.00    +0.000 C 
ATOM     12  O   UNL     1      48.071   1.722   6.315  0.00  0.00    +0.000 OA
ATOM     13  C   UNL     1      47.338   2.866   5.878  0.00  0.00    +0.000 C 
ATOM     14  C   UNL     1      46.614   3.523   7.047  0.00  0.00    +0.000 C 
ENDBRANCH   7   9
ENDBRANCH   1   3
BRANCH   1  15
ATOM     15  C   UNL     1      44.586   6.871  11.989  0.00  0.00    +0.000 C 
BRANCH  15  20
ATOM     16  C   UNL     1      47.296   5.404  14.248  0.00  0.00    +0.000 A 
ATOM     17  C   UNL     1      48.405   6.169  13.862  0.00  0.00    +0.000 A 
ATOM     18  C   UNL     1      48.285   7.145  12.872  0.00  0.00    +0.000 A 
ATOM     19  C   UNL     1      47.054   7.369  12.254  0.00  0.00    +0.000 A 
ATOM     20  C   UNL     1      45.933   6.616  12.619  0.00  0.00    +0.000 A 
ATOM     21  C   UNL     1      46.064   5.638  13.618  0.00  0.00    +0.000 A 
BRANCH  16  23
ATOM     22  F   UNL     1      47.530   3.086  14.838  0.00  0.00    +0.000 F 
ATOM     23  C   UNL     1      47.400   4.352  15.324  0.00  0.00    +0.000 C 
ATOM     24  F   UNL     1      46.309   4.327  16.138  0.00  0.00    +0.000 F 
ATOM     25  F   UNL     1      48.472   4.548  16.140  0.00  0.00    +0.000 F 
ENDBRANCH  16  23
ENDBRANCH  15  20
ENDBRANCH   1  15
TORSDOF 5
ENDMDL
MODEL 5
REMARK VINA RESULT:    -7.453      2.596      4.155
REMARK INTER + INTRA:         -10.578
REMARK INTER:                  -9.602
REMARK INTRA:                  -0.976
REMARK UNBOUND:                -0.947
REMARK  Name = 
REMARK  5 active torsions:
REMARK  status: ('A' for Active; 'I' for Inactive)
REMARK    1  A    between atoms: C_2  and  C_5
REMARK    2  A    between atoms: C_9  and  C_10
REMARK    3  A    between atoms: C_10  and  N_11
REMARK    4  A    between atoms: N_11  and  C_12
REMARK    5  A    between atoms: C_16  and  C_17
REMARK                            x       y       z     vdW  Elec       q    Type
REMARK                         _______ _______ _______ _____ _____    ______ ____
ROOT
ATOM      1  N   UNL     1      44.054   5.018  11.372  0.00  0.00    +0.000 N 
ATOM      2  H   UNL     1      43.265   5.477  11.820  0.00  0.00    +0.000 HD
ENDROOT
BRANCH   1   3
ATOM      3  C   UNL     1      45.273   5.400  11.950  0.00  0.00    +0.000 A 
ATOM      4  C   UNL     1      46.046   6.392  11.333  0.00  0.00    +0.000 A 
ATOM      5  C   UNL     1      47.241   6.836  11.905  0.00  0.00    +0.000 A 
ATOM      6  C   UNL     1      47.663   6.324  13.129  0.00  0.00    +0.000 A 
ATOM      7  C   UNL     1      46.879   5.385  13.808  0.00  0.00    +0.000 A 
ATOM      8  C   UNL     1      45.691   4.940  13.206  0.00  0.00    +0.000 A 
BRANCH   7   9
ATOM      9  C   UNL     1      47.243   4.870  15.188  0.00  0.00    +0.000 C 
ATOM     10  C   UNL     1      48.364   5.707  15.820  0.00  0.00    +0.000 C 
ATOM     11  C   UNL     1      48.783   5.120  17.159  0.00  0.00    +0.000 C 
ATOM     12  O   UNL     1      49.150   3.749  17.017  0.00  0.00    +0.000 OA
ATOM     13  C   UNL     1      48.059   2.945  16.571  0.00  0.00    +0.000 C 
ATOM     14  C   UNL     1      47.600   3.379  15.185  0.00  0.00    +0.000 C 
ENDBRANCH   7   9
ENDBRANCH   1   3
BRANCH   1  15
ATOM     15  C   UNL     1      43.948   5.077   9.918  0.00  0.00    +0.000 C 
BRANCH  15  20
ATOM     16  C   UNL     1      46.067   2.891   7.610  0.00  0.00    +0.000 A 
ATOM     17  C   UNL     1      45.764   1.614   8.102  0.00  0.00    +0.000 A 
ATOM     18  C   UNL     1      44.891   1.457   9.180  0.00  0.00    +0.000 A 
ATOM     19  C   UNL     1      44.309   2.575   9.780  0.00  0.00    +0.000 A 
ATOM     20  C   UNL     1      44.598   3.860   9.308  0.00  0.00    +0.000 A 
ATOM     21  C   UNL     1      45.476   4.007   8.221  0.00  0.00    +0.000 A 
BRANCH  16  23
ATOM     22  F   UNL     1      46.783   2.202   5.422  0.00  0.00    +0.000 F 
ATOM     23  C   UNL     1      46.997   3.083   6.439  0.00  0.00    +0.000 C 
ATOM     24  F   UNL     1      48.307   2.943   6.782  0.00  0.00    +0.000 F 
ATOM     25  F   UNL     1      46.886   4.323   5.884  0.00  0.00    +0.000 F 
ENDBRANCH  16  23
ENDBRANCH  15  20
ENDBRANCH   1  15
TORSDOF 5
ENDMDL
MODEL 6
REMARK VINA RESULT:    -7.286      2.251      3.164
REMARK INTER + INTRA:         -10.362
REMARK INTER:                  -9.379
REMARK INTRA:                  -0.983
REMARK UNBOUND:                -0.947
REMARK  Name = 
REMARK  5 active torsions:
REMARK  status: ('A' for Active; 'I' for Inactive)
REMARK    1  A    between atoms: C_2  and  C_5
REMARK    2  A    between atoms: C_9  and  C_10
REMARK    3  A    between atoms: C_10  and  N_11
REMARK    4  A    between atoms: N_11  and  C_12
REMARK    5  A    between atoms: C_16  and  C_17
REMARK                            x       y       z     vdW  Elec       q    Type
REMARK                         _______ _______ _______ _____ _____    ______ ____
ROOT
ATOM      1  N   UNL     1      44.516   5.526  11.307  0.00  0.00    +0.000 N 
ATOM      2  H   UNL     1      43.774   6.188  11.524  0.00  0.00    +0.000 HD
ENDROOT
BRANCH   1   3
ATOM      3  C   UNL     1      45.549   5.577  12.252  0.00  0.00    +0.000 A 
ATOM      4  C   UNL     1      45.495   4.744  13.376  0.00  0.00    +0.000 A 
ATOM      5  C   UNL     1      46.531   4.728  14.314  0.00  0.00    +0.000 A 
ATOM      6  C   UNL     1      47.661   5.519  14.122  0.00  0.00    +0.000 A 
ATOM      7  C   UNL     1      47.781   6.308  12.973  0.00  0.00    +0.000 A 
ATOM      8  C   UNL     1      46.720   6.321  12.053  0.00  0.00    +0.000 A 
BRANCH   7   9
ATOM      9  C   UNL     1      49.032   7.110  12.666  0.00  0.00    +0.000 C 
ATOM     10  C   UNL     1      49.766   7.514  13.951  0.00  0.00    +0.000 C 
ATOM     11  C   UNL     1      50.963   8.397  13.631  0.00  0.00    +0.000 C 
ATOM     12  O   UNL     1      50.564   9.529  12.861  0.00  0.00    +0.000 OA
ATOM     13  C   UNL     1      50.016   9.154  11.598  0.00  0.00    +0.000 C 
ATOM     14  C   UNL     1      48.747   8.331  11.783  0.00  0.00    +0.000 C 
ENDBRANCH   7   9
ENDBRANCH   1   3
BRANCH   1  15
ATOM     15  C   UNL     1      44.887   5.588   9.897  0.00  0.00    +0.000 C 
BRANCH  15  20
ATOM     16  C   UNL     1      46.155   2.688   7.757  0.00  0.00    +0.000 A 
ATOM     17  C   UNL     1      45.410   1.625   8.283  0.00  0.00    +0.000 A 
ATOM     18  C   UNL     1      44.511   1.836   9.330  0.00  0.00    +0.000 A 
ATOM     19  C   UNL     1      44.347   3.114   9.865  0.00  0.00    +0.000 A 
ATOM     20  C   UNL     1      45.081   4.192   9.358  0.00  0.00    +0.000 A 
ATOM     21  C   UNL     1      45.981   3.969   8.303  0.00  0.00    +0.000 A 
BRANCH  16  23
ATOM     22  F   UNL     1      48.387   2.913   6.894  0.00  0.00    +0.000 F 
ATOM     23  C   UNL     1      47.122   2.485   6.618  0.00  0.00    +0.000 C 
ATOM     24  F   UNL     1      46.746   3.144   5.487  0.00  0.00    +0.000 F 
ATOM     25  F   UNL     1      47.243   1.175   6.266  0.00  0.00    +0.000 F 
ENDBRANCH  16  23
ENDBRANCH  15  20
ENDBRANCH   1  15
TORSDOF 5
ENDMDL
MODEL 7
REMARK VINA RESULT:    -7.098      4.468      7.376
REMARK INTER + INTRA:         -10.120
REMARK INTER:                  -9.308
REMARK INTRA:                  -0.813
REMARK UNBOUND:                -0.947
REMARK  Name = 
REMARK  5 active torsions:
REMARK  status: ('A' for Active; 'I' for Inactive)
REMARK    1  A    between atoms: C_2  and  C_5
REMARK    2  A    between atoms: C_9  and  C_10
REMARK    3  A    between atoms: C_10  and  N_11
REMARK    4  A    between atoms: N_11  and  C_12
REMARK    5  A    between atoms: C_16  and  C_17
REMARK                            x       y       z     vdW  Elec       q    Type
REMARK                         _______ _______ _______ _____ _____    ______ ____
ROOT
ATOM      1  N   UNL     1      45.938   6.496  13.322  0.00  0.00    +0.000 N 
ATOM      2  H   UNL     1      45.652   6.607  14.292  0.00  0.00    +0.000 HD
ENDROOT
BRANCH   1   3
ATOM      3  C   UNL     1      44.996   5.765  12.585  0.00  0.00    +0.000 A 
ATOM      4  C   UNL     1      43.645   5.819  12.948  0.00  0.00    +0.000 A 
ATOM      5  C   UNL     1      42.670   5.146  12.208  0.00  0.00    +0.000 A 
ATOM      6  C   UNL     1      43.027   4.437  11.063  0.00  0.00    +0.000 A 
ATOM      7  C   UNL     1      44.357   4.422  10.630  0.00  0.00    +0.000 A 
ATOM      8  C   UNL     1      45.322   5.091  11.400  0.00  0.00    +0.000 A 
BRANCH   7   9
ATOM      9  C   UNL     1      44.782   3.749   9.338  0.00  0.00    +0.000 C 
ATOM     10  C   UNL     1      45.250   2.309   9.585  0.00  0.00    +0.000 C 
ATOM     11  C   UNL     1      45.763   1.683   8.297  0.00  0.00    +0.000 C 
ATOM     12  O   UNL     1      46.785   2.490   7.715  0.00  0.00    +0.000 OA
ATOM     13  C   UNL     1      46.306   3.783   7.348  0.00  0.00    +0.000 C 
ATOM     14  C   UNL     1      45.842   4.555   8.577  0.00  0.00    +0.000 C 
ENDBRANCH   7   9
ENDBRANCH   1   3
BRANCH   1  15
ATOM     15  C   UNL     1      47.335   6.090  13.223  0.00  0.00    +0.000 C 
BRANCH  15  20
ATOM     16  C   UNL     1      48.143   4.500  16.602  0.00  0.00    +0.000 A 
ATOM     17  C   UNL     1      48.898   5.518  17.200  0.00  0.00    +0.000 A 
ATOM     18  C   UNL     1      49.156   6.707  16.516  0.00  0.00    +0.000 A 
ATOM     19  C   UNL     1      48.663   6.893  15.224  0.00  0.00    +0.000 A 
ATOM     20  C   UNL     1      47.909   5.890  14.604  0.00  0.00    +0.000 A 
ATOM     21  C   UNL     1      47.653   4.699  15.302  0.00  0.00    +0.000 A 
BRANCH  16  23
ATOM     22  F   UNL     1      48.344   3.170  18.593  0.00  0.00    +0.000 F 
ATOM     23  C   UNL     1      47.842   3.212  17.327  0.00  0.00    +0.000 C 
ATOM     24  F   UNL     1      48.349   2.121  16.690  0.00  0.00    +0.000 F 
ATOM     25  F   UNL     1      46.504   2.986  17.451  0.00  0.00    +0.000 F 
ENDBRANCH  16  23
ENDBRANCH  15  20
ENDBRANCH   1  15
TORSDOF 5
ENDMDL
MODEL 8
REMARK VINA RESULT:    -6.918      4.095      6.710
REMARK INTER + INTRA:          -9.887
REMARK INTER:                  -8.973
REMARK INTRA:                  -0.914
REMARK UNBOUND:                -0.947
REMARK  Name = 
REMARK  5 active torsions:
REMARK  status: ('A' for Active; 'I' for Inactive)
REMARK    1  A    between atoms: C_2  and  C_5
REMARK    2  A    between atoms: C_9  and  C_10
REMARK    3  A    between atoms: C_10  and  N_11
REMARK    4  A    between atoms: N_11  and  C_12
REMARK    5  A    between atoms: C_16  and  C_17
REMARK                            x       y       z     vdW  Elec       q    Type
REMARK                         _______ _______ _______ _____ _____    ______ ____
ROOT
ATOM      1  N   UNL     1      46.047   6.092  13.442  0.00  0.00    +0.000 N 
ATOM      2  H   UNL     1      45.887   5.883  14.425  0.00  0.00    +0.000 HD
ENDROOT
BRANCH   1   3
ATOM      3  C   UNL     1      45.056   5.529  12.625  0.00  0.00    +0.000 A 
ATOM      4  C   UNL     1      43.708   5.766  12.916  0.00  0.00    +0.000 A 
ATOM      5  C   UNL     1      42.693   5.266  12.096  0.00  0.00    +0.000 A 
ATOM      6  C   UNL     1      43.012   4.553  10.943  0.00  0.00    +0.000 A 
ATOM      7  C   UNL     1      44.351   4.360  10.583  0.00  0.00    +0.000 A 
ATOM      8  C   UNL     1      45.353   4.856  11.431  0.00  0.00    +0.000 A 
BRANCH   7   9
ATOM      9  C   UNL     1      44.751   3.677   9.289  0.00  0.00    +0.000 C 
ATOM     10  C   UNL     1      45.240   2.245   9.540  0.00  0.00    +0.000 C 
ATOM     11  C   UNL     1      45.728   1.609   8.247  0.00  0.00    +0.000 C 
ATOM     12  O   UNL     1      46.729   2.419   7.632  0.00  0.00    +0.000 OA
ATOM     13  C   UNL     1      46.228   3.703   7.263  0.00  0.00    +0.000 C 
ATOM     14  C   UNL     1      45.785   4.484   8.494  0.00  0.00    +0.000 C 
ENDBRANCH   7   9
ENDBRANCH   1   3
BRANCH   1  15
ATOM     15  C   UNL     1      47.439   5.863  13.070  0.00  0.00    +0.000 C 
BRANCH  15  20
ATOM     16  C   UNL     1      49.959   8.316  11.577  0.00  0.00    +0.000 A 
ATOM     17  C   UNL     1      49.202   9.496  11.561  0.00  0.00    +0.000 A 
ATOM     18  C   UNL     1      47.883   9.501  12.017  0.00  0.00    +0.000 A 
ATOM     19  C   UNL     1      47.303   8.325  12.495  0.00  0.00    +0.000 A 
ATOM     20  C   UNL     1      48.037   7.134  12.519  0.00  0.00    +0.000 A 
ATOM     21  C   UNL     1      49.364   7.141  12.061  0.00  0.00    +0.000 A 
BRANCH  16  23
ATOM     22  F   UNL     1      52.301   8.360  12.111  0.00  0.00    +0.000 F 
ATOM     23  C   UNL     1      51.389   8.291  11.101  0.00  0.00    +0.000 C 
ATOM     24  F   UNL     1      51.682   9.327  10.266  0.00  0.00    +0.000 F 
ATOM     25  F   UNL     1      51.687   7.156  10.409  0.00  0.00    +0.000 F 
ENDBRANCH  16  23
ENDBRANCH  15  20
ENDBRANCH   1  15
TORSDOF 5
ENDMDL
MODEL 9
REMARK VINA RESULT:    -6.892      3.307      5.238
REMARK INTER + INTRA:          -9.854
REMARK INTER:                  -8.917
REMARK INTRA:                  -0.937
REMARK UNBOUND:                -0.947
REMARK  Name = 
REMARK  5 active torsions:
REMARK  status: ('A' for Active; 'I' for Inactive)
REMARK    1  A    between atoms: C_2  and  C_5
REMARK    2  A    between atoms: C_9  and  C_10
REMARK    3  A    between atoms: C_10  and  N_11
REMARK    4  A    between atoms: N_11  and  C_12
REMARK    5  A    between atoms: C_16  and  C_17
REMARK                            x       y       z     vdW  Elec       q    Type
REMARK                         _______ _______ _______ _____ _____    ______ ____
ROOT
ATOM      1  N   UNL     1      46.954   6.622  11.504  0.00  0.00    +0.000 N 
ATOM      2  H   UNL     1      47.171   5.799  10.946  0.00  0.00    +0.000 HD
ENDROOT
BRANCH   1   3
ATOM      3  C   UNL     1      47.830   6.757  12.591  0.00  0.00    +0.000 A 
ATOM      4  C   UNL     1      48.854   7.709  12.535  0.00  0.00    +0.000 A 
ATOM      5  C   UNL     1      49.715   7.910  13.617  0.00  0.00    +0.000 A 
ATOM      6  C   UNL     1      49.537   7.187  14.795  0.00  0.00    +0.000 A 
ATOM      7  C   UNL     1      48.478   6.280  14.911  0.00  0.00    +0.000 A 
ATOM      8  C   UNL     1      47.637   6.083  13.805  0.00  0.00    +0.000 A 
BRANCH   7   9
ATOM      9  C   UNL     1      48.181   5.543  16.204  0.00  0.00    +0.000 C 
ATOM     10  C   UNL     1      49.462   5.289  17.010  0.00  0.00    +0.000 C 
ATOM     11  C   UNL     1      49.159   4.466  18.253  0.00  0.00    +0.000 C 
ATOM     12  O   UNL     1      48.493   3.253  17.906  0.00  0.00    +0.000 OA
ATOM     13  C   UNL     1      47.229   3.493  17.288  0.00  0.00    +0.000 C 
ATOM     14  C   UNL     1      47.404   4.241  15.973  0.00  0.00    +0.000 C 
ENDBRANCH   7   9
ENDBRANCH   1   3
BRANCH   1  15
ATOM     15  C   UNL     1      45.524   6.719  11.774  0.00  0.00    +0.000 C 
BRANCH  15  20
ATOM     16  C   UNL     1      44.517   3.324  10.338  0.00  0.00    +0.000 A 
ATOM     17  C   UNL     1      43.657   2.857  11.341  0.00  0.00    +0.000 A 
ATOM     18  C   UNL     1      43.410   3.625  12.480  0.00  0.00    +0.000 A 
ATOM     19  C   UNL     1      44.021   4.870  12.631  0.00  0.00    +0.000 A 
ATOM     20  C   UNL     1      44.885   5.357  11.645  0.00  0.00    +0.000 A 
ATOM     21  C   UNL     1      45.125   4.578  10.501  0.00  0.00    +0.000 A 
BRANCH  16  23
ATOM     22  F   UNL     1      46.102   2.200   8.925  0.00  0.00    +0.000 F 
ATOM     23  C   UNL     1      44.788   2.517   9.093  0.00  0.00    +0.000 C 
ATOM     24  F   UNL     1      44.415   3.167   7.956  0.00  0.00    +0.000 F 
ATOM     25  F   UNL     1      44.117   1.332   9.085  0.00  0.00    +0.000 F 
ENDBRANCH  16  23
ENDBRANCH  15  20
ENDBRANCH   1  15
TORSDOF 5
ENDMDL
