MODEL 1
REMARK VINA RESULT:    -8.301      0.000      0.000
REMARK INTER + INTRA:         -10.679
REMARK INTER:                 -10.242
REMARK INTRA:                  -0.437
REMARK UNBOUND:                -0.437
REMARK  Name = 
REMARK  4 active torsions:
REMARK  status: ('A' for Active; 'I' for Inactive)
REMARK    1  A    between atoms: C_2  and  C_4
REMARK    2  A    between atoms: C_7  and  C_8
REMARK    3  A    between atoms: C_12  and  C_13
REMARK    4  A    between atoms: C_13  and  N_14
REMARK                            x       y       z     vdW  Elec       q    Type
REMARK                         _______ _______ _______ _____ _____    ______ ____
ROOT
ATOM      1  C   UNL     1      46.964   5.472  13.460  0.00  0.00    +0.000 A 
ATOM      2  N   UNL     1      47.663   6.396  12.778  0.00  0.00    +0.000 NA
ATOM      3  C   UNL     1      47.147   6.774  11.595  0.00  0.00    +0.000 A 
ATOM      4  C   UNL     1      45.965   6.287  11.088  0.00  0.00    +0.000 A 
ATOM      5  C   UNL     1      45.289   5.363  11.864  0.00  0.00    +0.000 A 
ATOM      6  N   UNL     1      45.809   4.936  13.037  0.00  0.00    +0.000 NA
ENDROOT
BRANCH   1  10
ATOM      7  C   UNL     1      48.455   4.314  17.247  0.00  0.00    +0.000 A 
ATOM      8  C   UNL     1      47.650   3.412  16.567  0.00  0.00    +0.000 A 
ATOM      9  C   UNL     1      47.144   3.786  15.321  0.00  0.00    +0.000 A 
ATOM     10  C   UNL     1      47.451   5.039  14.773  0.00  0.00    +0.000 A 
ATOM     11  C   UNL     1      48.276   5.861  15.550  0.00  0.00    +0.000 A 
ATOM     12  N   UNL     1      48.782   5.543  16.770  0.00  0.00    +0.000 NA
BRANCH   7  14
ATOM     13  N   UNL     1      48.272   3.040  19.301  0.00  0.00    +0.000 N 
ATOM     14  C   UNL     1      49.004   3.951  18.593  0.00  0.00    +0.000 C 
ATOM     15  O   UNL     1      50.043   4.427  19.032  0.00  0.00    +0.000 OA
ATOM     16  H   UNL     1      48.603   2.730  20.203  0.00  0.00    +0.000 HD
ATOM     17  H   UNL     1      47.434   2.642  18.892  0.00  0.00    +0.000 HD
ENDBRANCH   7  14
ENDBRANCH   1  10
BRANCH   5  18
ATOM     18  C   UNL     1      43.913   4.814  11.465  0.00  0.00    +0.000 C 
ATOM     19  C   UNL     1      42.766   5.799  11.345  0.00  0.00    +0.000 C 
ATOM     20  C   UNL     1      42.826   4.909  12.538  0.00  0.00    +0.000 C 
BRANCH  18  21
ATOM     21  N   UNL     1      43.955   3.513  10.770  0.00  0.00    +0.000 N 
ATOM     22  C   UNL     1      44.729   3.256   9.637  0.00  0.00    +0.000 A 
ATOM     23  C   UNL     1      44.847   4.152   8.579  0.00  0.00    +0.000 A 
ATOM     24  C   UNL     1      45.543   3.773   7.430  0.00  0.00    +0.000 A 
ATOM     25  C   UNL     1      46.105   2.511   7.377  0.00  0.00    +0.000 A 
ATOM     26  F   UNL     1      46.765   2.107   6.285  0.00  0.00    +0.000 F 
ATOM     27  C   UNL     1      45.962   1.679   8.468  0.00  0.00    +0.000 A 
ATOM     28  N   UNL     1      45.285   2.025   9.591  0.00  0.00    +0.000 NA
ATOM     29  H   UNL     1      44.078   2.706  11.382  0.00  0.00    +0.000 HD
ENDBRANCH  18  21
ENDBRANCH   5  18
TORSDOF 4
ENDMDL
MODEL 2
REMARK VINA RESULT:    -8.136      3.144      4.831
REMARK INTER + INTRA:         -10.475
REMARK INTER:                  -9.682
REMARK INTRA:                  -0.793
REMARK UNBOUND:                -0.437
REMARK  Name = 
REMARK  4 active torsions:
REMARK  status: ('A' for Active; 'I' for Inactive)
REMARK    1  A    between atoms: C_2  and  C_4
REMARK    2  A    between atoms: C_7  and  C_8
REMARK    3  A    between atoms: C_12  and  C_13
REMARK    4  A    between atoms: C_13  and  N_14
REMARK                            x       y       z     vdW  Elec       q    Type
REMARK                         _______ _______ _______ _____ _____    ______ ____
ROOT
ATOM      1  C   UNL     1      47.183   6.230  12.623  0.00  0.00    +0.000 A 
ATOM      2  N   UNL     1      47.676   5.318  13.480  0.00  0.00    +0.000 NA
ATOM      3  C   UNL     1      46.892   4.254  13.727  0.00  0.00    +0.000 A 
ATOM      4  C   UNL     1      45.663   4.058  13.139  0.00  0.00    +0.000 A 
ATOM      5  C   UNL     1      45.241   5.025  12.245  0.00  0.00    +0.000 A 
ATOM      6  N   UNL     1      45.993   6.125  12.013  0.00  0.00    +0.000 NA
ENDROOT
BRANCH   1  10
ATOM      7  C   UNL     1      49.436   9.665  11.610  0.00  0.00    +0.000 A 
ATOM      8  C   UNL     1      50.112   8.459  11.718  0.00  0.00    +0.000 A 
ATOM      9  C   UNL     1      49.382   7.320  12.061  0.00  0.00    +0.000 A 
ATOM     10  C   UNL     1      47.999   7.398  12.282  0.00  0.00    +0.000 A 
ATOM     11  C   UNL     1      47.428   8.669  12.139  0.00  0.00    +0.000 A 
ATOM     12  N   UNL     1      48.101   9.805  11.817  0.00  0.00    +0.000 NA
BRANCH   7  14
ATOM     13  N   UNL     1      51.108  11.325  12.182  0.00  0.00    +0.000 N 
ATOM     14  C   UNL     1      50.191  10.911  11.257  0.00  0.00    +0.000 C 
ATOM     15  O   UNL     1      50.013  11.516  10.208  0.00  0.00    +0.000 OA
ATOM     16  H   UNL     1      51.671  12.140  11.992  0.00  0.00    +0.000 HD
ATOM     17  H   UNL     1      51.252  10.780  13.025  0.00  0.00    +0.000 HD
ENDBRANCH   7  14
ENDBRANCH   1  10
BRANCH   5  18
ATOM     18  C   UNL     1      43.940   4.883  11.445  0.00  0.00    +0.000 C 
ATOM     19  C   UNL     1      43.111   6.132  11.215  0.00  0.00    +0.000 C 
ATOM     20  C   UNL     1      42.650   5.141  12.228  0.00  0.00    +0.000 C 
BRANCH  18  21
ATOM     21  N   UNL     1      43.884   3.690  10.578  0.00  0.00    +0.000 N 
ATOM     22  C   UNL     1      44.803   3.417   9.563  0.00  0.00    +0.000 A 
ATOM     23  C   UNL     1      45.275   4.389   8.685  0.00  0.00    +0.000 A 
ATOM     24  C   UNL     1      46.099   4.015   7.623  0.00  0.00    +0.000 A 
ATOM     25  C   UNL     1      46.431   2.681   7.474  0.00  0.00    +0.000 A 
ATOM     26  F   UNL     1      47.205   2.284   6.458  0.00  0.00    +0.000 F 
ATOM     27  C   UNL     1      45.940   1.773   8.389  0.00  0.00    +0.000 A 
ATOM     28  N   UNL     1      45.134   2.114   9.424  0.00  0.00    +0.000 NA
ATOM     29  H   UNL     1      43.746   2.809  11.075  0.00  0.00    +0.000 HD
ENDBRANCH  18  21
ENDBRANCH   5  18
TORSDOF 4
ENDMDL
MODEL 3
REMARK VINA RESULT:    -7.581      3.780      8.114
REMARK INTER + INTRA:          -9.790
REMARK INTER:                  -9.034
REMARK INTRA:                  -0.756
REMARK UNBOUND:                -0.437
REMARK  Name = 
REMARK  4 active torsions:
REMARK  status: ('A' for Active; 'I' for Inactive)
REMARK    1  A    between atoms: C_2  and  C_4
REMARK    2  A    between atoms: C_7  and  C_8
REMARK    3  A    between atoms: C_12  and  C_13
REMARK    4  A    between atoms: C_13  and  N_14
REMARK                            x       y       z     vdW  Elec       q    Type
REMARK                         _______ _______ _______ _____ _____    ______ ____
ROOT
ATOM      1  C   UNL     1      47.943   5.871  14.433  0.00  0.00    +0.000 A 
ATOM      2  N   UNL     1      48.921   6.636  13.916  0.00  0.00    +0.000 NA
ATOM      3  C   UNL     1      49.767   7.192  14.801  0.00  0.00    +0.000 A 
ATOM      4  C   UNL     1      49.689   6.994  16.160  0.00  0.00    +0.000 A 
ATOM      5  C   UNL     1      48.675   6.168  16.611  0.00  0.00    +0.000 A 
ATOM      6  N   UNL     1      47.786   5.632  15.744  0.00  0.00    +0.000 NA
ENDROOT
BRANCH   1  10
ATOM      7  C   UNL     1      45.276   3.844  11.848  0.00  0.00    +0.000 A 
ATOM      8  C   UNL     1      45.525   5.184  11.595  0.00  0.00    +0.000 A 
ATOM      9  C   UNL     1      46.396   5.867  12.446  0.00  0.00    +0.000 A 
ATOM     10  C   UNL     1      47.005   5.207  13.524  0.00  0.00    +0.000 A 
ATOM     11  C   UNL     1      46.679   3.853  13.675  0.00  0.00    +0.000 A 
ATOM     12  N   UNL     1      45.830   3.153  12.878  0.00  0.00    +0.000 NA
BRANCH   7  14
ATOM     13  N   UNL     1      44.924   2.333   9.986  0.00  0.00    +0.000 N 
ATOM     14  C   UNL     1      44.335   3.084  10.963  0.00  0.00    +0.000 C 
ATOM     15  O   UNL     1      43.119   3.119  11.108  0.00  0.00    +0.000 OA
ATOM     16  H   UNL     1      44.347   1.774   9.375  0.00  0.00    +0.000 HD
ATOM     17  H   UNL     1      45.935   2.302   9.917  0.00  0.00    +0.000 HD
ENDBRANCH   7  14
ENDBRANCH   1  10
BRANCH   5  18
ATOM     18  C   UNL     1      48.533   5.784  18.089  0.00  0.00    +0.000 C 
ATOM     19  C   UNL     1      47.134   5.569  18.633  0.00  0.00    +0.000 C 
ATOM     20  C   UNL     1      47.855   6.826  18.982  0.00  0.00    +0.000 C 
BRANCH  18  21
ATOM     21  N   UNL     1      49.745   5.186  18.682  0.00  0.00    +0.000 N 
ATOM     22  C   UNL     1      50.393   4.060  18.170  0.00  0.00    +0.000 A 
ATOM     23  C   UNL     1      49.712   2.936  17.709  0.00  0.00    +0.000 A 
ATOM     24  C   UNL     1      50.433   1.805  17.324  0.00  0.00    +0.000 A 
ATOM     25  C   UNL     1      51.813   1.835  17.404  0.00  0.00    +0.000 A 
ATOM     26  F   UNL     1      52.536   0.763  17.058  0.00  0.00    +0.000 F 
ATOM     27  C   UNL     1      52.424   2.987  17.855  0.00  0.00    +0.000 A 
ATOM     28  N   UNL     1      51.742   4.094  18.240  0.00  0.00    +0.000 NA
ATOM     29  H   UNL     1      50.482   5.854  18.910  0.00  0.00    +0.000 HD
ENDBRANCH  18  21
ENDBRANCH   5  18
TORSDOF 4
ENDMDL
MODEL 4
REMARK VINA RESULT:    -7.207      3.849      7.646
REMARK INTER + INTRA:          -9.329
REMARK INTER:                  -9.059
REMARK INTRA:                  -0.270
REMARK UNBOUND:                -0.437
REMARK  Name = 
REMARK  4 active torsions:
REMARK  status: ('A' for Active; 'I' for Inactive)
REMARK    1  A    between atoms: C_2  and  C_4
REMARK    2  A    between atoms: C_7  and  C_8
REMARK    3  A    between atoms: C_12  and  C_13
REMARK    4  A    between atoms: C_13  and  N_14
REMARK                            x       y       z     vdW  Elec       q    Type
REMARK                         _______ _______ _______ _____ _____    ______ ____
ROOT
ATOM      1  C   UNL     1      48.411   6.770  13.214  0.00  0.00    +0.000 A 
ATOM      2  N   UNL     1      49.189   7.289  12.248  0.00  0.00    +0.000 NA
ATOM      3  C   UNL     1      50.271   7.972  12.663  0.00  0.00    +0.000 A 
ATOM      4  C   UNL     1      50.612   8.131  13.986  0.00  0.00    +0.000 A 
ATOM      5  C   UNL     1      49.779   7.539  14.918  0.00  0.00    +0.000 A 
ATOM      6  N   UNL     1      48.662   6.884  14.527  0.00  0.00    +0.000 NA
ENDROOT
BRANCH   1  10
ATOM      7  C   UNL     1      45.046   4.416  12.192  0.00  0.00    +0.000 A 
ATOM      8  C   UNL     1      45.395   5.449  11.336  0.00  0.00    +0.000 A 
ATOM      9  C   UNL     1      46.497   6.239  11.667  0.00  0.00    +0.000 A 
ATOM     10  C   UNL     1      47.233   5.985  12.833  0.00  0.00    +0.000 A 
ATOM     11  C   UNL     1      46.788   4.913  13.616  0.00  0.00    +0.000 A 
ATOM     12  N   UNL     1      45.716   4.125  13.338  0.00  0.00    +0.000 NA
BRANCH   7  14
ATOM     13  N   UNL     1      43.809   2.359  12.531  0.00  0.00    +0.000 N 
ATOM     14  C   UNL     1      43.860   3.557  11.876  0.00  0.00    +0.000 C 
ATOM     15  O   UNL     1      42.985   3.903  11.092  0.00  0.00    +0.000 OA
ATOM     16  H   UNL     1      43.020   1.747  12.385  0.00  0.00    +0.000 HD
ATOM     17  H   UNL     1      44.534   2.121  13.199  0.00  0.00    +0.000 HD
ENDBRANCH   7  14
ENDBRANCH   1  10
BRANCH   5  18
ATOM     18  C   UNL     1      50.094   7.554  16.419  0.00  0.00    +0.000 C 
ATOM     19  C   UNL     1      49.661   8.766  17.222  0.00  0.00    +0.000 C 
ATOM     20  C   UNL     1      51.102   8.612  16.874  0.00  0.00    +0.000 C 
BRANCH  18  21
ATOM     21  N   UNL     1      50.323   6.219  17.006  0.00  0.00    +0.000 N 
ATOM     22  C   UNL     1      49.330   5.249  17.154  0.00  0.00    +0.000 A 
ATOM     23  C   UNL     1      48.043   5.541  17.595  0.00  0.00    +0.000 A 
ATOM     24  C   UNL     1      47.144   4.500  17.831  0.00  0.00    +0.000 A 
ATOM     25  C   UNL     1      47.558   3.199  17.611  0.00  0.00    +0.000 A 
ATOM     26  F   UNL     1      46.727   2.175  17.842  0.00  0.00    +0.000 F 
ATOM     27  C   UNL     1      48.843   2.983  17.160  0.00  0.00    +0.000 A 
ATOM     28  N   UNL     1      49.734   3.978  16.931  0.00  0.00    +0.000 NA
ATOM     29  H   UNL     1      51.142   5.730  16.645  0.00  0.00    +0.000 HD
ENDBRANCH  18  21
ENDBRANCH   5  18
TORSDOF 4
ENDMDL
MODEL 5
REMARK VINA RESULT:    -6.988      1.848      2.608
REMARK INTER + INTRA:          -9.059
REMARK INTER:                  -8.283
REMARK INTRA:                  -0.777
REMARK UNBOUND:                -0.437
REMARK  Name = 
REMARK  4 active torsions:
REMARK  status: ('A' for Active; 'I' for Inactive)
REMARK    1  A    between atoms: C_2  and  C_4
REMARK    2  A    between atoms: C_7  and  C_8
REMARK    3  A    between atoms: C_12  and  C_13
REMARK    4  A    between atoms: C_13  and  N_14
REMARK                            x       y       z     vdW  Elec       q    Type
REMARK                         _______ _______ _______ _____ _____    ______ ____
ROOT
ATOM      1  C   UNL     1      48.131   6.394  14.164  0.00  0.00    +0.000 A 
ATOM      2  N   UNL     1      49.259   6.629  13.470  0.00  0.00    +0.000 NA
ATOM      3  C   UNL     1      49.103   7.189  12.258  0.00  0.00    +0.000 A 
ATOM      4  C   UNL     1      47.881   7.542  11.733  0.00  0.00    +0.000 A 
ATOM      5  C   UNL     1      46.771   7.297  12.521  0.00  0.00    +0.000 A 
ATOM      6  N   UNL     1      46.900   6.695  13.725  0.00  0.00    +0.000 NA
ENDROOT
BRANCH   1  10
ATOM      7  C   UNL     1      48.525   4.787  18.058  0.00  0.00    +0.000 A 
ATOM      8  C   UNL     1      47.650   4.156  17.186  0.00  0.00    +0.000 A 
ATOM      9  C   UNL     1      47.504   4.682  15.901  0.00  0.00    +0.000 A 
ATOM     10  C   UNL     1      48.231   5.815  15.507  0.00  0.00    +0.000 A 
ATOM     11  C   UNL     1      49.086   6.360  16.473  0.00  0.00    +0.000 A 
ATOM     12  N   UNL     1      49.251   5.888  17.736  0.00  0.00    +0.000 NA
BRANCH   7  14
ATOM     13  N   UNL     1      48.305   2.962  19.639  0.00  0.00    +0.000 N 
ATOM     14  C   UNL     1      48.695   4.257  19.450  0.00  0.00    +0.000 C 
ATOM     15  O   UNL     1      49.162   4.931  20.360  0.00  0.00    +0.000 OA
ATOM     16  H   UNL     1      48.422   2.535  20.546  0.00  0.00    +0.000 HD
ATOM     17  H   UNL     1      47.954   2.423  18.854  0.00  0.00    +0.000 HD
ENDBRANCH   7  14
ENDBRANCH   1  10
BRANCH   5  18
ATOM     18  C   UNL     1      45.361   7.729  12.100  0.00  0.00    +0.000 C 
ATOM     19  C   UNL     1      45.232   8.942  11.199  0.00  0.00    +0.000 C 
ATOM     20  C   UNL     1      44.893   9.081  12.644  0.00  0.00    +0.000 C 
BRANCH  18  21
ATOM     21  N   UNL     1      44.344   6.664  12.193  0.00  0.00    +0.000 N 
ATOM     22  C   UNL     1      44.423   5.445  11.516  0.00  0.00    +0.000 A 
ATOM     23  C   UNL     1      44.833   5.339  10.190  0.00  0.00    +0.000 A 
ATOM     24  C   UNL     1      44.771   4.101   9.548  0.00  0.00    +0.000 A 
ATOM     25  C   UNL     1      44.310   3.006  10.254  0.00  0.00    +0.000 A 
ATOM     26  F   UNL     1      44.222   1.807   9.666  0.00  0.00    +0.000 F 
ATOM     27  C   UNL     1      43.935   3.180  11.570  0.00  0.00    +0.000 A 
ATOM     28  N   UNL     1      43.981   4.373  12.211  0.00  0.00    +0.000 NA
ATOM     29  H   UNL     1      44.049   6.437  13.144  0.00  0.00    +0.000 HD
ENDBRANCH  18  21
ENDBRANCH   5  18
TORSDOF 4
ENDMDL
MODEL 6
REMARK VINA RESULT:    -6.742      4.661      9.181
REMARK INTER + INTRA:          -8.756
REMARK INTER:                  -7.989
REMARK INTRA:                  -0.766
REMARK UNBOUND:                -0.437
REMARK  Name = 
REMARK  4 active torsions:
REMARK  status: ('A' for Active; 'I' for Inactive)
REMARK    1  A    between atoms: C_2  and  C_4
REMARK    2  A    between atoms: C_7  and  C_8
REMARK    3  A    between atoms: C_12  and  C_13
REMARK    4  A    between atoms: C_13  and  N_14
REMARK                            x       y       z     vdW  Elec       q    Type
REMARK                         _______ _______ _______ _____ _____    ______ ____
ROOT
ATOM      1  C   UNL     1      47.423   4.335  15.535  0.00  0.00    +0.000 A 
ATOM      2  N   UNL     1      46.914   3.444  16.404  0.00  0.00    +0.000 NA
ATOM      3  C   UNL     1      47.512   3.380  17.606  0.00  0.00    +0.000 A 
ATOM      4  C   UNL     1      48.568   4.181  17.977  0.00  0.00    +0.000 A 
ATOM      5  C   UNL     1      49.014   5.094  17.039  0.00  0.00    +0.000 A 
ATOM      6  N   UNL     1      48.456   5.147  15.808  0.00  0.00    +0.000 NA
ENDROOT
BRANCH   1  10
ATOM      7  C   UNL     1      45.612   4.876  11.750  0.00  0.00    +0.000 A 
ATOM      8  C   UNL     1      45.646   3.592  12.271  0.00  0.00    +0.000 A 
ATOM      9  C   UNL     1      46.250   3.398  13.515  0.00  0.00    +0.000 A 
ATOM     10  C   UNL     1      46.799   4.480  14.218  0.00  0.00    +0.000 A 
ATOM     11  C   UNL     1      46.699   5.729  13.592  0.00  0.00    +0.000 A 
ATOM     12  N   UNL     1      46.131   5.962  12.381  0.00  0.00    +0.000 NA
BRANCH   7  14
ATOM     13  N   UNL     1      43.643   5.376  10.427  0.00  0.00    +0.000 N 
ATOM     14  C   UNL     1      44.984   5.118  10.411  0.00  0.00    +0.000 C 
ATOM     15  O   UNL     1      45.627   5.099   9.368  0.00  0.00    +0.000 OA
ATOM     16  H   UNL     1      43.165   5.576   9.561  0.00  0.00    +0.000 HD
ATOM     17  H   UNL     1      43.150   5.416  11.313  0.00  0.00    +0.000 HD
ENDBRANCH   7  14
ENDBRANCH   1  10
BRANCH   5  18
ATOM     18  C   UNL     1      50.117   6.113  17.353  0.00  0.00    +0.000 C 
ATOM     19  C   UNL     1      50.897   6.694  16.190  0.00  0.00    +0.000 C 
ATOM     20  C   UNL     1      51.545   5.659  17.044  0.00  0.00    +0.000 C 
BRANCH  18  21
ATOM     21  N   UNL     1      49.972   6.783  18.660  0.00  0.00    +0.000 N 
ATOM     22  C   UNL     1      48.923   7.645  18.986  0.00  0.00    +0.000 A 
ATOM     23  C   UNL     1      48.436   8.612  18.111  0.00  0.00    +0.000 A 
ATOM     24  C   UNL     1      47.467   9.514  18.552  0.00  0.00    +0.000 A 
ATOM     25  C   UNL     1      47.010   9.417  19.853  0.00  0.00    +0.000 A 
ATOM     26  F   UNL     1      46.093  10.276  20.316  0.00  0.00    +0.000 F 
ATOM     27  C   UNL     1      47.525   8.426  20.662  0.00  0.00    +0.000 A 
ATOM     28  N   UNL     1      48.471   7.544  20.255  0.00  0.00    +0.000 NA
ATOM     29  H   UNL     1      50.093   6.171  19.469  0.00  0.00    +0.000 HD
ENDBRANCH  18  21
ENDBRANCH   5  18
TORSDOF 4
ENDMDL
MODEL 7
REMARK VINA RESULT:    -6.582      4.015      8.320
REMARK INTER + INTRA:          -8.558
REMARK INTER:                  -7.803
REMARK INTRA:                  -0.755
REMARK UNBOUND:                -0.437
REMARK  Name = 
REMARK  4 active torsions:
REMARK  status: ('A' for Active; 'I' for Inactive)
REMARK    1  A    between atoms: C_2  and  C_4
REMARK    2  A    between atoms: C_7  and  C_8
REMARK    3  A    between atoms: C_12  and  C_13
REMARK    4  A    between atoms: C_13  and  N_14
REMARK                            x       y       z     vdW  Elec       q    Type
REMARK                         _______ _______ _______ _____ _____    ______ ____
ROOT
ATOM      1  C   UNL     1      47.521   4.044  15.045  0.00  0.00    +0.000 A 
ATOM      2  N   UNL     1      47.851   2.771  15.326  0.00  0.00    +0.000 NA
ATOM      3  C   UNL     1      48.530   2.574  16.470  0.00  0.00    +0.000 A 
ATOM      4  C   UNL     1      48.864   3.584  17.342  0.00  0.00    +0.000 A 
ATOM      5  C   UNL     1      48.461   4.862  16.998  0.00  0.00    +0.000 A 
ATOM      6  N   UNL     1      47.814   5.090  15.832  0.00  0.00    +0.000 NA
ENDROOT
BRANCH   1  10
ATOM      7  C   UNL     1      45.294   4.738  11.515  0.00  0.00    +0.000 A 
ATOM      8  C   UNL     1      45.943   5.819  12.091  0.00  0.00    +0.000 A 
ATOM      9  C   UNL     1      46.673   5.605  13.261  0.00  0.00    +0.000 A 
ATOM     10  C   UNL     1      46.751   4.326  13.831  0.00  0.00    +0.000 A 
ATOM     11  C   UNL     1      46.057   3.313  13.156  0.00  0.00    +0.000 A 
ATOM     12  N   UNL     1      45.327   3.478  12.022  0.00  0.00    +0.000 NA
BRANCH   7  14
ATOM     13  N   UNL     1      45.206   4.959   9.102  0.00  0.00    +0.000 N 
ATOM     14  C   UNL     1      44.490   4.934  10.266  0.00  0.00    +0.000 C 
ATOM     15  O   UNL     1      43.270   5.052  10.278  0.00  0.00    +0.000 OA
ATOM     16  H   UNL     1      44.720   5.059   8.223  0.00  0.00    +0.000 HD
ATOM     17  H   UNL     1      46.210   4.825   9.128  0.00  0.00    +0.000 HD
ENDBRANCH   7  14
ENDBRANCH   1  10
BRANCH   5  18
ATOM     18  C   UNL     1      48.680   6.063  17.925  0.00  0.00    +0.000 C 
ATOM     19  C   UNL     1      48.776   5.799  19.416  0.00  0.00    +0.000 C 
ATOM     20  C   UNL     1      47.522   6.391  18.871  0.00  0.00    +0.000 C 
BRANCH  18  21
ATOM     21  N   UNL     1      49.263   7.246  17.262  0.00  0.00    +0.000 N 
ATOM     22  C   UNL     1      50.459   7.229  16.542  0.00  0.00    +0.000 A 
ATOM     23  C   UNL     1      51.596   6.550  16.973  0.00  0.00    +0.000 A 
ATOM     24  C   UNL     1      52.787   6.679  16.258  0.00  0.00    +0.000 A 
ATOM     25  C   UNL     1      52.803   7.477  15.129  0.00  0.00    +0.000 A 
ATOM     26  F   UNL     1      53.932   7.637  14.428  0.00  0.00    +0.000 F 
ATOM     27  C   UNL     1      51.637   8.108  14.750  0.00  0.00    +0.000 A 
ATOM     28  N   UNL     1      50.472   8.002  15.433  0.00  0.00    +0.000 NA
ATOM     29  H   UNL     1      48.605   7.787  16.700  0.00  0.00    +0.000 HD
ENDBRANCH  18  21
ENDBRANCH   5  18
TORSDOF 4
ENDMDL
MODEL 8
REMARK VINA RESULT:    -6.468      4.770      7.399
REMARK INTER + INTRA:          -8.418
REMARK INTER:                  -7.649
REMARK INTRA:                  -0.769
REMARK UNBOUND:                -0.437
REMARK  Name = 
REMARK  4 active torsions:
REMARK  status: ('A' for Active; 'I' for Inactive)
REMARK    1  A    between atoms: C_2  and  C_4
REMARK    2  A    between atoms: C_7  and  C_8
REMARK    3  A    between atoms: C_12  and  C_13
REMARK    4  A    between atoms: C_13  and  N_14
REMARK                            x       y       z     vdW  Elec       q    Type
REMARK                         _______ _______ _______ _____ _____    ______ ____
ROOT
ATOM      1  C   UNL     1      48.315   6.473  13.635  0.00  0.00    +0.000 A 
ATOM      2  N   UNL     1      48.739   6.246  14.891  0.00  0.00    +0.000 NA
ATOM      3  C   UNL     1      49.775   6.993  15.311  0.00  0.00    +0.000 A 
ATOM      4  C   UNL     1      50.377   7.962  14.542  0.00  0.00    +0.000 A 
ATOM      5  C   UNL     1      49.863   8.158  13.273  0.00  0.00    +0.000 A 
ATOM      6  N   UNL     1      48.849   7.389  12.814  0.00  0.00    +0.000 NA
ENDROOT
BRANCH   1  10
ATOM      7  C   UNL     1      45.037   4.194  12.232  0.00  0.00    +0.000 A 
ATOM      8  C   UNL     1      45.385   5.332  11.519  0.00  0.00    +0.000 A 
ATOM      9  C   UNL     1      46.458   6.097  11.977  0.00  0.00    +0.000 A 
ATOM     10  C   UNL     1      47.168   5.717  13.125  0.00  0.00    +0.000 A 
ATOM     11  C   UNL     1      46.727   4.548  13.757  0.00  0.00    +0.000 A 
ATOM     12  N   UNL     1      45.682   3.779  13.353  0.00  0.00    +0.000 NA
BRANCH   7  14
ATOM     13  N   UNL     1      43.711   2.177  12.444  0.00  0.00    +0.000 N 
ATOM     14  C   UNL     1      43.881   3.357  11.777  0.00  0.00    +0.000 C 
ATOM     15  O   UNL     1      43.128   3.705  10.876  0.00  0.00    +0.000 OA
ATOM     16  H   UNL     1      42.933   1.580  12.206  0.00  0.00    +0.000 HD
ATOM     17  H   UNL     1      44.334   1.937  13.207  0.00  0.00    +0.000 HD
ENDBRANCH   7  14
ENDBRANCH   1  10
BRANCH   5  18
ATOM     18  C   UNL     1      50.374   9.270  12.349  0.00  0.00    +0.000 C 
ATOM     19  C   UNL     1      50.715  10.609  12.974  0.00  0.00    +0.000 C 
ATOM     20  C   UNL     1      49.451  10.482  12.196  0.00  0.00    +0.000 C 
BRANCH  18  21
ATOM     21  N   UNL     1      50.945   8.790  11.076  0.00  0.00    +0.000 N 
ATOM     22  C   UNL     1      52.098   8.008  10.981  0.00  0.00    +0.000 A 
ATOM     23  C   UNL     1      53.241   8.246  11.738  0.00  0.00    +0.000 A 
ATOM     24  C   UNL     1      54.393   7.495  11.500  0.00  0.00    +0.000 A 
ATOM     25  C   UNL     1      54.364   6.523  10.517  0.00  0.00    +0.000 A 
ATOM     26  F   UNL     1      55.455   5.795  10.250  0.00  0.00    +0.000 F 
ATOM     27  C   UNL     1      53.193   6.329   9.815  0.00  0.00    +0.000 A 
ATOM     28  N   UNL     1      52.065   7.052  10.026  0.00  0.00    +0.000 NA
ATOM     29  H   UNL     1      50.269   8.370  10.437  0.00  0.00    +0.000 HD
ENDBRANCH  18  21
ENDBRANCH   5  18
TORSDOF 4
ENDMDL
MODEL 9
REMARK VINA RESULT:    -6.387      4.069      7.961
REMARK INTER + INTRA:          -8.317
REMARK INTER:                  -7.834
REMARK INTRA:                  -0.483
REMARK UNBOUND:                -0.437
REMARK  Name = 
REMARK  4 active torsions:
REMARK  status: ('A' for Active; 'I' for Inactive)
REMARK    1  A    between atoms: C_2  and  C_4
REMARK    2  A    between atoms: C_7  and  C_8
REMARK    3  A    between atoms: C_12  and  C_13
REMARK    4  A    between atoms: C_13  and  N_14
REMARK                            x       y       z     vdW  Elec       q    Type
REMARK                         _______ _______ _______ _____ _____    ______ ____
ROOT
ATOM      1  C   UNL     1      46.678   7.649  12.419  0.00  0.00    +0.000 A 
ATOM      2  N   UNL     1      46.218   8.792  11.880  0.00  0.00    +0.000 NA
ATOM      3  C   UNL     1      46.884   9.912  12.210  0.00  0.00    +0.000 A 
ATOM      4  C   UNL     1      47.991   9.929  13.027  0.00  0.00    +0.000 A 
ATOM      5  C   UNL     1      48.422   8.709  13.516  0.00  0.00    +0.000 A 
ATOM      6  N   UNL     1      47.743   7.574  13.232  0.00  0.00    +0.000 NA
ENDROOT
BRANCH   1  10
ATOM      7  C   UNL     1      44.704   4.064  11.346  0.00  0.00    +0.000 A 
ATOM      8  C   UNL     1      45.473   4.056  12.499  0.00  0.00    +0.000 A 
ATOM      9  C   UNL     1      46.138   5.230  12.859  0.00  0.00    +0.000 A 
ATOM     10  C   UNL     1      46.020   6.386  12.074  0.00  0.00    +0.000 A 
ATOM     11  C   UNL     1      45.212   6.272  10.936  0.00  0.00    +0.000 A 
ATOM     12  N   UNL     1      44.557   5.149  10.542  0.00  0.00    +0.000 NA
BRANCH   7  14
ATOM     13  N   UNL     1      44.514   2.178   9.834  0.00  0.00    +0.000 N 
ATOM     14  C   UNL     1      43.989   2.817  10.922  0.00  0.00    +0.000 C 
ATOM     15  O   UNL     1      43.005   2.387  11.512  0.00  0.00    +0.000 OA
ATOM     16  H   UNL     1      44.097   1.316   9.516  0.00  0.00    +0.000 HD
ATOM     17  H   UNL     1      45.349   2.545   9.391  0.00  0.00    +0.000 HD
ENDBRANCH   7  14
ENDBRANCH   1  10
BRANCH   5  18
ATOM     18  C   UNL     1      49.698   8.572  14.355  0.00  0.00    +0.000 C 
ATOM     19  C   UNL     1      50.329   9.840  14.897  0.00  0.00    +0.000 C 
ATOM     20  C   UNL     1      50.967   9.161  13.734  0.00  0.00    +0.000 C 
BRANCH  18  21
ATOM     21  N   UNL     1      49.891   7.238  14.956  0.00  0.00    +0.000 N 
ATOM     22  C   UNL     1      49.225   6.790  16.099  0.00  0.00    +0.000 A 
ATOM     23  C   UNL     1      49.026   7.587  17.223  0.00  0.00    +0.000 A 
ATOM     24  C   UNL     1      48.457   7.031  18.369  0.00  0.00    +0.000 A 
ATOM     25  C   UNL     1      48.097   5.696  18.354  0.00  0.00    +0.000 A 
ATOM     26  F   UNL     1      47.564   5.124  19.440  0.00  0.00    +0.000 F 
ATOM     27  C   UNL     1      48.308   4.968  17.201  0.00  0.00    +0.000 A 
ATOM     28  N   UNL     1      48.865   5.487  16.079  0.00  0.00    +0.000 NA
ATOM     29  H   UNL     1      49.860   6.463  14.293  0.00  0.00    +0.000 HD
ENDBRANCH  18  21
ENDBRANCH   5  18
TORSDOF 4
ENDMDL
