MODEL 1
REMARK VINA RESULT:    -8.065      0.000      0.000
REMARK INTER + INTRA:         -10.512
REMARK INTER:                  -9.951
REMARK INTRA:                  -0.560
REMARK UNBOUND:                -0.560
REMARK  Name = 
REMARK  4 active torsions:
REMARK  status: ('A' for Active; 'I' for Inactive)
REMARK    1  A    between atoms: C_2  and  C_4
REMARK    2  A    between atoms: C_7  and  O_8
REMARK    3  A    between atoms: O_8  and  C_9
REMARK    4  A    between atoms: C_9  and  C_10
REMARK                            x       y       z     vdW  Elec       q    Type
REMARK                         _______ _______ _______ _____ _____    ______ ____
ROOT
ATOM      1  C   UNL     1      46.443   2.751   7.504  0.00  0.00    +0.000 A 
ATOM      2  C   UNL     1      46.047   4.081   7.713  0.00  0.00    +0.000 A 
ATOM      3  C   UNL     1      45.220   4.407   8.793  0.00  0.00    +0.000 A 
ATOM      4  C   UNL     1      44.763   3.401   9.640  0.00  0.00    +0.000 A 
ATOM      5  C   UNL     1      45.181   2.082   9.456  0.00  0.00    +0.000 A 
ATOM      6  C   UNL     1      46.012   1.754   8.383  0.00  0.00    +0.000 A 
ENDROOT
BRANCH   1   8
ATOM      7  N   UNL     1      47.256   3.163   5.242  0.00  0.00    +0.000 N 
ATOM      8  C   UNL     1      47.286   2.357   6.346  0.00  0.00    +0.000 C 
ATOM      9  O   UNL     1      48.002   1.365   6.378  0.00  0.00    +0.000 OA
ATOM     10  H   UNL     1      47.905   2.932   4.499  0.00  0.00    +0.000 HD
ATOM     11  H   UNL     1      46.891   4.106   5.266  0.00  0.00    +0.000 HD
ENDBRANCH   1   8
BRANCH   4  12
ATOM     12  O   UNL     1      43.918   3.621  10.693  0.00  0.00    +0.000 OA
BRANCH  12  13
ATOM     13  C   UNL     1      43.940   4.920  11.345  0.00  0.00    +0.000 C 
ATOM     14  C   UNL     1      42.721   5.099  12.249  0.00  0.00    +0.000 C 
ATOM     15  C   UNL     1      42.884   5.976  11.056  0.00  0.00    +0.000 C 
BRANCH  13  16
ATOM     16  C   UNL     1      45.287   5.346  11.911  0.00  0.00    +0.000 A 
ATOM     17  C   UNL     1      45.964   6.488  11.443  0.00  0.00    +0.000 A 
ATOM     18  C   UNL     1      47.161   6.919  12.026  0.00  0.00    +0.000 A 
ATOM     19  C   UNL     1      47.714   6.198  13.080  0.00  0.00    +0.000 A 
ATOM     20 CL   UNL     1      49.162   6.749  13.829  0.00  0.00    +0.000 Cl
ATOM     21  C   UNL     1      47.093   5.041  13.539  0.00  0.00    +0.000 A 
ATOM     22  C   UNL     1      45.894   4.622  12.954  0.00  0.00    +0.000 A 
ENDBRANCH  13  16
ENDBRANCH  12  13
ENDBRANCH   4  12
TORSDOF 4
ENDMDL
MODEL 2
REMARK VINA RESULT:    -6.912      3.697      6.176
REMARK INTER + INTRA:          -9.089
REMARK INTER:                  -8.627
REMARK INTRA:                  -0.462
REMARK UNBOUND:                -0.560
REMARK  Name = 
REMARK  4 active torsions:
REMARK  status: ('A' for Active; 'I' for Inactive)
REMARK    1  A    between atoms: C_2  and  C_4
REMARK    2  A    between atoms: C_7  and  O_8
REMARK    3  A    between atoms: O_8  and  C_9
REMARK    4  A    between atoms: C_9  and  C_10
REMARK                            x       y       z     vdW  Elec       q    Type
REMARK                         _______ _______ _______ _____ _____    ______ ____
ROOT
ATOM      1  C   UNL     1      48.189   6.648  13.460  0.00  0.00    +0.000 A 
ATOM      2  C   UNL     1      47.313   5.704  14.016  0.00  0.00    +0.000 A 
ATOM      3  C   UNL     1      46.161   5.319  13.323  0.00  0.00    +0.000 A 
ATOM      4  C   UNL     1      45.869   5.902  12.093  0.00  0.00    +0.000 A 
ATOM      5  C   UNL     1      46.754   6.816  11.520  0.00  0.00    +0.000 A 
ATOM      6  C   UNL     1      47.909   7.198  12.206  0.00  0.00    +0.000 A 
ENDROOT
BRANCH   1   8
ATOM      7  N   UNL     1      50.077   8.180  13.656  0.00  0.00    +0.000 N 
ATOM      8  C   UNL     1      49.401   7.115  14.182  0.00  0.00    +0.000 C 
ATOM      9  O   UNL     1      49.773   6.587  15.222  0.00  0.00    +0.000 OA
ATOM     10  H   UNL     1      50.844   8.542  14.209  0.00  0.00    +0.000 HD
ATOM     11  H   UNL     1      49.670   8.793  12.963  0.00  0.00    +0.000 HD
ENDBRANCH   1   8
BRANCH   4  12
ATOM     12  O   UNL     1      44.745   5.618  11.366  0.00  0.00    +0.000 OA
BRANCH  12  13
ATOM     13  C   UNL     1      44.451   4.231  11.049  0.00  0.00    +0.000 C 
ATOM     14  C   UNL     1      42.973   3.918  11.277  0.00  0.00    +0.000 C 
ATOM     15  C   UNL     1      44.002   3.246  12.118  0.00  0.00    +0.000 C 
BRANCH  13  16
ATOM     16  C   UNL     1      45.078   3.705   9.766  0.00  0.00    +0.000 A 
ATOM     17  C   UNL     1      45.573   4.569   8.770  0.00  0.00    +0.000 A 
ATOM     18  C   UNL     1      46.222   4.077   7.633  0.00  0.00    +0.000 A 
ATOM     19  C   UNL     1      46.371   2.705   7.461  0.00  0.00    +0.000 A 
ATOM     20 CL   UNL     1      47.208   2.098   6.086  0.00  0.00    +0.000 Cl
ATOM     21  C   UNL     1      45.856   1.822   8.405  0.00  0.00    +0.000 A 
ATOM     22  C   UNL     1      45.214   2.323   9.543  0.00  0.00    +0.000 A 
ENDBRANCH  13  16
ENDBRANCH  12  13
ENDBRANCH   4  12
TORSDOF 4
ENDMDL
MODEL 3
REMARK VINA RESULT:    -6.695      4.049      6.539
REMARK INTER + INTRA:          -8.821
REMARK INTER:                  -8.500
REMARK INTRA:                  -0.320
REMARK UNBOUND:                -0.560
REMARK  Name = 
REMARK  4 active torsions:
REMARK  status: ('A' for Active; 'I' for Inactive)
REMARK    1  A    between atoms: C_2  and  C_4
REMARK    2  A    between atoms: C_7  and  O_8
REMARK    3  A    between atoms: O_8  and  C_9
REMARK    4  A    between atoms: C_9  and  C_10
REMARK                            x       y       z     vdW  Elec       q    Type
REMARK                         _______ _______ _______ _____ _____    ______ ____
ROOT
ATOM      1  C   UNL     1      47.454   4.857  15.007  0.00  0.00    +0.000 A 
ATOM      2  C   UNL     1      46.802   3.803  14.348  0.00  0.00    +0.000 A 
ATOM      3  C   UNL     1      46.163   4.027  13.124  0.00  0.00    +0.000 A 
ATOM      4  C   UNL     1      46.146   5.308  12.578  0.00  0.00    +0.000 A 
ATOM      5  C   UNL     1      46.822   6.351  13.213  0.00  0.00    +0.000 A 
ATOM      6  C   UNL     1      47.467   6.131  14.432  0.00  0.00    +0.000 A 
ENDROOT
BRANCH   1   8
ATOM      7  N   UNL     1      47.763   5.535  17.329  0.00  0.00    +0.000 N 
ATOM      8  C   UNL     1      48.108   4.671  16.328  0.00  0.00    +0.000 C 
ATOM      9  O   UNL     1      48.907   3.766  16.527  0.00  0.00    +0.000 OA
ATOM     10  H   UNL     1      48.147   5.337  18.245  0.00  0.00    +0.000 HD
ATOM     11  H   UNL     1      46.938   6.117  17.285  0.00  0.00    +0.000 HD
ENDBRANCH   1   8
BRANCH   4  12
ATOM     12  O   UNL     1      45.510   5.626  11.410  0.00  0.00    +0.000 OA
BRANCH  12  13
ATOM     13  C   UNL     1      44.634   4.640  10.801  0.00  0.00    +0.000 C 
ATOM     14  C   UNL     1      43.215   5.185  10.654  0.00  0.00    +0.000 C 
ATOM     15  C   UNL     1      43.466   4.032  11.563  0.00  0.00    +0.000 C 
BRANCH  13  16
ATOM     16  C   UNL     1      45.215   3.896   9.607  0.00  0.00    +0.000 A 
ATOM     17  C   UNL     1      45.837   4.571   8.539  0.00  0.00    +0.000 A 
ATOM     18  C   UNL     1      46.441   3.875   7.488  0.00  0.00    +0.000 A 
ATOM     19  C   UNL     1      46.417   2.485   7.475  0.00  0.00    +0.000 A 
ATOM     20 CL   UNL     1      47.198   1.624   6.207  0.00  0.00    +0.000 Cl
ATOM     21  C   UNL     1      45.775   1.787   8.493  0.00  0.00    +0.000 A 
ATOM     22  C   UNL     1      45.179   2.491   9.544  0.00  0.00    +0.000 A 
ENDBRANCH  13  16
ENDBRANCH  12  13
ENDBRANCH   4  12
TORSDOF 4
ENDMDL
MODEL 4
REMARK VINA RESULT:    -5.705      3.335      5.159
REMARK INTER + INTRA:          -7.599
REMARK INTER:                  -6.907
REMARK INTRA:                  -0.692
REMARK UNBOUND:                -0.560
REMARK  Name = 
REMARK  4 active torsions:
REMARK  status: ('A' for Active; 'I' for Inactive)
REMARK    1  A    between atoms: C_2  and  C_4
REMARK    2  A    between atoms: C_7  and  O_8
REMARK    3  A    between atoms: O_8  and  C_9
REMARK    4  A    between atoms: C_9  and  C_10
REMARK                            x       y       z     vdW  Elec       q    Type
REMARK                         _______ _______ _______ _____ _____    ______ ____
ROOT
ATOM      1  C   UNL     1      44.575   4.185  11.570  0.00  0.00    +0.000 A 
ATOM      2  C   UNL     1      45.034   4.350  12.886  0.00  0.00    +0.000 A 
ATOM      3  C   UNL     1      45.607   5.561  13.285  0.00  0.00    +0.000 A 
ATOM      4  C   UNL     1      45.753   6.593  12.362  0.00  0.00    +0.000 A 
ATOM      5  C   UNL     1      45.268   6.445  11.061  0.00  0.00    +0.000 A 
ATOM      6  C   UNL     1      44.689   5.240  10.661  0.00  0.00    +0.000 A 
ENDROOT
BRANCH   1   8
ATOM      7  N   UNL     1      44.616   2.282  10.045  0.00  0.00    +0.000 N 
ATOM      8  C   UNL     1      43.999   2.901  11.096  0.00  0.00    +0.000 C 
ATOM      9  O   UNL     1      43.023   2.395  11.635  0.00  0.00    +0.000 OA
ATOM     10  H   UNL     1      44.267   1.366   9.795  0.00  0.00    +0.000 HD
ATOM     11  H   UNL     1      45.551   2.524   9.745  0.00  0.00    +0.000 HD
ENDBRANCH   1   8
BRANCH   4  12
ATOM     12  O   UNL     1      46.340   7.793  12.651  0.00  0.00    +0.000 OA
BRANCH  12  13
ATOM     13  C   UNL     1      47.775   7.832  12.876  0.00  0.00    +0.000 C 
ATOM     14  C   UNL     1      48.449   8.833  11.939  0.00  0.00    +0.000 C 
ATOM     15  C   UNL     1      48.762   7.383  11.808  0.00  0.00    +0.000 C 
BRANCH  13  16
ATOM     16  C   UNL     1      48.210   7.850  14.334  0.00  0.00    +0.000 A 
ATOM     17  C   UNL     1      48.057   8.992  15.143  0.00  0.00    +0.000 A 
ATOM     18  C   UNL     1      48.382   8.973  16.504  0.00  0.00    +0.000 A 
ATOM     19  C   UNL     1      48.888   7.811  17.076  0.00  0.00    +0.000 A 
ATOM     20 CL   UNL     1      49.247   7.769  18.759  0.00  0.00    +0.000 Cl
ATOM     21  C   UNL     1      49.092   6.677  16.296  0.00  0.00    +0.000 A 
ATOM     22  C   UNL     1      48.757   6.703  14.938  0.00  0.00    +0.000 A 
ENDBRANCH  13  16
ENDBRANCH  12  13
ENDBRANCH   4  12
TORSDOF 4
ENDMDL
MODEL 5
REMARK VINA RESULT:    -5.535      4.138      6.164
REMARK INTER + INTRA:          -7.389
REMARK INTER:                  -6.707
REMARK INTRA:                  -0.682
REMARK UNBOUND:                -0.560
REMARK  Name = 
REMARK  4 active torsions:
REMARK  status: ('A' for Active; 'I' for Inactive)
REMARK    1  A    between atoms: C_2  and  C_4
REMARK    2  A    between atoms: C_7  and  O_8
REMARK    3  A    between atoms: O_8  and  C_9
REMARK    4  A    between atoms: C_9  and  C_10
REMARK                            x       y       z     vdW  Elec       q    Type
REMARK                         _______ _______ _______ _____ _____    ______ ____
ROOT
ATOM      1  C   UNL     1      44.712   5.588  12.015  0.00  0.00    +0.000 A 
ATOM      2  C   UNL     1      45.229   4.852  13.093  0.00  0.00    +0.000 A 
ATOM      3  C   UNL     1      46.555   5.032  13.495  0.00  0.00    +0.000 A 
ATOM      4  C   UNL     1      47.373   5.920  12.801  0.00  0.00    +0.000 A 
ATOM      5  C   UNL     1      46.854   6.678  11.750  0.00  0.00    +0.000 A 
ATOM      6  C   UNL     1      45.527   6.506  11.349  0.00  0.00    +0.000 A 
ENDROOT
BRANCH   1   8
ATOM      7  N   UNL     1      42.604   6.515  11.210  0.00  0.00    +0.000 N 
ATOM      8  C   UNL     1      43.320   5.395  11.530  0.00  0.00    +0.000 C 
ATOM      9  O   UNL     1      42.834   4.280  11.397  0.00  0.00    +0.000 OA
ATOM     10  H   UNL     1      41.694   6.362  10.794  0.00  0.00    +0.000 HD
ATOM     11  H   UNL     1      43.040   7.415  11.061  0.00  0.00    +0.000 HD
ENDBRANCH   1   8
BRANCH   4  12
ATOM     12  O   UNL     1      48.692   6.127  13.096  0.00  0.00    +0.000 OA
BRANCH  12  13
ATOM     13  C   UNL     1      49.092   7.417  13.633  0.00  0.00    +0.000 C 
ATOM     14  C   UNL     1      49.874   7.250  14.934  0.00  0.00    +0.000 C 
ATOM     15  C   UNL     1      48.551   7.932  14.958  0.00  0.00    +0.000 C 
BRANCH  13  16
ATOM     16  C   UNL     1      49.646   8.406  12.617  0.00  0.00    +0.000 A 
ATOM     17  C   UNL     1      49.082   9.682  12.435  0.00  0.00    +0.000 A 
ATOM     18  C   UNL     1      49.649  10.614  11.559  0.00  0.00    +0.000 A 
ATOM     19  C   UNL     1      50.785  10.276  10.832  0.00  0.00    +0.000 A 
ATOM     20 CL   UNL     1      51.511  11.435   9.788  0.00  0.00    +0.000 Cl
ATOM     21  C   UNL     1      51.344   9.008  10.956  0.00  0.00    +0.000 A 
ATOM     22  C   UNL     1      50.774   8.085  11.839  0.00  0.00    +0.000 A 
ENDBRANCH  13  16
ENDBRANCH  12  13
ENDBRANCH   4  12
TORSDOF 4
ENDMDL
MODEL 6
REMARK VINA RESULT:    -5.178      5.532      8.436
REMARK INTER + INTRA:          -6.949
REMARK INTER:                  -6.401
REMARK INTRA:                  -0.548
REMARK UNBOUND:                -0.560
REMARK  Name = 
REMARK  4 active torsions:
REMARK  status: ('A' for Active; 'I' for Inactive)
REMARK    1  A    between atoms: C_2  and  C_4
REMARK    2  A    between atoms: C_7  and  O_8
REMARK    3  A    between atoms: O_8  and  C_9
REMARK    4  A    between atoms: C_9  and  C_10
REMARK                            x       y       z     vdW  Elec       q    Type
REMARK                         _______ _______ _______ _____ _____    ______ ____
ROOT
ATOM      1  C   UNL     1      48.243   5.472  18.414  0.00  0.00    +0.000 A 
ATOM      2  C   UNL     1      47.727   4.494  17.550  0.00  0.00    +0.000 A 
ATOM      3  C   UNL     1      47.838   4.650  16.165  0.00  0.00    +0.000 A 
ATOM      4  C   UNL     1      48.434   5.796  15.645  0.00  0.00    +0.000 A 
ATOM      5  C   UNL     1      48.978   6.755  16.501  0.00  0.00    +0.000 A 
ATOM      6  C   UNL     1      48.875   6.600  17.885  0.00  0.00    +0.000 A 
ENDROOT
BRANCH   1   8
ATOM      7  N   UNL     1      46.988   5.900  20.461  0.00  0.00    +0.000 N 
ATOM      8  C   UNL     1      48.108   5.364  19.890  0.00  0.00    +0.000 C 
ATOM      9  O   UNL     1      48.950   4.797  20.573  0.00  0.00    +0.000 OA
ATOM     10  H   UNL     1      46.868   5.737  21.453  0.00  0.00    +0.000 HD
ATOM     11  H   UNL     1      46.166   6.141  19.924  0.00  0.00    +0.000 HD
ENDBRANCH   1   8
BRANCH   4  12
ATOM     12  O   UNL     1      48.547   6.053  14.306  0.00  0.00    +0.000 OA
BRANCH  12  13
ATOM     13  C   UNL     1      47.402   6.607  13.603  0.00  0.00    +0.000 C 
ATOM     14  C   UNL     1      47.848   7.592  12.524  0.00  0.00    +0.000 C 
ATOM     15  C   UNL     1      47.056   8.087  13.684  0.00  0.00    +0.000 C 
BRANCH  13  16
ATOM     16  C   UNL     1      46.321   5.607  13.221  0.00  0.00    +0.000 A 
ATOM     17  C   UNL     1      44.977   5.990  13.053  0.00  0.00    +0.000 A 
ATOM     18  C   UNL     1      44.006   5.081  12.620  0.00  0.00    +0.000 A 
ATOM     19  C   UNL     1      44.361   3.760  12.367  0.00  0.00    +0.000 A 
ATOM     20 CL   UNL     1      43.179   2.649  11.793  0.00  0.00    +0.000 Cl
ATOM     21  C   UNL     1      45.671   3.337  12.564  0.00  0.00    +0.000 A 
ATOM     22  C   UNL     1      46.637   4.255  12.991  0.00  0.00    +0.000 A 
ENDBRANCH  13  16
ENDBRANCH  12  13
ENDBRANCH   4  12
TORSDOF 4
ENDMDL
