MODEL 1
REMARK VINA RESULT:    -7.949      0.000      0.000
REMARK INTER + INTRA:         -10.773
REMARK INTER:                 -10.273
REMARK INTRA:                  -0.500
REMARK UNBOUND:                -0.500
REMARK  Name = 
REMARK  6 active torsions:
REMARK  status: ('A' for Active; 'I' for Inactive)
REMARK    1  A    between atoms: C_1  and  O_2
REMARK    2  A    between atoms: O_2  and  C_3
REMARK    3  A    between atoms: C_5  and  C_6
REMARK    4  A    between atoms: N_11  and  C_12
REMARK    5  A    between atoms: C_12  and  C_13
REMARK    6  A    between atoms: C_17  and  C_18
REMARK                            x       y       z     vdW  Elec       q    Type
REMARK                         _______ _______ _______ _____ _____    ______ ____
ROOT
ATOM      1  C   UNL     1      49.151   2.545  16.640  0.00  0.00    +0.000 A 
ATOM      2  C   UNL     1      49.026   3.335  17.746  0.00  0.00    +0.000 A 
ATOM      3  C   UNL     1      48.030   4.271  17.655  0.00  0.00    +0.000 A 
ATOM      4  N   UNL     1      47.214   4.426  16.580  0.00  0.00    +0.000 NA
ATOM      5  C   UNL     1      47.415   3.582  15.564  0.00  0.00    +0.000 A 
ATOM      6  N   UNL     1      46.600   3.620  14.444  0.00  0.00    +0.000 N 
ATOM      7  N   UNL     1      48.370   2.649  15.550  0.00  0.00    +0.000 NA
ATOM      8  H   UNL     1      47.074   3.104  13.710  0.00  0.00    +0.000 HD
ENDROOT
BRANCH   3   9
ATOM      9  C   UNL     1      47.794   5.198  18.804  0.00  0.00    +0.000 C 
ATOM     10  N   UNL     1      46.504   5.624  18.961  0.00  0.00    +0.000 N 
ATOM     11  O   UNL     1      48.689   5.559  19.556  0.00  0.00    +0.000 OA
ATOM     12  H   UNL     1      45.777   5.274  18.350  0.00  0.00    +0.000 HD
ATOM     13  H   UNL     1      46.270   6.225  19.740  0.00  0.00    +0.000 HD
ENDBRANCH   3   9
BRANCH   1  15
ATOM     14  C   UNL     1      51.318   2.036  17.360  0.00  0.00    +0.000 C 
ATOM     15  O   UNL     1      50.148   1.590  16.679  0.00  0.00    +0.000 OA
ENDBRANCH   1  15
BRANCH   6  16
ATOM     16  C   UNL     1      46.145   4.937  14.063  0.00  0.00    +0.000 C 
BRANCH  16  17
ATOM     17  C   UNL     1      45.234   4.840  12.858  0.00  0.00    +0.000 A 
ATOM     18  C   UNL     1      43.980   5.464  12.879  0.00  0.00    +0.000 A 
ATOM     19  C   UNL     1      43.159   5.435  11.756  0.00  0.00    +0.000 A 
ATOM     20  C   UNL     1      43.591   4.796  10.593  0.00  0.00    +0.000 A 
ATOM     21  C   UNL     1      44.848   4.168  10.524  0.00  0.00    +0.000 A 
ATOM     22  C   UNL     1      45.639   4.165  11.692  0.00  0.00    +0.000 A 
BRANCH  21  23
ATOM     23  C   UNL     1      45.352   3.598   9.259  0.00  0.00    +0.000 A 
ATOM     24  C   UNL     1      45.741   4.400   8.181  0.00  0.00    +0.000 A 
ATOM     25  N   UNL     1      46.243   3.912   7.018  0.00  0.00    +0.000 NA
ATOM     26  C   UNL     1      46.353   2.570   6.966  0.00  0.00    +0.000 A 
ATOM     27  C   UNL     1      45.980   1.758   8.023  0.00  0.00    +0.000 A 
ATOM     28  N   UNL     1      45.482   2.247   9.186  0.00  0.00    +0.000 NA
ENDBRANCH  21  23
ENDBRANCH  16  17
ENDBRANCH   6  16
TORSDOF 5
ENDMDL
MODEL 2
REMARK VINA RESULT:    -7.662      2.782      3.970
REMARK INTER + INTRA:         -10.401
REMARK INTER:                 -10.080
REMARK INTRA:                  -0.321
REMARK UNBOUND:                -0.500
REMARK  Name = 
REMARK  6 active torsions:
REMARK  status: ('A' for Active; 'I' for Inactive)
REMARK    1  A    between atoms: C_1  and  O_2
REMARK    2  A    between atoms: O_2  and  C_3
REMARK    3  A    between atoms: C_5  and  C_6
REMARK    4  A    between atoms: N_11  and  C_12
REMARK    5  A    between atoms: C_12  and  C_13
REMARK    6  A    between atoms: C_17  and  C_18
REMARK                            x       y       z     vdW  Elec       q    Type
REMARK                         _______ _______ _______ _____ _____    ______ ____
ROOT
ATOM      1  C   UNL     1      48.213   7.719  13.502  0.00  0.00    +0.000 A 
ATOM      2  C   UNL     1      48.283   6.634  14.327  0.00  0.00    +0.000 A 
ATOM      3  C   UNL     1      47.340   5.675  14.072  0.00  0.00    +0.000 A 
ATOM      4  N   UNL     1      46.404   5.755  13.092  0.00  0.00    +0.000 NA
ATOM      5  C   UNL     1      46.444   6.854  12.332  0.00  0.00    +0.000 A 
ATOM      6  N   UNL     1      45.569   7.007  11.269  0.00  0.00    +0.000 N 
ATOM      7  N   UNL     1      47.312   7.852  12.512  0.00  0.00    +0.000 NA
ATOM      8  H   UNL     1      45.585   7.987  11.005  0.00  0.00    +0.000 HD
ENDROOT
BRANCH   3   9
ATOM      9  C   UNL     1      47.315   4.437  14.911  0.00  0.00    +0.000 C 
ATOM     10  N   UNL     1      47.174   4.639  16.256  0.00  0.00    +0.000 N 
ATOM     11  O   UNL     1      47.416   3.314  14.435  0.00  0.00    +0.000 OA
ATOM     12  H   UNL     1      47.048   5.577  16.616  0.00  0.00    +0.000 HD
ATOM     13  H   UNL     1      47.115   3.843  16.875  0.00  0.00    +0.000 HD
ENDBRANCH   3   9
BRANCH   1  15
ATOM     14  C   UNL     1      50.480   8.296  13.498  0.00  0.00    +0.000 C 
ATOM     15  O   UNL     1      49.138   8.719  13.725  0.00  0.00    +0.000 OA
ENDBRANCH   1  15
BRANCH   6  16
ATOM     16  C   UNL     1      44.250   6.456  11.477  0.00  0.00    +0.000 C 
BRANCH  16  17
ATOM     17  C   UNL     1      44.236   4.991  11.095  0.00  0.00    +0.000 A 
ATOM     18  C   UNL     1      43.360   4.109  11.741  0.00  0.00    +0.000 A 
ATOM     19  C   UNL     1      43.294   2.773  11.358  0.00  0.00    +0.000 A 
ATOM     20  C   UNL     1      44.092   2.308  10.313  0.00  0.00    +0.000 A 
ATOM     21  C   UNL     1      44.977   3.161   9.628  0.00  0.00    +0.000 A 
ATOM     22  C   UNL     1      45.065   4.497  10.070  0.00  0.00    +0.000 A 
BRANCH  21  23
ATOM     23  C   UNL     1      45.731   2.696   8.447  0.00  0.00    +0.000 A 
ATOM     24  C   UNL     1      46.053   3.546   7.384  0.00  0.00    +0.000 A 
ATOM     25  N   UNL     1      46.775   3.163   6.301  0.00  0.00    +0.000 NA
ATOM     26  C   UNL     1      47.182   1.878   6.316  0.00  0.00    +0.000 A 
ATOM     27  C   UNL     1      46.880   1.021   7.360  0.00  0.00    +0.000 A 
ATOM     28  N   UNL     1      46.161   1.407   8.444  0.00  0.00    +0.000 NA
ENDBRANCH  21  23
ENDBRANCH  16  17
ENDBRANCH   6  16
TORSDOF 5
ENDMDL
MODEL 3
REMARK VINA RESULT:    -7.335      3.534      7.673
REMARK INTER + INTRA:          -9.979
REMARK INTER:                  -9.217
REMARK INTRA:                  -0.762
REMARK UNBOUND:                -0.500
REMARK  Name = 
REMARK  6 active torsions:
REMARK  status: ('A' for Active; 'I' for Inactive)
REMARK    1  A    between atoms: C_1  and  O_2
REMARK    2  A    between atoms: O_2  and  C_3
REMARK    3  A    between atoms: C_5  and  C_6
REMARK    4  A    between atoms: N_11  and  C_12
REMARK    5  A    between atoms: C_12  and  C_13
REMARK    6  A    between atoms: C_17  and  C_18
REMARK                            x       y       z     vdW  Elec       q    Type
REMARK                         _______ _______ _______ _____ _____    ______ ____
ROOT
ATOM      1  C   UNL     1      45.483   3.696   8.910  0.00  0.00    +0.000 A 
ATOM      2  C   UNL     1      44.807   2.836   9.726  0.00  0.00    +0.000 A 
ATOM      3  C   UNL     1      44.217   3.437  10.807  0.00  0.00    +0.000 A 
ATOM      4  N   UNL     1      44.273   4.767  11.074  0.00  0.00    +0.000 NA
ATOM      5  C   UNL     1      44.945   5.514  10.195  0.00  0.00    +0.000 A 
ATOM      6  N   UNL     1      45.013   6.890  10.345  0.00  0.00    +0.000 N 
ATOM      7  N   UNL     1      45.568   5.021   9.122  0.00  0.00    +0.000 NA
ATOM      8  H   UNL     1      45.765   7.221   9.750  0.00  0.00    +0.000 HD
ENDROOT
BRANCH   3   9
ATOM      9  C   UNL     1      43.447   2.598  11.776  0.00  0.00    +0.000 C 
ATOM     10  N   UNL     1      43.531   2.984  13.085  0.00  0.00    +0.000 N 
ATOM     11  O   UNL     1      42.785   1.629  11.430  0.00  0.00    +0.000 OA
ATOM     12  H   UNL     1      44.051   3.815  13.335  0.00  0.00    +0.000 HD
ATOM     13  H   UNL     1      43.006   2.480  13.787  0.00  0.00    +0.000 HD
ENDBRANCH   3   9
BRANCH   1  15
ATOM     14  C   UNL     1      46.401   1.754   7.983  0.00  0.00    +0.000 C 
ATOM     15  O   UNL     1      46.103   3.137   7.810  0.00  0.00    +0.000 OA
ENDBRANCH   1  15
BRANCH   6  16
ATOM     16  C   UNL     1      45.073   7.354  11.712  0.00  0.00    +0.000 C 
BRANCH  16  17
ATOM     17  C   UNL     1      46.434   7.054  12.301  0.00  0.00    +0.000 A 
ATOM     18  C   UNL     1      47.577   7.660  11.761  0.00  0.00    +0.000 A 
ATOM     19  C   UNL     1      48.827   7.442  12.331  0.00  0.00    +0.000 A 
ATOM     20  C   UNL     1      48.947   6.628  13.458  0.00  0.00    +0.000 A 
ATOM     21  C   UNL     1      47.825   6.010  14.040  0.00  0.00    +0.000 A 
ATOM     22  C   UNL     1      46.577   6.203  13.413  0.00  0.00    +0.000 A 
BRANCH  21  23
ATOM     23  C   UNL     1      47.937   5.248  15.300  0.00  0.00    +0.000 A 
ATOM     24  C   UNL     1      47.068   4.199  15.618  0.00  0.00    +0.000 A 
ATOM     25  N   UNL     1      47.164   3.454  16.748  0.00  0.00    +0.000 NA
ATOM     26  C   UNL     1      48.181   3.791  17.565  0.00  0.00    +0.000 A 
ATOM     27  C   UNL     1      49.057   4.821  17.267  0.00  0.00    +0.000 A 
ATOM     28  N   UNL     1      48.961   5.563  16.136  0.00  0.00    +0.000 NA
ENDBRANCH  21  23
ENDBRANCH  16  17
ENDBRANCH   6  16
TORSDOF 5
ENDMDL
MODEL 4
REMARK VINA RESULT:    -7.317      3.285      4.352
REMARK INTER + INTRA:          -9.955
REMARK INTER:                  -9.168
REMARK INTRA:                  -0.787
REMARK UNBOUND:                -0.500
REMARK  Name = 
REMARK  6 active torsions:
REMARK  status: ('A' for Active; 'I' for Inactive)
REMARK    1  A    between atoms: C_1  and  O_2
REMARK    2  A    between atoms: O_2  and  C_3
REMARK    3  A    between atoms: C_5  and  C_6
REMARK    4  A    between atoms: N_11  and  C_12
REMARK    5  A    between atoms: C_12  and  C_13
REMARK    6  A    between atoms: C_17  and  C_18
REMARK                            x       y       z     vdW  Elec       q    Type
REMARK                         _______ _______ _______ _____ _____    ______ ____
ROOT
ATOM      1  C   UNL     1      48.158   6.214  14.473  0.00  0.00    +0.000 A 
ATOM      2  C   UNL     1      49.085   6.855  13.703  0.00  0.00    +0.000 A 
ATOM      3  C   UNL     1      48.573   7.422  12.567  0.00  0.00    +0.000 A 
ATOM      4  N   UNL     1      47.264   7.379  12.206  0.00  0.00    +0.000 NA
ATOM      5  C   UNL     1      46.445   6.742  13.047  0.00  0.00    +0.000 A 
ATOM      6  N   UNL     1      45.082   6.689  12.799  0.00  0.00    +0.000 N 
ATOM      7  N   UNL     1      46.849   6.142  14.168  0.00  0.00    +0.000 NA
ATOM      8  H   UNL     1      44.698   5.959  13.388  0.00  0.00    +0.000 HD
ENDROOT
BRANCH   3   9
ATOM      9  C   UNL     1      49.491   8.154  11.641  0.00  0.00    +0.000 C 
ATOM     10  N   UNL     1      50.595   7.457  11.234  0.00  0.00    +0.000 N 
ATOM     11  O   UNL     1      49.279   9.300  11.270  0.00  0.00    +0.000 OA
ATOM     12  H   UNL     1      50.721   6.495  11.523  0.00  0.00    +0.000 HD
ATOM     13  H   UNL     1      51.238   7.881  10.580  0.00  0.00    +0.000 HD
ENDBRANCH   3   9
BRANCH   1  15
ATOM     14  C   UNL     1      47.693   4.701  16.196  0.00  0.00    +0.000 C 
ATOM     15  O   UNL     1      48.626   5.616  15.626  0.00  0.00    +0.000 OA
ENDBRANCH   1  15
BRANCH   6  16
ATOM     16  C   UNL     1      44.717   6.599  11.404  0.00  0.00    +0.000 C 
BRANCH  16  17
ATOM     17  C   UNL     1      44.545   5.149  11.008  0.00  0.00    +0.000 A 
ATOM     18  C   UNL     1      43.560   4.368  11.627  0.00  0.00    +0.000 A 
ATOM     19  C   UNL     1      43.350   3.051  11.229  0.00  0.00    +0.000 A 
ATOM     20  C   UNL     1      44.113   2.505  10.196  0.00  0.00    +0.000 A 
ATOM     21  C   UNL     1      45.104   3.257   9.538  0.00  0.00    +0.000 A 
ATOM     22  C   UNL     1      45.334   4.571   9.995  0.00  0.00    +0.000 A 
BRANCH  21  23
ATOM     23  C   UNL     1      45.825   2.718   8.368  0.00  0.00    +0.000 A 
ATOM     24  C   UNL     1      46.170   3.514   7.271  0.00  0.00    +0.000 A 
ATOM     25  N   UNL     1      46.864   3.061   6.197  0.00  0.00    +0.000 NA
ATOM     26  C   UNL     1      47.218   1.762   6.256  0.00  0.00    +0.000 A 
ATOM     27  C   UNL     1      46.894   0.958   7.335  0.00  0.00    +0.000 A 
ATOM     28  N   UNL     1      46.203   1.413   8.410  0.00  0.00    +0.000 NA
ENDBRANCH  21  23
ENDBRANCH  16  17
ENDBRANCH   6  16
TORSDOF 5
ENDMDL
MODEL 5
REMARK VINA RESULT:    -6.824      2.559      4.331
REMARK INTER + INTRA:          -9.319
REMARK INTER:                  -8.661
REMARK INTRA:                  -0.658
REMARK UNBOUND:                -0.500
REMARK  Name = 
REMARK  6 active torsions:
REMARK  status: ('A' for Active; 'I' for Inactive)
REMARK    1  A    between atoms: C_1  and  O_2
REMARK    2  A    between atoms: O_2  and  C_3
REMARK    3  A    between atoms: C_5  and  C_6
REMARK    4  A    between atoms: N_11  and  C_12
REMARK    5  A    between atoms: C_12  and  C_13
REMARK    6  A    between atoms: C_17  and  C_18
REMARK                            x       y       z     vdW  Elec       q    Type
REMARK                         _______ _______ _______ _____ _____    ______ ____
ROOT
ATOM      1  C   UNL     1      48.141   6.929  18.170  0.00  0.00    +0.000 A 
ATOM      2  C   UNL     1      47.974   5.574  18.203  0.00  0.00    +0.000 A 
ATOM      3  C   UNL     1      48.371   4.934  17.059  0.00  0.00    +0.000 A 
ATOM      4  N   UNL     1      48.894   5.555  15.970  0.00  0.00    +0.000 NA
ATOM      5  C   UNL     1      49.030   6.881  16.060  0.00  0.00    +0.000 A 
ATOM      6  N   UNL     1      49.606   7.601  15.026  0.00  0.00    +0.000 N 
ATOM      7  N   UNL     1      48.657   7.597  17.123  0.00  0.00    +0.000 NA
ATOM      8  H   UNL     1      49.374   8.578  15.175  0.00  0.00    +0.000 HD
ENDROOT
BRANCH   3   9
ATOM      9  C   UNL     1      48.238   3.448  16.973  0.00  0.00    +0.000 C 
ATOM     10  N   UNL     1      47.060   2.934  17.443  0.00  0.00    +0.000 N 
ATOM     11  O   UNL     1      49.118   2.730  16.519  0.00  0.00    +0.000 OA
ATOM     12  H   UNL     1      46.333   3.555  17.773  0.00  0.00    +0.000 HD
ATOM     13  H   UNL     1      46.892   1.939  17.382  0.00  0.00    +0.000 HD
ENDBRANCH   3   9
BRANCH   1  15
ATOM     14  C   UNL     1      47.737   6.815  20.472  0.00  0.00    +0.000 C 
ATOM     15  O   UNL     1      47.747   7.622  19.297  0.00  0.00    +0.000 OA
ENDBRANCH   1  15
BRANCH   6  16
ATOM     16  C   UNL     1      49.319   7.105  13.700  0.00  0.00    +0.000 C 
BRANCH  16  17
ATOM     17  C   UNL     1      47.852   7.297  13.383  0.00  0.00    +0.000 A 
ATOM     18  C   UNL     1      47.311   8.589  13.333  0.00  0.00    +0.000 A 
ATOM     19  C   UNL     1      45.979   8.783  12.983  0.00  0.00    +0.000 A 
ATOM     20  C   UNL     1      45.176   7.688  12.661  0.00  0.00    +0.000 A 
ATOM     21  C   UNL     1      45.680   6.375  12.685  0.00  0.00    +0.000 A 
ATOM     22  C   UNL     1      47.018   6.200  13.096  0.00  0.00    +0.000 A 
BRANCH  21  23
ATOM     23  C   UNL     1      44.865   5.232  12.230  0.00  0.00    +0.000 A 
ATOM     24  C   UNL     1      44.459   4.211  13.096  0.00  0.00    +0.000 A 
ATOM     25  N   UNL     1      43.679   3.166  12.722  0.00  0.00    +0.000 NA
ATOM     26  C   UNL     1      43.302   3.175  11.428  0.00  0.00    +0.000 A 
ATOM     27  C   UNL     1      43.685   4.178  10.555  0.00  0.00    +0.000 A 
ATOM     28  N   UNL     1      44.462   5.225  10.932  0.00  0.00    +0.000 NA
ENDBRANCH  21  23
ENDBRANCH  16  17
ENDBRANCH   6  16
TORSDOF 5
ENDMDL
MODEL 6
REMARK VINA RESULT:    -6.553      3.392      8.681
REMARK INTER + INTRA:          -8.969
REMARK INTER:                  -8.488
REMARK INTRA:                  -0.480
REMARK UNBOUND:                -0.500
REMARK  Name = 
REMARK  6 active torsions:
REMARK  status: ('A' for Active; 'I' for Inactive)
REMARK    1  A    between atoms: C_1  and  O_2
REMARK    2  A    between atoms: O_2  and  C_3
REMARK    3  A    between atoms: C_5  and  C_6
REMARK    4  A    between atoms: N_11  and  C_12
REMARK    5  A    between atoms: C_12  and  C_13
REMARK    6  A    between atoms: C_17  and  C_18
REMARK                            x       y       z     vdW  Elec       q    Type
REMARK                         _______ _______ _______ _____ _____    ______ ____
ROOT
ATOM      1  C   UNL     1      44.992   6.512  11.803  0.00  0.00    +0.000 A 
ATOM      2  C   UNL     1      44.368   5.504  11.128  0.00  0.00    +0.000 A 
ATOM      3  C   UNL     1      44.483   4.276  11.724  0.00  0.00    +0.000 A 
ATOM      4  N   UNL     1      45.146   4.043  12.887  0.00  0.00    +0.000 NA
ATOM      5  C   UNL     1      45.700   5.110  13.470  0.00  0.00    +0.000 A 
ATOM      6  N   UNL     1      46.350   4.989  14.688  0.00  0.00    +0.000 N 
ATOM      7  N   UNL     1      45.659   6.342  12.959  0.00  0.00    +0.000 NA
ATOM      8  H   UNL     1      46.909   5.826  14.814  0.00  0.00    +0.000 HD
ENDROOT
BRANCH   3   9
ATOM      9  C   UNL     1      43.841   3.090  11.079  0.00  0.00    +0.000 C 
ATOM     10  N   UNL     1      44.250   2.821   9.802  0.00  0.00    +0.000 N 
ATOM     11  O   UNL     1      43.003   2.403  11.646  0.00  0.00    +0.000 OA
ATOM     12  H   UNL     1      44.977   3.381   9.375  0.00  0.00    +0.000 HD
ATOM     13  H   UNL     1      43.880   2.012   9.322  0.00  0.00    +0.000 HD
ENDBRANCH   3   9
BRANCH   1  15
ATOM     14  C   UNL     1      45.184   8.815  12.168  0.00  0.00    +0.000 C 
ATOM     15  O   UNL     1      44.912   7.770  11.238  0.00  0.00    +0.000 OA
ENDBRANCH   1  15
BRANCH   6  16
ATOM     16  C   UNL     1      47.064   3.747  14.879  0.00  0.00    +0.000 C 
BRANCH  16  17
ATOM     17  C   UNL     1      47.798   3.773  16.202  0.00  0.00    +0.000 A 
ATOM     18  C   UNL     1      47.144   4.225  17.356  0.00  0.00    +0.000 A 
ATOM     19  C   UNL     1      47.787   4.196  18.589  0.00  0.00    +0.000 A 
ATOM     20  C   UNL     1      49.088   3.699  18.685  0.00  0.00    +0.000 A 
ATOM     21  C   UNL     1      49.778   3.223  17.555  0.00  0.00    +0.000 A 
ATOM     22  C   UNL     1      49.124   3.313  16.309  0.00  0.00    +0.000 A 
BRANCH  21  23
ATOM     23  C   UNL     1      51.105   2.588  17.678  0.00  0.00    +0.000 A 
ATOM     24  C   UNL     1      52.227   3.286  18.138  0.00  0.00    +0.000 A 
ATOM     25  N   UNL     1      53.452   2.725  18.299  0.00  0.00    +0.000 NA
ATOM     26  C   UNL     1      53.523   1.416  17.986  0.00  0.00    +0.000 A 
ATOM     27  C   UNL     1      52.424   0.705  17.536  0.00  0.00    +0.000 A 
ATOM     28  N   UNL     1      51.199   1.266  17.380  0.00  0.00    +0.000 NA
ENDBRANCH  21  23
ENDBRANCH  16  17
ENDBRANCH   6  16
TORSDOF 5
ENDMDL
MODEL 7
REMARK VINA RESULT:    -6.539      4.475      8.363
REMARK INTER + INTRA:          -8.950
REMARK INTER:                  -8.331
REMARK INTRA:                  -0.618
REMARK UNBOUND:                -0.500
REMARK  Name = 
REMARK  6 active torsions:
REMARK  status: ('A' for Active; 'I' for Inactive)
REMARK    1  A    between atoms: C_1  and  O_2
REMARK    2  A    between atoms: O_2  and  C_3
REMARK    3  A    between atoms: C_5  and  C_6
REMARK    4  A    between atoms: N_11  and  C_12
REMARK    5  A    between atoms: C_12  and  C_13
REMARK    6  A    between atoms: C_17  and  C_18
REMARK                            x       y       z     vdW  Elec       q    Type
REMARK                         _______ _______ _______ _____ _____    ______ ____
ROOT
ATOM      1  C   UNL     1      45.284   4.490   9.183  0.00  0.00    +0.000 A 
ATOM      2  C   UNL     1      44.599   3.566   9.917  0.00  0.00    +0.000 A 
ATOM      3  C   UNL     1      44.394   3.927  11.222  0.00  0.00    +0.000 A 
ATOM      4  N   UNL     1      44.814   5.095  11.773  0.00  0.00    +0.000 NA
ATOM      5  C   UNL     1      45.456   5.933  10.953  0.00  0.00    +0.000 A 
ATOM      6  N   UNL     1      45.875   7.175  11.402  0.00  0.00    +0.000 N 
ATOM      7  N   UNL     1      45.720   5.665   9.673  0.00  0.00    +0.000 NA
ATOM      8  H   UNL     1      46.551   7.525  10.731  0.00  0.00    +0.000 HD
ENDROOT
BRANCH   3   9
ATOM      9  C   UNL     1      43.655   2.996  12.128  0.00  0.00    +0.000 C 
ATOM     10  N   UNL     1      43.260   1.815  11.564  0.00  0.00    +0.000 N 
ATOM     11  O   UNL     1      43.413   3.265  13.297  0.00  0.00    +0.000 OA
ATOM     12  H   UNL     1      43.512   1.602  10.607  0.00  0.00    +0.000 HD
ATOM     13  H   UNL     1      42.786   1.126  12.132  0.00  0.00    +0.000 HD
ENDBRANCH   3   9
BRANCH   1  15
ATOM     14  C   UNL     1      46.081   2.866   7.699  0.00  0.00    +0.000 C 
ATOM     15  O   UNL     1      45.524   4.168   7.862  0.00  0.00    +0.000 OA
ENDBRANCH   1  15
BRANCH   6  16
ATOM     16  C   UNL     1      46.312   7.212  12.779  0.00  0.00    +0.000 C 
BRANCH  16  17
ATOM     17  C   UNL     1      47.802   7.468  12.841  0.00  0.00    +0.000 A 
ATOM     18  C   UNL     1      48.452   8.080  11.761  0.00  0.00    +0.000 A 
ATOM     19  C   UNL     1      49.810   8.376  11.830  0.00  0.00    +0.000 A 
ATOM     20  C   UNL     1      50.530   8.078  12.988  0.00  0.00    +0.000 A 
ATOM     21  C   UNL     1      49.915   7.476  14.101  0.00  0.00    +0.000 A 
ATOM     22  C   UNL     1      48.551   7.137  13.987  0.00  0.00    +0.000 A 
BRANCH  21  23
ATOM     23  C   UNL     1      50.649   7.272  15.366  0.00  0.00    +0.000 A 
ATOM     24  C   UNL     1      51.635   8.161  15.809  0.00  0.00    +0.000 A 
ATOM     25  N   UNL     1      52.302   8.025  16.982  0.00  0.00    +0.000 NA
ATOM     26  C   UNL     1      51.944   6.955  17.719  0.00  0.00    +0.000 A 
ATOM     27  C   UNL     1      50.967   6.067  17.303  0.00  0.00    +0.000 A 
ATOM     28  N   UNL     1      50.298   6.206  16.132  0.00  0.00    +0.000 NA
ENDBRANCH  21  23
ENDBRANCH  16  17
ENDBRANCH   6  16
TORSDOF 5
ENDMDL
MODEL 8
REMARK VINA RESULT:    -6.476      3.013      4.292
REMARK INTER + INTRA:          -8.868
REMARK INTER:                  -8.117
REMARK INTRA:                  -0.751
REMARK UNBOUND:                -0.500
REMARK  Name = 
REMARK  6 active torsions:
REMARK  status: ('A' for Active; 'I' for Inactive)
REMARK    1  A    between atoms: C_1  and  O_2
REMARK    2  A    between atoms: O_2  and  C_3
REMARK    3  A    between atoms: C_5  and  C_6
REMARK    4  A    between atoms: N_11  and  C_12
REMARK    5  A    between atoms: C_12  and  C_13
REMARK    6  A    between atoms: C_17  and  C_18
REMARK                            x       y       z     vdW  Elec       q    Type
REMARK                         _______ _______ _______ _____ _____    ______ ____
ROOT
ATOM      1  C   UNL     1      50.622   4.630  18.006  0.00  0.00    +0.000 A 
ATOM      2  C   UNL     1      49.497   3.883  17.809  0.00  0.00    +0.000 A 
ATOM      3  C   UNL     1      48.633   4.407  16.885  0.00  0.00    +0.000 A 
ATOM      4  N   UNL     1      48.843   5.561  16.200  0.00  0.00    +0.000 NA
ATOM      5  C   UNL     1      49.989   6.196  16.460  0.00  0.00    +0.000 A 
ATOM      6  N   UNL     1      50.325   7.352  15.773  0.00  0.00    +0.000 N 
ATOM      7  N   UNL     1      50.886   5.777  17.354  0.00  0.00    +0.000 NA
ATOM      8  H   UNL     1      51.071   7.804  16.291  0.00  0.00    +0.000 HD
ENDROOT
BRANCH   3   9
ATOM      9  C   UNL     1      47.363   3.679  16.581  0.00  0.00    +0.000 C 
ATOM     10  N   UNL     1      46.968   3.704  15.272  0.00  0.00    +0.000 N 
ATOM     11  O   UNL     1      46.712   3.100  17.440  0.00  0.00    +0.000 OA
ATOM     12  H   UNL     1      47.550   4.154  14.577  0.00  0.00    +0.000 HD
ATOM     13  H   UNL     1      46.136   3.202  14.993  0.00  0.00    +0.000 HD
ENDBRANCH   3   9
BRANCH   1  15
ATOM     14  C   UNL     1      52.461   3.232  18.379  0.00  0.00    +0.000 C 
ATOM     15  O   UNL     1      51.522   4.149  18.937  0.00  0.00    +0.000 OA
ENDBRANCH   1  15
BRANCH   6  16
ATOM     16  C   UNL     1      49.213   8.210  15.438  0.00  0.00    +0.000 C 
BRANCH  16  17
ATOM     17  C   UNL     1      48.763   7.943  14.018  0.00  0.00    +0.000 A 
ATOM     18  C   UNL     1      49.575   8.332  12.944  0.00  0.00    +0.000 A 
ATOM     19  C   UNL     1      49.203   8.037  11.636  0.00  0.00    +0.000 A 
ATOM     20  C   UNL     1      48.022   7.336  11.388  0.00  0.00    +0.000 A 
ATOM     21  C   UNL     1      47.184   6.916  12.437  0.00  0.00    +0.000 A 
ATOM     22  C   UNL     1      47.555   7.273  13.749  0.00  0.00    +0.000 A 
BRANCH  21  23
ATOM     23  C   UNL     1      46.000   6.072  12.180  0.00  0.00    +0.000 A 
ATOM     24  C   UNL     1      45.583   5.743  10.886  0.00  0.00    +0.000 A 
ATOM     25  N   UNL     1      44.523   4.940  10.614  0.00  0.00    +0.000 NA
ATOM     26  C   UNL     1      43.881   4.461  11.698  0.00  0.00    +0.000 A 
ATOM     27  C   UNL     1      44.280   4.768  12.987  0.00  0.00    +0.000 A 
ATOM     28  N   UNL     1      45.342   5.568  13.258  0.00  0.00    +0.000 NA
ENDBRANCH  21  23
ENDBRANCH  16  17
ENDBRANCH   6  16
TORSDOF 5
ENDMDL
MODEL 9
REMARK VINA RESULT:    -6.460      3.737      8.729
REMARK INTER + INTRA:          -8.848
REMARK INTER:                  -8.345
REMARK INTRA:                  -0.503
REMARK UNBOUND:                -0.500
REMARK  Name = 
REMARK  6 active torsions:
REMARK  status: ('A' for Active; 'I' for Inactive)
REMARK    1  A    between atoms: C_1  and  O_2
REMARK    2  A    between atoms: O_2  and  C_3
REMARK    3  A    between atoms: C_5  and  C_6
REMARK    4  A    between atoms: N_11  and  C_12
REMARK    5  A    between atoms: C_12  and  C_13
REMARK    6  A    between atoms: C_17  and  C_18
REMARK                            x       y       z     vdW  Elec       q    Type
REMARK                         _______ _______ _______ _____ _____    ______ ____
ROOT
ATOM      1  C   UNL     1      44.709   3.514  11.441  0.00  0.00    +0.000 A 
ATOM      2  C   UNL     1      44.506   4.823  11.115  0.00  0.00    +0.000 A 
ATOM      3  C   UNL     1      45.132   5.711  11.949  0.00  0.00    +0.000 A 
ATOM      4  N   UNL     1      45.899   5.360  13.013  0.00  0.00    +0.000 NA
ATOM      5  C   UNL     1      46.043   4.049  13.224  0.00  0.00    +0.000 A 
ATOM      6  N   UNL     1      46.852   3.585  14.249  0.00  0.00    +0.000 N 
ATOM      7  N   UNL     1      45.461   3.106  12.479  0.00  0.00    +0.000 NA
ATOM      8  H   UNL     1      46.617   2.609  14.400  0.00  0.00    +0.000 HD
ENDROOT
BRANCH   3   9
ATOM      9  C   UNL     1      44.985   7.177  11.695  0.00  0.00    +0.000 C 
ATOM     10  N   UNL     1      43.754   7.578  11.253  0.00  0.00    +0.000 N 
ATOM     11  O   UNL     1      45.899   7.972  11.864  0.00  0.00    +0.000 OA
ATOM     12  H   UNL     1      43.004   6.904  11.164  0.00  0.00    +0.000 HD
ATOM     13  H   UNL     1      43.578   8.561  11.095  0.00  0.00    +0.000 HD
ENDBRANCH   3   9
BRANCH   1  15
ATOM     14  C   UNL     1      44.637   2.532   9.319  0.00  0.00    +0.000 C 
ATOM     15  O   UNL     1      44.091   2.578  10.635  0.00  0.00    +0.000 OA
ENDBRANCH   1  15
BRANCH   6  16
ATOM     16  C   UNL     1      46.855   4.400  15.443  0.00  0.00    +0.000 C 
BRANCH  16  17
ATOM     17  C   UNL     1      48.067   4.073  16.288  0.00  0.00    +0.000 A 
ATOM     18  C   UNL     1      48.438   2.737  16.490  0.00  0.00    +0.000 A 
ATOM     19  C   UNL     1      49.585   2.426  17.214  0.00  0.00    +0.000 A 
ATOM     20  C   UNL     1      50.382   3.448  17.731  0.00  0.00    +0.000 A 
ATOM     21  C   UNL     1      50.054   4.803  17.541  0.00  0.00    +0.000 A 
ATOM     22  C   UNL     1      48.859   5.092  16.851  0.00  0.00    +0.000 A 
BRANCH  21  23
ATOM     23  C   UNL     1      50.960   5.880  17.985  0.00  0.00    +0.000 A 
ATOM     24  C   UNL     1      50.489   7.052  18.588  0.00  0.00    +0.000 A 
ATOM     25  N   UNL     1      51.294   8.045  19.041  0.00  0.00    +0.000 NA
ATOM     26  C   UNL     1      52.614   7.826  18.876  0.00  0.00    +0.000 A 
ATOM     27  C   UNL     1      53.102   6.672  18.289  0.00  0.00    +0.000 A 
ATOM     28  N   UNL     1      52.296   5.678  17.840  0.00  0.00    +0.000 NA
ENDBRANCH  21  23
ENDBRANCH  16  17
ENDBRANCH   6  16
TORSDOF 5
ENDMDL
