MODEL 1
REMARK VINA RESULT:    -8.314      0.000      0.000
REMARK INTER + INTRA:         -14.135
REMARK INTER:                 -12.689
REMARK INTRA:                  -1.447
REMARK UNBOUND:                -1.447
REMARK  Name = 
REMARK  10 active torsions:
REMARK  status: ('A' for Active; 'I' for Inactive)
REMARK    1  A    between atoms: C_1  and  C_2
REMARK    2  A    between atoms: C_2  and  C_3
REMARK    3  A    between atoms: C_3  and  C_4
REMARK    4  A    between atoms: C_4  and  N_5
REMARK    5  A    between atoms: C_4  and  C_27
REMARK    6  A    between atoms: N_5  and  C_6
REMARK    7  A    between atoms: C_6  and  C_7
REMARK    8  A    between atoms: C_10  and  C_11
REMARK    9  A    between atoms: C_11  and  N_12
REMARK   10  A    between atoms: C_13  and  C_15
REMARK                            x       y       z     vdW  Elec       q    Type
REMARK                         _______ _______ _______ _____ _____    ______ ____
ROOT
ATOM      1  C   UNL     1      45.251   6.706  11.091  0.00  0.00    +0.000 A 
ATOM      2  C   UNL     1      46.555   6.262  11.307  0.00  0.00    +0.000 A 
ATOM      3  C   UNL     1      47.353   6.920  12.239  0.00  0.00    +0.000 A 
ATOM      4  C   UNL     1      46.849   8.028  12.921  0.00  0.00    +0.000 A 
ATOM      5  C   UNL     1      45.548   8.422  12.618  0.00  0.00    +0.000 A 
ATOM      6  N   UNL     1      44.740   7.792  11.728  0.00  0.00    +0.000 NA
ENDROOT
BRANCH   1   7
ATOM      7  C   UNL     1      44.303   5.842  10.274  0.00  0.00    +0.000 C 
BRANCH   7   8
ATOM      8  N   UNL     1      44.925   5.116   9.162  0.00  0.00    +0.000 NA
ATOM      9  H   UNL     1      44.509   5.460   8.297  0.00  0.00    +0.000 HD
BRANCH   8  10
ATOM     10  C   UNL     1      44.758   3.650   9.262  0.00  0.00    +0.000 C 
BRANCH  10  11
ATOM     11  C   UNL     1      45.679   2.913   8.277  0.00  0.00    +0.000 A 
ATOM     12  C   UNL     1      46.325   3.624   7.255  0.00  0.00    +0.000 A 
ATOM     13  C   UNL     1      47.204   2.980   6.378  0.00  0.00    +0.000 A 
ATOM     14  C   UNL     1      47.458   1.615   6.512  0.00  0.00    +0.000 A 
ATOM     15  C   UNL     1      46.841   0.896   7.530  0.00  0.00    +0.000 A 
ATOM     16  C   UNL     1      45.957   1.537   8.398  0.00  0.00    +0.000 A 
ENDBRANCH  10  11
BRANCH  10  17
ATOM     17  C   UNL     1      44.855   3.066  10.697  0.00  0.00    +0.000 C 
BRANCH  17  19
ATOM     18  C   UNL     1      43.576   3.517  12.802  0.00  0.00    +0.000 C 
ATOM     19  C   UNL     1      43.529   2.853  11.428  0.00  0.00    +0.000 C 
ENDBRANCH  17  19
ENDBRANCH  10  17
ENDBRANCH   8  10
ENDBRANCH   7   8
ENDBRANCH   1   7
BRANCH   4  20
ATOM     20  C   UNL     1      47.644   8.699  14.001  0.00  0.00    +0.000 C 
BRANCH  20  21
ATOM     21  N   UNL     1      47.921   7.779  15.078  0.00  0.00    +0.000 N 
ATOM     22  C   UNL     1      49.152   7.199  15.233  0.00  0.00    +0.000 C 
ATOM     23  O   UNL     1      50.093   7.457  14.487  0.00  0.00    +0.000 OA
ATOM     24  H   UNL     1      47.120   7.370  15.549  0.00  0.00    +0.000 HD
BRANCH  22  25
ATOM     25  C   UNL     1      49.307   6.294  16.382  0.00  0.00    +0.000 A 
ATOM     26  C   UNL     1      50.284   6.554  17.335  0.00  0.00    +0.000 A 
ATOM     27  S   UNL     1      50.279   5.453  18.639  0.00  0.00    +0.000 S 
ATOM     28  C   UNL     1      49.006   4.558  17.949  0.00  0.00    +0.000 A 
ATOM     29  N   UNL     1      48.518   3.449  18.567  0.00  0.00    +0.000 NA
ATOM     30  C   UNL     1      47.576   2.848  17.920  0.00  0.00    +0.000 A 
ATOM     31  N   UNL     1      47.075   3.258  16.712  0.00  0.00    +0.000 N 
ATOM     32  C   UNL     1      47.517   4.388  16.065  0.00  0.00    +0.000 A 
ATOM     33  O   UNL     1      47.020   4.748  15.003  0.00  0.00    +0.000 OA
ATOM     34  C   UNL     1      48.583   5.097  16.748  0.00  0.00    +0.000 A 
ATOM     35  H   UNL     1      46.332   2.746  16.260  0.00  0.00    +0.000 HD
ENDBRANCH  22  25
ENDBRANCH  20  21
ENDBRANCH   4  20
TORSDOF 9
ENDMDL
MODEL 2
REMARK VINA RESULT:    -7.563      1.422      1.511
REMARK INTER + INTRA:         -12.989
REMARK INTER:                 -11.881
REMARK INTRA:                  -1.108
REMARK UNBOUND:                -1.447
REMARK  Name = 
REMARK  10 active torsions:
REMARK  status: ('A' for Active; 'I' for Inactive)
REMARK    1  A    between atoms: C_1  and  C_2
REMARK    2  A    between atoms: C_2  and  C_3
REMARK    3  A    between atoms: C_3  and  C_4
REMARK    4  A    between atoms: C_4  and  N_5
REMARK    5  A    between atoms: C_4  and  C_27
REMARK    6  A    between atoms: N_5  and  C_6
REMARK    7  A    between atoms: C_6  and  C_7
REMARK    8  A    between atoms: C_10  and  C_11
REMARK    9  A    between atoms: C_11  and  N_12
REMARK   10  A    between atoms: C_13  and  C_15
REMARK                            x       y       z     vdW  Elec       q    Type
REMARK                         _______ _______ _______ _____ _____    ______ ____
ROOT
ATOM      1  C   UNL     1      45.569   6.800  11.410  0.00  0.00    +0.000 A 
ATOM      2  C   UNL     1      46.798   6.272  11.804  0.00  0.00    +0.000 A 
ATOM      3  C   UNL     1      47.578   6.971  12.721  0.00  0.00    +0.000 A 
ATOM      4  C   UNL     1      47.134   8.200  13.211  0.00  0.00    +0.000 A 
ATOM      5  C   UNL     1      45.910   8.666  12.739  0.00  0.00    +0.000 A 
ATOM      6  N   UNL     1      45.119   8.001  11.858  0.00  0.00    +0.000 NA
ENDROOT
BRANCH   1   7
ATOM      7  C   UNL     1      44.610   5.926  10.617  0.00  0.00    +0.000 C 
BRANCH   7   8
ATOM      8  N   UNL     1      45.212   5.204   9.492  0.00  0.00    +0.000 NA
ATOM      9  H   UNL     1      44.930   5.678   8.634  0.00  0.00    +0.000 HD
BRANCH   8  10
ATOM     10  C   UNL     1      44.819   3.779   9.442  0.00  0.00    +0.000 C 
BRANCH  10  11
ATOM     11  C   UNL     1      45.620   3.015   8.376  0.00  0.00    +0.000 A 
ATOM     12  C   UNL     1      46.103   3.689   7.244  0.00  0.00    +0.000 A 
ATOM     13  C   UNL     1      46.873   3.022   6.286  0.00  0.00    +0.000 A 
ATOM     14  C   UNL     1      47.182   1.671   6.446  0.00  0.00    +0.000 A 
ATOM     15  C   UNL     1      46.728   0.989   7.570  0.00  0.00    +0.000 A 
ATOM     16  C   UNL     1      45.950   1.653   8.520  0.00  0.00    +0.000 A 
ENDBRANCH  10  11
BRANCH  10  17
ATOM     17  C   UNL     1      44.818   3.041  10.808  0.00  0.00    +0.000 C 
BRANCH  17  19
ATOM     18  C   UNL     1      43.485   3.502  12.877  0.00  0.00    +0.000 C 
ATOM     19  C   UNL     1      43.455   2.879  11.483  0.00  0.00    +0.000 C 
ENDBRANCH  17  19
ENDBRANCH  10  17
ENDBRANCH   8  10
ENDBRANCH   7   8
ENDBRANCH   1   7
BRANCH   4  20
ATOM     20  C   UNL     1      47.900   8.931  14.272  0.00  0.00    +0.000 C 
BRANCH  20  21
ATOM     21  N   UNL     1      47.934   8.166  15.496  0.00  0.00    +0.000 N 
ATOM     22  C   UNL     1      48.456   8.680  16.653  0.00  0.00    +0.000 C 
ATOM     23  O   UNL     1      48.890   9.827  16.721  0.00  0.00    +0.000 OA
ATOM     24  H   UNL     1      47.813   7.162  15.413  0.00  0.00    +0.000 HD
BRANCH  22  25
ATOM     25  C   UNL     1      48.414   7.803  17.834  0.00  0.00    +0.000 A 
ATOM     26  C   UNL     1      48.168   8.350  19.087  0.00  0.00    +0.000 A 
ATOM     27  S   UNL     1      48.076   7.188  20.334  0.00  0.00    +0.000 S 
ATOM     28  C   UNL     1      48.415   5.919  19.252  0.00  0.00    +0.000 A 
ATOM     29  N   UNL     1      48.498   4.633  19.688  0.00  0.00    +0.000 NA
ATOM     30  C   UNL     1      48.792   3.775  18.768  0.00  0.00    +0.000 A 
ATOM     31  N   UNL     1      49.007   4.087  17.451  0.00  0.00    +0.000 N 
ATOM     32  C   UNL     1      48.905   5.368  16.960  0.00  0.00    +0.000 A 
ATOM     33  O   UNL     1      49.067   5.607  15.768  0.00  0.00    +0.000 OA
ATOM     34  C   UNL     1      48.585   6.373  17.956  0.00  0.00    +0.000 A 
ATOM     35  H   UNL     1      49.228   3.368  16.779  0.00  0.00    +0.000 HD
ENDBRANCH  22  25
ENDBRANCH  20  21
ENDBRANCH   4  20
TORSDOF 9
ENDMDL
MODEL 3
REMARK VINA RESULT:    -7.371      2.931      4.272
REMARK INTER + INTRA:         -12.696
REMARK INTER:                 -11.120
REMARK INTRA:                  -1.576
REMARK UNBOUND:                -1.447
REMARK  Name = 
REMARK  10 active torsions:
REMARK  status: ('A' for Active; 'I' for Inactive)
REMARK    1  A    between atoms: C_1  and  C_2
REMARK    2  A    between atoms: C_2  and  C_3
REMARK    3  A    between atoms: C_3  and  C_4
REMARK    4  A    between atoms: C_4  and  N_5
REMARK    5  A    between atoms: C_4  and  C_27
REMARK    6  A    between atoms: N_5  and  C_6
REMARK    7  A    between atoms: C_6  and  C_7
REMARK    8  A    between atoms: C_10  and  C_11
REMARK    9  A    between atoms: C_11  and  N_12
REMARK   10  A    between atoms: C_13  and  C_15
REMARK                            x       y       z     vdW  Elec       q    Type
REMARK                         _______ _______ _______ _____ _____    ______ ____
ROOT
ATOM      1  C   UNL     1      46.955   4.608  14.472  0.00  0.00    +0.000 A 
ATOM      2  C   UNL     1      47.675   5.784  14.261  0.00  0.00    +0.000 A 
ATOM      3  C   UNL     1      48.401   6.337  15.313  0.00  0.00    +0.000 A 
ATOM      4  C   UNL     1      48.375   5.726  16.567  0.00  0.00    +0.000 A 
ATOM      5  C   UNL     1      47.603   4.574  16.696  0.00  0.00    +0.000 A 
ATOM      6  N   UNL     1      46.899   4.001  15.687  0.00  0.00    +0.000 NA
ENDROOT
BRANCH   1   7
ATOM      7  C   UNL     1      46.379   3.870  13.275  0.00  0.00    +0.000 C 
BRANCH   7   8
ATOM      8  N   UNL     1      45.071   4.349  12.819  0.00  0.00    +0.000 NA
ATOM      9  H   UNL     1      44.489   3.532  12.632  0.00  0.00    +0.000 HD
BRANCH   8  10
ATOM     10  C   UNL     1      45.154   5.204  11.615  0.00  0.00    +0.000 C 
BRANCH  10  11
ATOM     11  C   UNL     1      45.117   4.365  10.328  0.00  0.00    +0.000 A 
ATOM     12  C   UNL     1      45.693   4.862   9.150  0.00  0.00    +0.000 A 
ATOM     13  C   UNL     1      45.712   4.095   7.981  0.00  0.00    +0.000 A 
ATOM     14  C   UNL     1      45.162   2.814   7.971  0.00  0.00    +0.000 A 
ATOM     15  C   UNL     1      44.602   2.295   9.133  0.00  0.00    +0.000 A 
ATOM     16  C   UNL     1      44.575   3.065  10.296  0.00  0.00    +0.000 A 
ENDBRANCH  10  11
BRANCH  10  17
ATOM     17  C   UNL     1      44.148   6.385  11.568  0.00  0.00    +0.000 C 
BRANCH  17  19
ATOM     18  C   UNL     1      45.421   8.171  12.776  0.00  0.00    +0.000 C 
ATOM     19  C   UNL     1      44.757   7.784  11.458  0.00  0.00    +0.000 C 
ENDBRANCH  17  19
ENDBRANCH  10  17
ENDBRANCH   8  10
ENDBRANCH   7   8
ENDBRANCH   1   7
BRANCH   4  20
ATOM     20  C   UNL     1      49.221   6.237  17.694  0.00  0.00    +0.000 C 
BRANCH  20  21
ATOM     21  N   UNL     1      50.254   5.286  18.029  0.00  0.00    +0.000 N 
ATOM     22  C   UNL     1      51.487   5.321  17.434  0.00  0.00    +0.000 C 
ATOM     23  O   UNL     1      51.791   6.182  16.612  0.00  0.00    +0.000 OA
ATOM     24  H   UNL     1      49.962   4.440  18.507  0.00  0.00    +0.000 HD
BRANCH  22  25
ATOM     25  C   UNL     1      52.456   4.306  17.878  0.00  0.00    +0.000 A 
ATOM     26  C   UNL     1      53.666   4.707  18.429  0.00  0.00    +0.000 A 
ATOM     27  S   UNL     1      54.639   3.409  18.961  0.00  0.00    +0.000 S 
ATOM     28  C   UNL     1      53.499   2.264  18.425  0.00  0.00    +0.000 A 
ATOM     29  N   UNL     1      53.729   0.931  18.568  0.00  0.00    +0.000 NA
ATOM     30  C   UNL     1      52.798   0.174  18.091  0.00  0.00    +0.000 A 
ATOM     31  N   UNL     1      51.655   0.631  17.486  0.00  0.00    +0.000 N 
ATOM     32  C   UNL     1      51.368   1.968  17.345  0.00  0.00    +0.000 A 
ATOM     33  O   UNL     1      50.319   2.342  16.832  0.00  0.00    +0.000 OA
ATOM     34  C   UNL     1      52.388   2.863  17.859  0.00  0.00    +0.000 A 
ATOM     35  H   UNL     1      50.962  -0.014  17.138  0.00  0.00    +0.000 HD
ENDBRANCH  22  25
ENDBRANCH  20  21
ENDBRANCH   4  20
TORSDOF 9
ENDMDL
MODEL 4
REMARK VINA RESULT:    -7.104      2.978      4.657
REMARK INTER + INTRA:         -12.289
REMARK INTER:                 -10.870
REMARK INTRA:                  -1.419
REMARK UNBOUND:                -1.447
REMARK  Name = 
REMARK  10 active torsions:
REMARK  status: ('A' for Active; 'I' for Inactive)
REMARK    1  A    between atoms: C_1  and  C_2
REMARK    2  A    between atoms: C_2  and  C_3
REMARK    3  A    between atoms: C_3  and  C_4
REMARK    4  A    between atoms: C_4  and  N_5
REMARK    5  A    between atoms: C_4  and  C_27
REMARK    6  A    between atoms: N_5  and  C_6
REMARK    7  A    between atoms: C_6  and  C_7
REMARK    8  A    between atoms: C_10  and  C_11
REMARK    9  A    between atoms: C_11  and  N_12
REMARK   10  A    between atoms: C_13  and  C_15
REMARK                            x       y       z     vdW  Elec       q    Type
REMARK                         _______ _______ _______ _____ _____    ______ ____
ROOT
ATOM      1  C   UNL     1      47.400   5.855  13.855  0.00  0.00    +0.000 A 
ATOM      2  C   UNL     1      46.826   4.584  13.841  0.00  0.00    +0.000 A 
ATOM      3  C   UNL     1      46.978   3.755  14.949  0.00  0.00    +0.000 A 
ATOM      4  C   UNL     1      47.723   4.194  16.044  0.00  0.00    +0.000 A 
ATOM      5  C   UNL     1      48.289   5.463  15.958  0.00  0.00    +0.000 A 
ATOM      6  N   UNL     1      48.145   6.301  14.900  0.00  0.00    +0.000 NA
ENDROOT
BRANCH   1   7
ATOM      7  C   UNL     1      47.023   6.847  12.767  0.00  0.00    +0.000 C 
BRANCH   7   8
ATOM      8  N   UNL     1      47.009   6.303  11.406  0.00  0.00    +0.000 NA
ATOM      9  H   UNL     1      47.625   6.880  10.835  0.00  0.00    +0.000 HD
BRANCH   8  10
ATOM     10  C   UNL     1      45.654   6.260  10.814  0.00  0.00    +0.000 C 
BRANCH  10  11
ATOM     11  C   UNL     1      45.408   4.937  10.073  0.00  0.00    +0.000 A 
ATOM     12  C   UNL     1      45.667   4.845   8.696  0.00  0.00    +0.000 A 
ATOM     13  C   UNL     1      45.495   3.637   8.013  0.00  0.00    +0.000 A 
ATOM     14  C   UNL     1      45.068   2.497   8.694  0.00  0.00    +0.000 A 
ATOM     15  C   UNL     1      44.824   2.563  10.062  0.00  0.00    +0.000 A 
ATOM     16  C   UNL     1      44.986   3.771  10.741  0.00  0.00    +0.000 A 
ENDBRANCH  10  11
BRANCH  10  17
ATOM     17  C   UNL     1      44.493   6.608  11.783  0.00  0.00    +0.000 C 
BRANCH  17  19
ATOM     18  C   UNL     1      42.232   5.538  11.882  0.00  0.00    +0.000 C 
ATOM     19  C   UNL     1      43.087   6.591  11.183  0.00  0.00    +0.000 C 
ENDBRANCH  17  19
ENDBRANCH  10  17
ENDBRANCH   8  10
ENDBRANCH   7   8
ENDBRANCH   1   7
BRANCH   4  20
ATOM     20  C   UNL     1      47.825   3.368  17.292  0.00  0.00    +0.000 C 
BRANCH  20  21
ATOM     21  N   UNL     1      49.207   3.148  17.646  0.00  0.00    +0.000 N 
ATOM     22  C   UNL     1      49.993   2.257  16.966  0.00  0.00    +0.000 C 
ATOM     23  O   UNL     1      49.576   1.626  15.998  0.00  0.00    +0.000 OA
ATOM     24  H   UNL     1      49.501   3.462  18.566  0.00  0.00    +0.000 HD
BRANCH  22  25
ATOM     25  C   UNL     1      51.389   2.141  17.416  0.00  0.00    +0.000 A 
ATOM     26  C   UNL     1      51.939   0.884  17.631  0.00  0.00    +0.000 A 
ATOM     27  S   UNL     1      53.586   0.925  18.075  0.00  0.00    +0.000 S 
ATOM     28  C   UNL     1      53.608   2.626  18.047  0.00  0.00    +0.000 A 
ATOM     29  N   UNL     1      54.740   3.315  18.355  0.00  0.00    +0.000 NA
ATOM     30  C   UNL     1      54.609   4.599  18.326  0.00  0.00    +0.000 A 
ATOM     31  N   UNL     1      53.447   5.257  18.013  0.00  0.00    +0.000 N 
ATOM     32  C   UNL     1      52.288   4.604  17.668  0.00  0.00    +0.000 A 
ATOM     33  O   UNL     1      51.276   5.224  17.358  0.00  0.00    +0.000 OA
ATOM     34  C   UNL     1      52.380   3.156  17.694  0.00  0.00    +0.000 A 
ATOM     35  H   UNL     1      53.411   6.266  18.003  0.00  0.00    +0.000 HD
ENDBRANCH  22  25
ENDBRANCH  20  21
ENDBRANCH   4  20
TORSDOF 9
ENDMDL
MODEL 5
REMARK VINA RESULT:    -6.918      3.177      8.440
REMARK INTER + INTRA:         -12.005
REMARK INTER:                 -10.500
REMARK INTRA:                  -1.505
REMARK UNBOUND:                -1.447
REMARK  Name = 
REMARK  10 active torsions:
REMARK  status: ('A' for Active; 'I' for Inactive)
REMARK    1  A    between atoms: C_1  and  C_2
REMARK    2  A    between atoms: C_2  and  C_3
REMARK    3  A    between atoms: C_3  and  C_4
REMARK    4  A    between atoms: C_4  and  N_5
REMARK    5  A    between atoms: C_4  and  C_27
REMARK    6  A    between atoms: N_5  and  C_6
REMARK    7  A    between atoms: C_6  and  C_7
REMARK    8  A    between atoms: C_10  and  C_11
REMARK    9  A    between atoms: C_11  and  N_12
REMARK   10  A    between atoms: C_13  and  C_15
REMARK                            x       y       z     vdW  Elec       q    Type
REMARK                         _______ _______ _______ _____ _____    ______ ____
ROOT
ATOM      1  C   UNL     1      49.579   7.616  15.474  0.00  0.00    +0.000 A 
ATOM      2  C   UNL     1      48.520   8.520  15.558  0.00  0.00    +0.000 A 
ATOM      3  C   UNL     1      47.668   8.675  14.468  0.00  0.00    +0.000 A 
ATOM      4  C   UNL     1      47.900   7.947  13.300  0.00  0.00    +0.000 A 
ATOM      5  C   UNL     1      49.000   7.093  13.293  0.00  0.00    +0.000 A 
ATOM      6  N   UNL     1      49.839   6.907  14.344  0.00  0.00    +0.000 NA
ENDROOT
BRANCH   1   7
ATOM      7  C   UNL     1      50.347   7.259  16.736  0.00  0.00    +0.000 C 
BRANCH   7   8
ATOM      8  N   UNL     1      51.036   5.966  16.700  0.00  0.00    +0.000 NA
ATOM      9  H   UNL     1      51.138   5.696  15.721  0.00  0.00    +0.000 HD
BRANCH   8  10
ATOM     10  C   UNL     1      50.324   4.909  17.450  0.00  0.00    +0.000 C 
BRANCH  10  11
ATOM     11  C   UNL     1      51.182   3.640  17.581  0.00  0.00    +0.000 A 
ATOM     12  C   UNL     1      52.482   3.723  18.101  0.00  0.00    +0.000 A 
ATOM     13  C   UNL     1      53.261   2.575  18.273  0.00  0.00    +0.000 A 
ATOM     14  C   UNL     1      52.752   1.321  17.935  0.00  0.00    +0.000 A 
ATOM     15  C   UNL     1      51.458   1.215  17.435  0.00  0.00    +0.000 A 
ATOM     16  C   UNL     1      50.685   2.363  17.255  0.00  0.00    +0.000 A 
ENDBRANCH  10  11
BRANCH  10  17
ATOM     17  C   UNL     1      49.725   5.349  18.813  0.00  0.00    +0.000 C 
BRANCH  17  19
ATOM     18  C   UNL     1      47.485   4.863  17.806  0.00  0.00    +0.000 C 
ATOM     19  C   UNL     1      48.295   4.890  19.099  0.00  0.00    +0.000 C 
ENDBRANCH  17  19
ENDBRANCH  10  17
ENDBRANCH   8  10
ENDBRANCH   7   8
ENDBRANCH   1   7
BRANCH   4  20
ATOM     20  C   UNL     1      46.947   8.015  12.144  0.00  0.00    +0.000 C 
BRANCH  20  21
ATOM     21  N   UNL     1      46.380   6.715  11.874  0.00  0.00    +0.000 N 
ATOM     22  C   UNL     1      45.038   6.545  11.654  0.00  0.00    +0.000 C 
ATOM     23  O   UNL     1      44.255   7.491  11.639  0.00  0.00    +0.000 OA
ATOM     24  H   UNL     1      46.945   5.908  12.116  0.00  0.00    +0.000 HD
BRANCH  22  25
ATOM     25  C   UNL     1      44.591   5.173  11.372  0.00  0.00    +0.000 A 
ATOM     26  C   UNL     1      43.832   4.490  12.314  0.00  0.00    +0.000 A 
ATOM     27  S   UNL     1      43.333   2.942  11.798  0.00  0.00    +0.000 S 
ATOM     28  C   UNL     1      44.158   3.107  10.319  0.00  0.00    +0.000 A 
ATOM     29  N   UNL     1      44.149   2.107   9.398  0.00  0.00    +0.000 NA
ATOM     30  C   UNL     1      44.841   2.352   8.336  0.00  0.00    +0.000 A 
ATOM     31  N   UNL     1      45.539   3.510   8.110  0.00  0.00    +0.000 N 
ATOM     32  C   UNL     1      45.553   4.559   8.998  0.00  0.00    +0.000 A 
ATOM     33  O   UNL     1      46.158   5.596   8.748  0.00  0.00    +0.000 OA
ATOM     34  C   UNL     1      44.796   4.331  10.215  0.00  0.00    +0.000 A 
ATOM     35  H   UNL     1      46.057   3.642   7.254  0.00  0.00    +0.000 HD
ENDBRANCH  22  25
ENDBRANCH  20  21
ENDBRANCH   4  20
TORSDOF 9
ENDMDL
MODEL 6
REMARK VINA RESULT:    -6.742      2.909      8.501
REMARK INTER + INTRA:         -11.737
REMARK INTER:                 -10.181
REMARK INTRA:                  -1.555
REMARK UNBOUND:                -1.447
REMARK  Name = 
REMARK  10 active torsions:
REMARK  status: ('A' for Active; 'I' for Inactive)
REMARK    1  A    between atoms: C_1  and  C_2
REMARK    2  A    between atoms: C_2  and  C_3
REMARK    3  A    between atoms: C_3  and  C_4
REMARK    4  A    between atoms: C_4  and  N_5
REMARK    5  A    between atoms: C_4  and  C_27
REMARK    6  A    between atoms: N_5  and  C_6
REMARK    7  A    between atoms: C_6  and  C_7
REMARK    8  A    between atoms: C_10  and  C_11
REMARK    9  A    between atoms: C_11  and  N_12
REMARK   10  A    between atoms: C_13  and  C_15
REMARK                            x       y       z     vdW  Elec       q    Type
REMARK                         _______ _______ _______ _____ _____    ______ ____
ROOT
ATOM      1  C   UNL     1      49.276   7.686  15.840  0.00  0.00    +0.000 A 
ATOM      2  C   UNL     1      48.875   8.933  15.361  0.00  0.00    +0.000 A 
ATOM      3  C   UNL     1      48.231   9.015  14.129  0.00  0.00    +0.000 A 
ATOM      4  C   UNL     1      48.021   7.856  13.381  0.00  0.00    +0.000 A 
ATOM      5  C   UNL     1      48.484   6.659  13.921  0.00  0.00    +0.000 A 
ATOM      6  N   UNL     1      49.099   6.544  15.125  0.00  0.00    +0.000 NA
ENDROOT
BRANCH   1   7
ATOM      7  C   UNL     1      49.741   7.564  17.283  0.00  0.00    +0.000 C 
BRANCH   7   8
ATOM      8  N   UNL     1      48.751   7.008  18.210  0.00  0.00    +0.000 NA
ATOM      9  H   UNL     1      48.482   7.749  18.858  0.00  0.00    +0.000 HD
BRANCH   8  10
ATOM     10  C   UNL     1      49.253   5.834  18.958  0.00  0.00    +0.000 C 
BRANCH  10  11
ATOM     11  C   UNL     1      49.167   4.554  18.113  0.00  0.00    +0.000 A 
ATOM     12  C   UNL     1      50.316   3.778  17.895  0.00  0.00    +0.000 A 
ATOM     13  C   UNL     1      50.250   2.585  17.169  0.00  0.00    +0.000 A 
ATOM     14  C   UNL     1      49.032   2.141  16.653  0.00  0.00    +0.000 A 
ATOM     15  C   UNL     1      47.879   2.886  16.873  0.00  0.00    +0.000 A 
ATOM     16  C   UNL     1      47.948   4.081  17.589  0.00  0.00    +0.000 A 
ENDBRANCH  10  11
BRANCH  10  17
ATOM     17  C   UNL     1      50.651   6.008  19.609  0.00  0.00    +0.000 C 
BRANCH  17  19
ATOM     18  C   UNL     1      52.242   4.702  21.033  0.00  0.00    +0.000 C 
ATOM     19  C   UNL     1      50.852   5.328  20.963  0.00  0.00    +0.000 C 
ENDBRANCH  17  19
ENDBRANCH  10  17
ENDBRANCH   8  10
ENDBRANCH   7   8
ENDBRANCH   1   7
BRANCH   4  20
ATOM     20  C   UNL     1      47.245   7.894  12.098  0.00  0.00    +0.000 C 
BRANCH  20  21
ATOM     21  N   UNL     1      46.619   6.618  11.843  0.00  0.00    +0.000 N 
ATOM     22  C   UNL     1      45.261   6.493  11.719  0.00  0.00    +0.000 C 
ATOM     23  O   UNL     1      44.508   7.461  11.783  0.00  0.00    +0.000 OA
ATOM     24  H   UNL     1      47.176   5.789  12.025  0.00  0.00    +0.000 HD
BRANCH  22  25
ATOM     25  C   UNL     1      44.752   5.141  11.441  0.00  0.00    +0.000 A 
ATOM     26  C   UNL     1      44.024   4.467  12.413  0.00  0.00    +0.000 A 
ATOM     27  S   UNL     1      43.444   2.946  11.902  0.00  0.00    +0.000 S 
ATOM     28  C   UNL     1      44.192   3.110  10.381  0.00  0.00    +0.000 A 
ATOM     29  N   UNL     1      44.097   2.127   9.447  0.00  0.00    +0.000 NA
ATOM     30  C   UNL     1      44.737   2.367   8.351  0.00  0.00    +0.000 A 
ATOM     31  N   UNL     1      45.460   3.505   8.105  0.00  0.00    +0.000 N 
ATOM     32  C   UNL     1      45.560   4.537   9.007  0.00  0.00    +0.000 A 
ATOM     33  O   UNL     1      46.184   5.558   8.740  0.00  0.00    +0.000 OA
ATOM     34  C   UNL     1      44.864   4.313  10.261  0.00  0.00    +0.000 A 
ATOM     35  H   UNL     1      45.934   3.636   7.223  0.00  0.00    +0.000 HD
ENDBRANCH  22  25
ENDBRANCH  20  21
ENDBRANCH   4  20
TORSDOF 9
ENDMDL
MODEL 7
REMARK VINA RESULT:    -6.463      3.286      4.744
REMARK INTER + INTRA:         -11.310
REMARK INTER:                 -10.191
REMARK INTRA:                  -1.119
REMARK UNBOUND:                -1.447
REMARK  Name = 
REMARK  10 active torsions:
REMARK  status: ('A' for Active; 'I' for Inactive)
REMARK    1  A    between atoms: C_1  and  C_2
REMARK    2  A    between atoms: C_2  and  C_3
REMARK    3  A    between atoms: C_3  and  C_4
REMARK    4  A    between atoms: C_4  and  N_5
REMARK    5  A    between atoms: C_4  and  C_27
REMARK    6  A    between atoms: N_5  and  C_6
REMARK    7  A    between atoms: C_6  and  C_7
REMARK    8  A    between atoms: C_10  and  C_11
REMARK    9  A    between atoms: C_11  and  N_12
REMARK   10  A    between atoms: C_13  and  C_15
REMARK                            x       y       z     vdW  Elec       q    Type
REMARK                         _______ _______ _______ _____ _____    ______ ____
ROOT
ATOM      1  C   UNL     1      45.370   6.645  11.553  0.00  0.00    +0.000 A 
ATOM      2  C   UNL     1      45.096   7.993  11.785  0.00  0.00    +0.000 A 
ATOM      3  C   UNL     1      45.889   8.705  12.680  0.00  0.00    +0.000 A 
ATOM      4  C   UNL     1      46.926   8.057  13.352  0.00  0.00    +0.000 A 
ATOM      5  C   UNL     1      47.107   6.703  13.084  0.00  0.00    +0.000 A 
ATOM      6  N   UNL     1      46.362   5.985  12.206  0.00  0.00    +0.000 NA
ENDROOT
BRANCH   1   7
ATOM      7  C   UNL     1      44.678   5.939  10.398  0.00  0.00    +0.000 C 
BRANCH   7   8
ATOM      8  N   UNL     1      45.557   5.134   9.545  0.00  0.00    +0.000 NA
ATOM      9  H   UNL     1      45.910   5.739   8.804  0.00  0.00    +0.000 HD
BRANCH   8  10
ATOM     10  C   UNL     1      44.879   3.955   8.962  0.00  0.00    +0.000 C 
BRANCH  10  11
ATOM     11  C   UNL     1      45.835   3.138   8.080  0.00  0.00    +0.000 A 
ATOM     12  C   UNL     1      46.049   1.778   8.349  0.00  0.00    +0.000 A 
ATOM     13  C   UNL     1      46.879   1.006   7.530  0.00  0.00    +0.000 A 
ATOM     14  C   UNL     1      47.502   1.577   6.421  0.00  0.00    +0.000 A 
ATOM     15  C   UNL     1      47.289   2.919   6.126  0.00  0.00    +0.000 A 
ATOM     16  C   UNL     1      46.469   3.691   6.950  0.00  0.00    +0.000 A 
ENDBRANCH  10  11
BRANCH  10  17
ATOM     17  C   UNL     1      44.114   3.061   9.974  0.00  0.00    +0.000 C 
BRANCH  17  19
ATOM     18  C   UNL     1      43.662   3.045  12.436  0.00  0.00    +0.000 C 
ATOM     19  C   UNL     1      44.740   2.928  11.363  0.00  0.00    +0.000 C 
ENDBRANCH  17  19
ENDBRANCH  10  17
ENDBRANCH   8  10
ENDBRANCH   7   8
ENDBRANCH   1   7
BRANCH   4  20
ATOM     20  C   UNL     1      47.861   8.816  14.246  0.00  0.00    +0.000 C 
BRANCH  20  21
ATOM     21  N   UNL     1      49.111   9.076  13.574  0.00  0.00    +0.000 N 
ATOM     22  C   UNL     1      50.317   8.805  14.164  0.00  0.00    +0.000 C 
ATOM     23  O   UNL     1      50.398   8.294  15.278  0.00  0.00    +0.000 OA
ATOM     24  H   UNL     1      49.083   9.705  12.778  0.00  0.00    +0.000 HD
BRANCH  22  25
ATOM     25  C   UNL     1      51.516   9.099  13.364  0.00  0.00    +0.000 A 
ATOM     26  C   UNL     1      52.490   9.949  13.873  0.00  0.00    +0.000 A 
ATOM     27  S   UNL     1      53.848  10.122  12.854  0.00  0.00    +0.000 S 
ATOM     28  C   UNL     1      53.158   9.110  11.671  0.00  0.00    +0.000 A 
ATOM     29  N   UNL     1      53.813   8.848  10.509  0.00  0.00    +0.000 NA
ATOM     30  C   UNL     1      53.163   8.092   9.688  0.00  0.00    +0.000 A 
ATOM     31  N   UNL     1      51.918   7.572   9.928  0.00  0.00    +0.000 N 
ATOM     32  C   UNL     1      51.231   7.786  11.099  0.00  0.00    +0.000 A 
ATOM     33  O   UNL     1      50.134   7.274  11.296  0.00  0.00    +0.000 OA
ATOM     34  C   UNL     1      51.915   8.638  12.054  0.00  0.00    +0.000 A 
ATOM     35  H   UNL     1      51.465   6.982   9.246  0.00  0.00    +0.000 HD
ENDBRANCH  22  25
ENDBRANCH  20  21
ENDBRANCH   4  20
TORSDOF 9
ENDMDL
MODEL 8
REMARK VINA RESULT:    -6.414      1.527      2.039
REMARK INTER + INTRA:         -11.234
REMARK INTER:                  -9.901
REMARK INTRA:                  -1.334
REMARK UNBOUND:                -1.447
REMARK  Name = 
REMARK  10 active torsions:
REMARK  status: ('A' for Active; 'I' for Inactive)
REMARK    1  A    between atoms: C_1  and  C_2
REMARK    2  A    between atoms: C_2  and  C_3
REMARK    3  A    between atoms: C_3  and  C_4
REMARK    4  A    between atoms: C_4  and  N_5
REMARK    5  A    between atoms: C_4  and  C_27
REMARK    6  A    between atoms: N_5  and  C_6
REMARK    7  A    between atoms: C_6  and  C_7
REMARK    8  A    between atoms: C_10  and  C_11
REMARK    9  A    between atoms: C_11  and  N_12
REMARK   10  A    between atoms: C_13  and  C_15
REMARK                            x       y       z     vdW  Elec       q    Type
REMARK                         _______ _______ _______ _____ _____    ______ ____
ROOT
ATOM      1  C   UNL     1      45.470   7.113  12.096  0.00  0.00    +0.000 A 
ATOM      2  C   UNL     1      45.503   8.498  12.260  0.00  0.00    +0.000 A 
ATOM      3  C   UNL     1      46.486   9.065  13.067  0.00  0.00    +0.000 A 
ATOM      4  C   UNL     1      47.404   8.242  13.720  0.00  0.00    +0.000 A 
ATOM      5  C   UNL     1      47.276   6.869  13.525  0.00  0.00    +0.000 A 
ATOM      6  N   UNL     1      46.341   6.287  12.733  0.00  0.00    +0.000 NA
ENDROOT
BRANCH   1   7
ATOM      7  C   UNL     1      44.570   6.518  11.024  0.00  0.00    +0.000 C 
BRANCH   7   8
ATOM      8  N   UNL     1      45.260   5.717  10.008  0.00  0.00    +0.000 NA
ATOM      9  H   UNL     1      45.077   6.145   9.100  0.00  0.00    +0.000 HD
BRANCH   8  10
ATOM     10  C   UNL     1      44.835   4.301  10.001  0.00  0.00    +0.000 C 
BRANCH  10  11
ATOM     11  C   UNL     1      45.565   3.502   8.910  0.00  0.00    +0.000 A 
ATOM     12  C   UNL     1      45.628   2.102   8.989  0.00  0.00    +0.000 A 
ATOM     13  C   UNL     1      46.247   1.354   7.983  0.00  0.00    +0.000 A 
ATOM     14  C   UNL     1      46.808   1.991   6.876  0.00  0.00    +0.000 A 
ATOM     15  C   UNL     1      46.741   3.376   6.770  0.00  0.00    +0.000 A 
ATOM     16  C   UNL     1      46.132   4.122   7.780  0.00  0.00    +0.000 A 
ENDBRANCH  10  11
BRANCH  10  17
ATOM     17  C   UNL     1      44.884   3.585  11.377  0.00  0.00    +0.000 C 
BRANCH  17  19
ATOM     18  C   UNL     1      43.200   1.779  11.796  0.00  0.00    +0.000 C 
ATOM     19  C   UNL     1      43.532   3.253  12.012  0.00  0.00    +0.000 C 
ENDBRANCH  17  19
ENDBRANCH  10  17
ENDBRANCH   8  10
ENDBRANCH   7   8
ENDBRANCH   1   7
BRANCH   4  20
ATOM     20  C   UNL     1      48.534   8.823  14.516  0.00  0.00    +0.000 C 
BRANCH  20  21
ATOM     21  N   UNL     1      49.377   7.777  15.044  0.00  0.00    +0.000 N 
ATOM     22  C   UNL     1      50.036   7.915  16.237  0.00  0.00    +0.000 C 
ATOM     23  O   UNL     1      49.917   8.918  16.935  0.00  0.00    +0.000 OA
ATOM     24  H   UNL     1      49.681   7.060  14.393  0.00  0.00    +0.000 HD
BRANCH  22  25
ATOM     25  C   UNL     1      50.848   6.767  16.671  0.00  0.00    +0.000 A 
ATOM     26  C   UNL     1      52.221   6.914  16.820  0.00  0.00    +0.000 A 
ATOM     27  S   UNL     1      53.000   5.512  17.402  0.00  0.00    +0.000 S 
ATOM     28  C   UNL     1      51.537   4.642  17.425  0.00  0.00    +0.000 A 
ATOM     29  N   UNL     1      51.504   3.341  17.819  0.00  0.00    +0.000 NA
ATOM     30  C   UNL     1      50.336   2.793  17.758  0.00  0.00    +0.000 A 
ATOM     31  N   UNL     1      49.197   3.431  17.343  0.00  0.00    +0.000 N 
ATOM     32  C   UNL     1      49.177   4.753  16.963  0.00  0.00    +0.000 A 
ATOM     33  O   UNL     1      48.132   5.304  16.632  0.00  0.00    +0.000 OA
ATOM     34  C   UNL     1      50.468   5.414  17.006  0.00  0.00    +0.000 A 
ATOM     35  H   UNL     1      48.311   2.948  17.323  0.00  0.00    +0.000 HD
ENDBRANCH  22  25
ENDBRANCH  20  21
ENDBRANCH   4  20
TORSDOF 9
ENDMDL
MODEL 9
REMARK VINA RESULT:    -6.339      3.251      8.300
REMARK INTER + INTRA:         -11.121
REMARK INTER:                  -9.345
REMARK INTRA:                  -1.776
REMARK UNBOUND:                -1.447
REMARK  Name = 
REMARK  10 active torsions:
REMARK  status: ('A' for Active; 'I' for Inactive)
REMARK    1  A    between atoms: C_1  and  C_2
REMARK    2  A    between atoms: C_2  and  C_3
REMARK    3  A    between atoms: C_3  and  C_4
REMARK    4  A    between atoms: C_4  and  N_5
REMARK    5  A    between atoms: C_4  and  C_27
REMARK    6  A    between atoms: N_5  and  C_6
REMARK    7  A    between atoms: C_6  and  C_7
REMARK    8  A    between atoms: C_10  and  C_11
REMARK    9  A    between atoms: C_11  and  N_12
REMARK   10  A    between atoms: C_13  and  C_15
REMARK                            x       y       z     vdW  Elec       q    Type
REMARK                         _______ _______ _______ _____ _____    ______ ____
ROOT
ATOM      1  C   UNL     1      49.210   7.544  16.277  0.00  0.00    +0.000 A 
ATOM      2  C   UNL     1      48.862   6.447  15.489  0.00  0.00    +0.000 A 
ATOM      3  C   UNL     1      48.462   6.654  14.172  0.00  0.00    +0.000 A 
ATOM      4  C   UNL     1      48.387   7.954  13.669  0.00  0.00    +0.000 A 
ATOM      5  C   UNL     1      48.720   8.990  14.536  0.00  0.00    +0.000 A 
ATOM      6  N   UNL     1      49.130   8.820  15.819  0.00  0.00    +0.000 NA
ENDROOT
BRANCH   1   7
ATOM      7  C   UNL     1      49.887   7.305  17.617  0.00  0.00    +0.000 C 
BRANCH   7   8
ATOM      8  N   UNL     1      48.995   6.867  18.696  0.00  0.00    +0.000 NA
ATOM      9  H   UNL     1      48.989   7.597  19.408  0.00  0.00    +0.000 HD
BRANCH   8  10
ATOM     10  C   UNL     1      49.397   5.575  19.292  0.00  0.00    +0.000 C 
BRANCH  10  11
ATOM     11  C   UNL     1      49.116   4.405  18.336  0.00  0.00    +0.000 A 
ATOM     12  C   UNL     1      50.171   3.596  17.888  0.00  0.00    +0.000 A 
ATOM     13  C   UNL     1      49.931   2.498  17.056  0.00  0.00    +0.000 A 
ATOM     14  C   UNL     1      48.630   2.185  16.661  0.00  0.00    +0.000 A 
ATOM     15  C   UNL     1      47.568   2.964  17.108  0.00  0.00    +0.000 A 
ATOM     16  C   UNL     1      47.810   4.065  17.931  0.00  0.00    +0.000 A 
ENDBRANCH  10  11
BRANCH  10  17
ATOM     17  C   UNL     1      50.839   5.526  19.862  0.00  0.00    +0.000 C 
BRANCH  17  19
ATOM     18  C   UNL     1      52.600   6.995  20.866  0.00  0.00    +0.000 C 
ATOM     19  C   UNL     1      51.155   6.519  20.981  0.00  0.00    +0.000 C 
ENDBRANCH  17  19
ENDBRANCH  10  17
ENDBRANCH   8  10
ENDBRANCH   7   8
ENDBRANCH   1   7
BRANCH   4  20
ATOM     20  C   UNL     1      48.055   8.207  12.228  0.00  0.00    +0.000 C 
BRANCH  20  21
ATOM     21  N   UNL     1      47.396   7.061  11.647  0.00  0.00    +0.000 N 
ATOM     22  C   UNL     1      46.044   7.041  11.427  0.00  0.00    +0.000 C 
ATOM     23  O   UNL     1      45.328   8.006  11.680  0.00  0.00    +0.000 OA
ATOM     24  H   UNL     1      47.907   6.184  11.656  0.00  0.00    +0.000 HD
BRANCH  22  25
ATOM     25  C   UNL     1      45.501   5.820  10.812  0.00  0.00    +0.000 A 
ATOM     26  C   UNL     1      45.698   5.586   9.458  0.00  0.00    +0.000 A 
ATOM     27  S   UNL     1      45.072   4.092   8.922  0.00  0.00    +0.000 S 
ATOM     28  C   UNL     1      44.467   3.728  10.472  0.00  0.00    +0.000 A 
ATOM     29  N   UNL     1      43.792   2.571  10.703  0.00  0.00    +0.000 NA
ATOM     30  C   UNL     1      43.362   2.436  11.913  0.00  0.00    +0.000 A 
ATOM     31  N   UNL     1      43.550   3.353  12.914  0.00  0.00    +0.000 N 
ATOM     32  C   UNL     1      44.251   4.522  12.734  0.00  0.00    +0.000 A 
ATOM     33  O   UNL     1      44.433   5.304  13.661  0.00  0.00    +0.000 OA
ATOM     34  C   UNL     1      44.750   4.727  11.387  0.00  0.00    +0.000 A 
ATOM     35  H   UNL     1      43.193   3.186  13.843  0.00  0.00    +0.000 HD
ENDBRANCH  22  25
ENDBRANCH  20  21
ENDBRANCH   4  20
TORSDOF 9
ENDMDL
