MODEL 1
REMARK VINA RESULT:    -7.540      0.000      0.000
REMARK INTER + INTRA:          -9.973
REMARK INTER:                  -9.523
REMARK INTRA:                  -0.449
REMARK UNBOUND:                -0.449
REMARK  Name = 
REMARK  5 active torsions:
REMARK  status: ('A' for Active; 'I' for Inactive)
REMARK    1  A    between atoms: C_2  and  C_3
REMARK    2  A    between atoms: N_7  and  C_8
REMARK    3  A    between atoms: C_8  and  C_9
REMARK    4  A    between atoms: C_9  and  O_10
REMARK    5  A    between atoms: C_9  and  C_11
REMARK                            x       y       z     vdW  Elec       q    Type
REMARK                         _______ _______ _______ _____ _____    ______ ____
ROOT
ATOM      1  C   UNL     1      46.192   2.501   7.994  0.00  0.00    +0.000 A 
ATOM      2  C   UNL     1      46.160   3.871   7.755  0.00  0.00    +0.000 A 
ATOM      3  C   UNL     1      45.268   4.662   8.476  0.00  0.00    +0.000 A 
ATOM      4  C   UNL     1      44.452   4.079   9.444  0.00  0.00    +0.000 A 
ATOM      5  N   UNL     1      43.690   4.926  10.241  0.00  0.00    +0.000 N 
ATOM      6  N   UNL     1      44.467   2.751   9.672  0.00  0.00    +0.000 NA
ATOM      7  C   UNL     1      45.322   1.992   8.943  0.00  0.00    +0.000 A 
ATOM      8  H   UNL     1      43.054   5.505   9.699  0.00  0.00    +0.000 HD
ENDROOT
BRANCH   1  10
ATOM      9  N   UNL     1      47.854   0.957   6.749  0.00  0.00    +0.000 NA
ATOM     10  C   UNL     1      47.104   1.648   7.307  0.00  0.00    +0.000 C 
ENDBRANCH   1  10
BRANCH   5  11
ATOM     11  C   UNL     1      43.051   4.335  11.419  0.00  0.00    +0.000 C 
BRANCH  11  12
ATOM     12  C   UNL     1      43.238   5.304  12.610  0.00  0.00    +0.000 C 
BRANCH  12  13
ATOM     13  C   UNL     1      44.689   5.648  12.881  0.00  0.00    +0.000 A 
ATOM     14  C   UNL     1      45.555   4.654  13.367  0.00  0.00    +0.000 A 
ATOM     15  C   UNL     1      46.899   4.936  13.617  0.00  0.00    +0.000 A 
ATOM     16  C   UNL     1      47.397   6.214  13.382  0.00  0.00    +0.000 A 
ATOM     17  C   UNL     1      46.549   7.214  12.909  0.00  0.00    +0.000 A 
ATOM     18  C   UNL     1      45.202   6.937  12.666  0.00  0.00    +0.000 A 
ENDBRANCH  12  13
BRANCH  12  19
ATOM     19  O   UNL     1      42.623   4.745  13.781  0.00  0.00    +0.000 OA
ATOM     20  H   UNL     1      41.703   5.054  13.806  0.00  0.00    +0.000 HD
ENDBRANCH  12  19
ENDBRANCH  11  12
ENDBRANCH   5  11
TORSDOF 5
ENDMDL
MODEL 2
REMARK VINA RESULT:    -6.861      2.709      6.307
REMARK INTER + INTRA:          -9.115
REMARK INTER:                  -8.782
REMARK INTRA:                  -0.333
REMARK UNBOUND:                -0.449
REMARK  Name = 
REMARK  5 active torsions:
REMARK  status: ('A' for Active; 'I' for Inactive)
REMARK    1  A    between atoms: C_2  and  C_3
REMARK    2  A    between atoms: N_7  and  C_8
REMARK    3  A    between atoms: C_8  and  C_9
REMARK    4  A    between atoms: C_9  and  O_10
REMARK    5  A    between atoms: C_9  and  C_11
REMARK                            x       y       z     vdW  Elec       q    Type
REMARK                         _______ _______ _______ _____ _____    ______ ____
ROOT
ATOM      1  C   UNL     1      47.138   4.738  14.641  0.00  0.00    +0.000 A 
ATOM      2  C   UNL     1      46.841   5.895  13.928  0.00  0.00    +0.000 A 
ATOM      3  C   UNL     1      46.208   5.783  12.691  0.00  0.00    +0.000 A 
ATOM      4  C   UNL     1      45.855   4.526  12.206  0.00  0.00    +0.000 A 
ATOM      5  N   UNL     1      45.094   4.473  11.044  0.00  0.00    +0.000 N 
ATOM      6  N   UNL     1      46.152   3.399  12.883  0.00  0.00    +0.000 NA
ATOM      7  C   UNL     1      46.791   3.524  14.073  0.00  0.00    +0.000 A 
ATOM      8  H   UNL     1      45.553   4.922  10.255  0.00  0.00    +0.000 HD
ENDROOT
BRANCH   1  10
ATOM      9  N   UNL     1      48.269   4.836  16.966  0.00  0.00    +0.000 NA
ATOM     10  C   UNL     1      47.757   4.794  15.923  0.00  0.00    +0.000 C 
ENDBRANCH   1  10
BRANCH   5  11
ATOM     11  C   UNL     1      44.503   3.180  10.692  0.00  0.00    +0.000 C 
BRANCH  11  12
ATOM     12  C   UNL     1      44.240   3.165   9.168  0.00  0.00    +0.000 C 
BRANCH  12  13
ATOM     13  C   UNL     1      45.426   2.680   8.359  0.00  0.00    +0.000 A 
ATOM     14  C   UNL     1      46.141   3.594   7.566  0.00  0.00    +0.000 A 
ATOM     15  C   UNL     1      47.244   3.181   6.817  0.00  0.00    +0.000 A 
ATOM     16  C   UNL     1      47.651   1.851   6.853  0.00  0.00    +0.000 A 
ATOM     17  C   UNL     1      46.948   0.930   7.628  0.00  0.00    +0.000 A 
ATOM     18  C   UNL     1      45.839   1.338   8.371  0.00  0.00    +0.000 A 
ENDBRANCH  12  13
BRANCH  12  19
ATOM     19  O   UNL     1      43.837   4.476   8.741  0.00  0.00    +0.000 OA
ATOM     20  H   UNL     1      44.322   5.122   9.278  0.00  0.00    +0.000 HD
ENDBRANCH  12  19
ENDBRANCH  11  12
ENDBRANCH   5  11
TORSDOF 5
ENDMDL
MODEL 3
REMARK VINA RESULT:    -6.831      2.575      6.456
REMARK INTER + INTRA:          -9.077
REMARK INTER:                  -8.763
REMARK INTRA:                  -0.314
REMARK UNBOUND:                -0.449
REMARK  Name = 
REMARK  5 active torsions:
REMARK  status: ('A' for Active; 'I' for Inactive)
REMARK    1  A    between atoms: C_2  and  C_3
REMARK    2  A    between atoms: N_7  and  C_8
REMARK    3  A    between atoms: C_8  and  C_9
REMARK    4  A    between atoms: C_9  and  O_10
REMARK    5  A    between atoms: C_9  and  C_11
REMARK                            x       y       z     vdW  Elec       q    Type
REMARK                         _______ _______ _______ _____ _____    ______ ____
ROOT
ATOM      1  C   UNL     1      46.852   7.756  13.133  0.00  0.00    +0.000 A 
ATOM      2  C   UNL     1      45.691   8.267  12.563  0.00  0.00    +0.000 A 
ATOM      3  C   UNL     1      44.965   7.470  11.679  0.00  0.00    +0.000 A 
ATOM      4  C   UNL     1      45.392   6.171  11.408  0.00  0.00    +0.000 A 
ATOM      5  N   UNL     1      44.558   5.365  10.642  0.00  0.00    +0.000 N 
ATOM      6  N   UNL     1      46.523   5.673  11.945  0.00  0.00    +0.000 NA
ATOM      7  C   UNL     1      47.232   6.471  12.783  0.00  0.00    +0.000 A 
ATOM      8  H   UNL     1      44.369   5.759   9.724  0.00  0.00    +0.000 HD
ENDROOT
BRANCH   1  10
ATOM      9  N   UNL     1      48.239   9.129  14.833  0.00  0.00    +0.000 NA
ATOM     10  C   UNL     1      47.618   8.514  14.066  0.00  0.00    +0.000 C 
ENDBRANCH   1  10
BRANCH   5  11
ATOM     11  C   UNL     1      44.878   3.937  10.588  0.00  0.00    +0.000 C 
BRANCH  11  12
ATOM     12  C   UNL     1      44.410   3.386   9.221  0.00  0.00    +0.000 C 
BRANCH  12  13
ATOM     13  C   UNL     1      45.533   2.786   8.400  0.00  0.00    +0.000 A 
ATOM     14  C   UNL     1      46.318   3.623   7.589  0.00  0.00    +0.000 A 
ATOM     15  C   UNL     1      47.367   3.103   6.829  0.00  0.00    +0.000 A 
ATOM     16  C   UNL     1      47.648   1.740   6.869  0.00  0.00    +0.000 A 
ATOM     17  C   UNL     1      46.872   0.895   7.661  0.00  0.00    +0.000 A 
ATOM     18  C   UNL     1      45.817   1.411   8.417  0.00  0.00    +0.000 A 
ENDBRANCH  12  13
BRANCH  12  19
ATOM     19  O   UNL     1      43.747   4.429   8.488  0.00  0.00    +0.000 OA
ATOM     20  H   UNL     1      44.083   4.408   7.578  0.00  0.00    +0.000 HD
ENDBRANCH  12  19
ENDBRANCH  11  12
ENDBRANCH   5  11
TORSDOF 5
ENDMDL
MODEL 4
REMARK VINA RESULT:    -6.144      4.112      5.568
REMARK INTER + INTRA:          -8.209
REMARK INTER:                  -7.968
REMARK INTRA:                  -0.242
REMARK UNBOUND:                -0.449
REMARK  Name = 
REMARK  5 active torsions:
REMARK  status: ('A' for Active; 'I' for Inactive)
REMARK    1  A    between atoms: C_2  and  C_3
REMARK    2  A    between atoms: N_7  and  C_8
REMARK    3  A    between atoms: C_8  and  C_9
REMARK    4  A    between atoms: C_9  and  O_10
REMARK    5  A    between atoms: C_9  and  C_11
REMARK                            x       y       z     vdW  Elec       q    Type
REMARK                         _______ _______ _______ _____ _____    ______ ____
ROOT
ATOM      1  C   UNL     1      45.206   4.518  11.047  0.00  0.00    +0.000 A 
ATOM      2  C   UNL     1      45.650   5.782  11.424  0.00  0.00    +0.000 A 
ATOM      3  C   UNL     1      46.135   5.969  12.717  0.00  0.00    +0.000 A 
ATOM      4  C   UNL     1      46.200   4.890  13.595  0.00  0.00    +0.000 A 
ATOM      5  N   UNL     1      46.829   5.090  14.818  0.00  0.00    +0.000 N 
ATOM      6  N   UNL     1      45.759   3.666  13.243  0.00  0.00    +0.000 NA
ATOM      7  C   UNL     1      45.265   3.506  11.990  0.00  0.00    +0.000 A 
ATOM      8  H   UNL     1      46.392   5.828  15.366  0.00  0.00    +0.000 HD
ENDROOT
BRANCH   1  10
ATOM      9  N   UNL     1      44.342   4.057   8.651  0.00  0.00    +0.000 NA
ATOM     10  C   UNL     1      44.727   4.261   9.729  0.00  0.00    +0.000 C 
ENDBRANCH   1  10
BRANCH   5  11
ATOM     11  C   UNL     1      47.131   3.900  15.616  0.00  0.00    +0.000 C 
BRANCH  11  12
ATOM     12  C   UNL     1      47.720   4.359  16.970  0.00  0.00    +0.000 C 
BRANCH  12  13
ATOM     13  C   UNL     1      49.113   3.824  17.231  0.00  0.00    +0.000 A 
ATOM     14  C   UNL     1      49.371   2.454  17.053  0.00  0.00    +0.000 A 
ATOM     15  C   UNL     1      50.647   1.932  17.274  0.00  0.00    +0.000 A 
ATOM     16  C   UNL     1      51.683   2.771  17.674  0.00  0.00    +0.000 A 
ATOM     17  C   UNL     1      51.441   4.131  17.863  0.00  0.00    +0.000 A 
ATOM     18  C   UNL     1      50.165   4.655  17.651  0.00  0.00    +0.000 A 
ENDBRANCH  12  13
BRANCH  12  19
ATOM     19  O   UNL     1      46.826   3.983  18.030  0.00  0.00    +0.000 OA
ATOM     20  H   UNL     1      46.016   4.507  17.930  0.00  0.00    +0.000 HD
ENDBRANCH  12  19
ENDBRANCH  11  12
ENDBRANCH   5  11
TORSDOF 5
ENDMDL
MODEL 5
REMARK VINA RESULT:    -6.040      2.861      5.849
REMARK INTER + INTRA:          -8.078
REMARK INTER:                  -7.623
REMARK INTRA:                  -0.455
REMARK UNBOUND:                -0.449
REMARK  Name = 
REMARK  5 active torsions:
REMARK  status: ('A' for Active; 'I' for Inactive)
REMARK    1  A    between atoms: C_2  and  C_3
REMARK    2  A    between atoms: N_7  and  C_8
REMARK    3  A    between atoms: C_8  and  C_9
REMARK    4  A    between atoms: C_9  and  O_10
REMARK    5  A    between atoms: C_9  and  C_11
REMARK                            x       y       z     vdW  Elec       q    Type
REMARK                         _______ _______ _______ _____ _____    ______ ____
ROOT
ATOM      1  C   UNL     1      48.196   8.700  12.048  0.00  0.00    +0.000 A 
ATOM      2  C   UNL     1      47.068   9.437  12.393  0.00  0.00    +0.000 A 
ATOM      3  C   UNL     1      45.829   8.800  12.428  0.00  0.00    +0.000 A 
ATOM      4  C   UNL     1      45.744   7.437  12.152  0.00  0.00    +0.000 A 
ATOM      5  N   UNL     1      44.516   6.815  12.346  0.00  0.00    +0.000 N 
ATOM      6  N   UNL     1      46.830   6.718  11.803  0.00  0.00    +0.000 NA
ATOM      7  C   UNL     1      48.024   7.359  11.749  0.00  0.00    +0.000 A 
ATOM      8  H   UNL     1      43.776   7.227  11.783  0.00  0.00    +0.000 HD
ENDROOT
BRANCH   1  10
ATOM      9  N   UNL     1      50.547   9.782  12.001  0.00  0.00    +0.000 NA
ATOM     10  C   UNL     1      49.493   9.292  12.025  0.00  0.00    +0.000 C 
ENDBRANCH   1  10
BRANCH   5  11
ATOM     11  C   UNL     1      44.499   5.351  12.316  0.00  0.00    +0.000 C 
BRANCH  11  12
ATOM     12  C   UNL     1      43.607   4.900  11.136  0.00  0.00    +0.000 C 
BRANCH  12  13
ATOM     13  C   UNL     1      44.365   4.144  10.064  0.00  0.00    +0.000 A 
ATOM     14  C   UNL     1      44.226   2.748   9.974  0.00  0.00    +0.000 A 
ATOM     15  C   UNL     1      44.903   2.024   8.992  0.00  0.00    +0.000 A 
ATOM     16  C   UNL     1      45.726   2.684   8.083  0.00  0.00    +0.000 A 
ATOM     17  C   UNL     1      45.882   4.067   8.165  0.00  0.00    +0.000 A 
ATOM     18  C   UNL     1      45.212   4.793   9.152  0.00  0.00    +0.000 A 
ENDBRANCH  12  13
BRANCH  12  19
ATOM     19  O   UNL     1      42.943   6.044  10.576  0.00  0.00    +0.000 OA
ATOM     20  H   UNL     1      42.865   6.710  11.277  0.00  0.00    +0.000 HD
ENDBRANCH  12  19
ENDBRANCH  11  12
ENDBRANCH   5  11
TORSDOF 5
ENDMDL
MODEL 6
REMARK VINA RESULT:    -5.747      4.474      7.392
REMARK INTER + INTRA:          -7.708
REMARK INTER:                  -7.468
REMARK INTRA:                  -0.240
REMARK UNBOUND:                -0.449
REMARK  Name = 
REMARK  5 active torsions:
REMARK  status: ('A' for Active; 'I' for Inactive)
REMARK    1  A    between atoms: C_2  and  C_3
REMARK    2  A    between atoms: N_7  and  C_8
REMARK    3  A    between atoms: C_8  and  C_9
REMARK    4  A    between atoms: C_9  and  O_10
REMARK    5  A    between atoms: C_9  and  C_11
REMARK                            x       y       z     vdW  Elec       q    Type
REMARK                         _______ _______ _______ _____ _____    ______ ____
ROOT
ATOM      1  C   UNL     1      49.415   4.494  17.690  0.00  0.00    +0.000 A 
ATOM      2  C   UNL     1      48.584   3.379  17.678  0.00  0.00    +0.000 A 
ATOM      3  C   UNL     1      47.569   3.303  16.727  0.00  0.00    +0.000 A 
ATOM      4  C   UNL     1      47.424   4.321  15.786  0.00  0.00    +0.000 A 
ATOM      5  N   UNL     1      46.498   4.131  14.767  0.00  0.00    +0.000 N 
ATOM      6  N   UNL     1      48.216   5.412  15.799  0.00  0.00    +0.000 NA
ATOM      7  C   UNL     1      49.182   5.482  16.748  0.00  0.00    +0.000 A 
ATOM      8  H   UNL     1      45.555   3.983  15.118  0.00  0.00    +0.000 HD
ENDROOT
BRANCH   1  10
ATOM      9  N   UNL     1      51.367   4.702  19.376  0.00  0.00    +0.000 NA
ATOM     10  C   UNL     1      50.488   4.612  18.621  0.00  0.00    +0.000 C 
ENDBRANCH   1  10
BRANCH   5  11
ATOM     11  C   UNL     1      46.542   5.069  13.643  0.00  0.00    +0.000 C 
BRANCH  11  12
ATOM     12  C   UNL     1      45.128   5.149  13.021  0.00  0.00    +0.000 C 
BRANCH  12  13
ATOM     13  C   UNL     1      45.086   4.721  11.568  0.00  0.00    +0.000 A 
ATOM     14  C   UNL     1      45.661   5.549  10.589  0.00  0.00    +0.000 A 
ATOM     15  C   UNL     1      45.649   5.179   9.243  0.00  0.00    +0.000 A 
ATOM     16  C   UNL     1      45.065   3.975   8.857  0.00  0.00    +0.000 A 
ATOM     17  C   UNL     1      44.483   3.147   9.816  0.00  0.00    +0.000 A 
ATOM     18  C   UNL     1      44.487   3.519  11.161  0.00  0.00    +0.000 A 
ENDBRANCH  12  13
BRANCH  12  19
ATOM     19  O   UNL     1      44.615   6.482  13.172  0.00  0.00    +0.000 OA
ATOM     20  H   UNL     1      44.481   6.639  14.121  0.00  0.00    +0.000 HD
ENDBRANCH  12  19
ENDBRANCH  11  12
ENDBRANCH   5  11
TORSDOF 5
ENDMDL
MODEL 7
REMARK VINA RESULT:    -5.707      3.223      6.340
REMARK INTER + INTRA:          -7.658
REMARK INTER:                  -7.368
REMARK INTRA:                  -0.290
REMARK UNBOUND:                -0.449
REMARK  Name = 
REMARK  5 active torsions:
REMARK  status: ('A' for Active; 'I' for Inactive)
REMARK    1  A    between atoms: C_2  and  C_3
REMARK    2  A    between atoms: N_7  and  C_8
REMARK    3  A    between atoms: C_8  and  C_9
REMARK    4  A    between atoms: C_9  and  O_10
REMARK    5  A    between atoms: C_9  and  C_11
REMARK                            x       y       z     vdW  Elec       q    Type
REMARK                         _______ _______ _______ _____ _____    ______ ____
ROOT
ATOM      1  C   UNL     1      49.678   7.805  12.759  0.00  0.00    +0.000 A 
ATOM      2  C   UNL     1      49.161   6.947  13.724  0.00  0.00    +0.000 A 
ATOM      3  C   UNL     1      47.891   6.406  13.537  0.00  0.00    +0.000 A 
ATOM      4  C   UNL     1      47.175   6.704  12.379  0.00  0.00    +0.000 A 
ATOM      5  N   UNL     1      45.981   6.024  12.166  0.00  0.00    +0.000 N 
ATOM      6  N   UNL     1      47.662   7.545  11.445  0.00  0.00    +0.000 NA
ATOM      7  C   UNL     1      48.889   8.083  11.655  0.00  0.00    +0.000 A 
ATOM      8  H   UNL     1      45.309   6.171  12.915  0.00  0.00    +0.000 HD
ENDROOT
BRANCH   1  10
ATOM      9  N   UNL     1      52.046   8.821  12.993  0.00  0.00    +0.000 NA
ATOM     10  C   UNL     1      50.983   8.364  12.883  0.00  0.00    +0.000 C 
ENDBRANCH   1  10
BRANCH   5  11
ATOM     11  C   UNL     1      45.378   6.139  10.836  0.00  0.00    +0.000 C 
BRANCH  11  12
ATOM     12  C   UNL     1      44.508   4.884  10.588  0.00  0.00    +0.000 C 
BRANCH  12  13
ATOM     13  C   UNL     1      45.090   3.947   9.550  0.00  0.00    +0.000 A 
ATOM     14  C   UNL     1      45.696   4.481   8.400  0.00  0.00    +0.000 A 
ATOM     15  C   UNL     1      46.251   3.645   7.430  0.00  0.00    +0.000 A 
ATOM     16  C   UNL     1      46.210   2.264   7.595  0.00  0.00    +0.000 A 
ATOM     17  C   UNL     1      45.605   1.718   8.726  0.00  0.00    +0.000 A 
ATOM     18  C   UNL     1      45.042   2.551   9.694  0.00  0.00    +0.000 A 
ENDBRANCH  12  13
BRANCH  12  19
ATOM     19  O   UNL     1      43.181   5.289  10.218  0.00  0.00    +0.000 OA
ATOM     20  H   UNL     1      42.569   4.934  10.883  0.00  0.00    +0.000 HD
ENDBRANCH  12  19
ENDBRANCH  11  12
ENDBRANCH   5  11
TORSDOF 5
ENDMDL
MODEL 8
REMARK VINA RESULT:    -5.205      4.904      7.823
REMARK INTER + INTRA:          -7.023
REMARK INTER:                  -6.785
REMARK INTRA:                  -0.238
REMARK UNBOUND:                -0.449
REMARK  Name = 
REMARK  5 active torsions:
REMARK  status: ('A' for Active; 'I' for Inactive)
REMARK    1  A    between atoms: C_2  and  C_3
REMARK    2  A    between atoms: N_7  and  C_8
REMARK    3  A    between atoms: C_8  and  C_9
REMARK    4  A    between atoms: C_9  and  O_10
REMARK    5  A    between atoms: C_9  and  C_11
REMARK                            x       y       z     vdW  Elec       q    Type
REMARK                         _______ _______ _______ _____ _____    ______ ____
ROOT
ATOM      1  C   UNL     1      49.456   4.617  18.419  0.00  0.00    +0.000 A 
ATOM      2  C   UNL     1      48.609   3.514  18.448  0.00  0.00    +0.000 A 
ATOM      3  C   UNL     1      47.672   3.353  17.429  0.00  0.00    +0.000 A 
ATOM      4  C   UNL     1      47.621   4.275  16.385  0.00  0.00    +0.000 A 
ATOM      5  N   UNL     1      46.777   3.993  15.317  0.00  0.00    +0.000 N 
ATOM      6  N   UNL     1      48.428   5.354  16.356  0.00  0.00    +0.000 NA
ATOM      7  C   UNL     1      49.316   5.509  17.369  0.00  0.00    +0.000 A 
ATOM      8  H   UNL     1      45.807   3.889  15.602  0.00  0.00    +0.000 HD
ENDROOT
BRANCH   1  10
ATOM      9  N   UNL     1      51.259   4.975  20.240  0.00  0.00    +0.000 NA
ATOM     10  C   UNL     1      50.452   4.816  19.418  0.00  0.00    +0.000 C 
ENDBRANCH   1  10
BRANCH   5  11
ATOM     11  C   UNL     1      46.927   4.815  14.114  0.00  0.00    +0.000 C 
BRANCH  11  12
ATOM     12  C   UNL     1      46.427   3.997  12.901  0.00  0.00    +0.000 C 
BRANCH  12  13
ATOM     13  C   UNL     1      45.079   4.454  12.383  0.00  0.00    +0.000 A 
ATOM     14  C   UNL     1      44.081   4.835  13.297  0.00  0.00    +0.000 A 
ATOM     15  C   UNL     1      42.833   5.271  12.852  0.00  0.00    +0.000 A 
ATOM     16  C   UNL     1      42.563   5.336  11.488  0.00  0.00    +0.000 A 
ATOM     17  C   UNL     1      43.538   4.954  10.569  0.00  0.00    +0.000 A 
ATOM     18  C   UNL     1      44.786   4.509  11.011  0.00  0.00    +0.000 A 
ENDBRANCH  12  13
BRANCH  12  19
ATOM     19  O   UNL     1      46.391   2.604  13.248  0.00  0.00    +0.000 OA
ATOM     20  H   UNL     1      47.308   2.294  13.318  0.00  0.00    +0.000 HD
ENDBRANCH  12  19
ENDBRANCH  11  12
ENDBRANCH   5  11
TORSDOF 5
ENDMDL
MODEL 9
REMARK VINA RESULT:    -5.144      5.178      7.483
REMARK INTER + INTRA:          -6.947
REMARK INTER:                  -6.549
REMARK INTRA:                  -0.398
REMARK UNBOUND:                -0.449
REMARK  Name = 
REMARK  5 active torsions:
REMARK  status: ('A' for Active; 'I' for Inactive)
REMARK    1  A    between atoms: C_2  and  C_3
REMARK    2  A    between atoms: N_7  and  C_8
REMARK    3  A    between atoms: C_8  and  C_9
REMARK    4  A    between atoms: C_9  and  O_10
REMARK    5  A    between atoms: C_9  and  C_11
REMARK                            x       y       z     vdW  Elec       q    Type
REMARK                         _______ _______ _______ _____ _____    ______ ____
ROOT
ATOM      1  C   UNL     1      47.592   6.992  13.236  0.00  0.00    +0.000 A 
ATOM      2  C   UNL     1      46.681   6.005  12.874  0.00  0.00    +0.000 A 
ATOM      3  C   UNL     1      46.599   4.846  13.644  0.00  0.00    +0.000 A 
ATOM      4  C   UNL     1      47.400   4.708  14.775  0.00  0.00    +0.000 A 
ATOM      5  N   UNL     1      47.177   3.607  15.594  0.00  0.00    +0.000 N 
ATOM      6  N   UNL     1      48.295   5.653  15.126  0.00  0.00    +0.000 NA
ATOM      7  C   UNL     1      48.381   6.763  14.351  0.00  0.00    +0.000 A 
ATOM      8  H   UNL     1      47.292   2.725  15.102  0.00  0.00    +0.000 HD
ENDROOT
BRANCH   1  10
ATOM      9  N   UNL     1      47.777   9.206  11.909  0.00  0.00    +0.000 NA
ATOM     10  C   UNL     1      47.698   8.210  12.504  0.00  0.00    +0.000 C 
ENDBRANCH   1  10
BRANCH   5  11
ATOM     11  C   UNL     1      47.827   3.610  16.907  0.00  0.00    +0.000 C 
BRANCH  11  12
ATOM     12  C   UNL     1      48.823   2.427  16.958  0.00  0.00    +0.000 C 
BRANCH  12  13
ATOM     13  C   UNL     1      50.212   2.831  17.408  0.00  0.00    +0.000 A 
ATOM     14  C   UNL     1      50.443   4.151  17.832  0.00  0.00    +0.000 A 
ATOM     15  C   UNL     1      51.709   4.552  18.263  0.00  0.00    +0.000 A 
ATOM     16  C   UNL     1      52.760   3.640  18.279  0.00  0.00    +0.000 A 
ATOM     17  C   UNL     1      52.549   2.329  17.853  0.00  0.00    +0.000 A 
ATOM     18  C   UNL     1      51.286   1.928  17.414  0.00  0.00    +0.000 A 
ENDBRANCH  12  13
BRANCH  12  19
ATOM     19  O   UNL     1      48.872   1.789  15.672  0.00  0.00    +0.000 OA
ATOM     20  H   UNL     1      49.666   1.232  15.650  0.00  0.00    +0.000 HD
ENDBRANCH  12  19
ENDBRANCH  11  12
ENDBRANCH   5  11
TORSDOF 5
ENDMDL
