MODEL 1
REMARK VINA RESULT:    -8.091      0.000      0.000
REMARK INTER + INTRA:         -10.417
REMARK INTER:                  -9.983
REMARK INTRA:                  -0.434
REMARK UNBOUND:                -0.434
REMARK  Name = 
REMARK  4 active torsions:
REMARK  status: ('A' for Active; 'I' for Inactive)
REMARK    1  A    between atoms: C_4  and  C_5
REMARK    2  A    between atoms: C_9  and  C_10
REMARK    3  A    between atoms: C_10  and  C_11
REMARK    4  A    between atoms: C_11  and  N_12
REMARK                            x       y       z     vdW  Elec       q    Type
REMARK                         _______ _______ _______ _____ _____    ______ ____
ROOT
ATOM      1  C   UNL     1      44.981   2.874  10.004  0.00  0.00    +0.000 A 
ATOM      2  C   UNL     1      43.798   2.199  10.292  0.00  0.00    +0.000 A 
ATOM      3  N   UNL     1      43.090   2.319  11.442  0.00  0.00    +0.000 NA
ATOM      4  C   UNL     1      43.590   3.156  12.376  0.00  0.00    +0.000 A 
ATOM      5  C   UNL     1      44.760   3.892  12.223  0.00  0.00    +0.000 A 
ATOM      6  C   UNL     1      45.451   3.731  11.013  0.00  0.00    +0.000 A 
ENDROOT
BRANCH   1  10
ATOM      7  C   UNL     1      47.051   2.172   6.383  0.00  0.00    +0.000 A 
ATOM      8  C   UNL     1      46.561   3.449   6.617  0.00  0.00    +0.000 A 
ATOM      9  C   UNL     1      45.889   3.716   7.808  0.00  0.00    +0.000 A 
ATOM     10  C   UNL     1      45.715   2.692   8.741  0.00  0.00    +0.000 A 
ATOM     11  N   UNL     1      46.214   1.446   8.525  0.00  0.00    +0.000 NA
ATOM     12  C   UNL     1      46.861   1.214   7.361  0.00  0.00    +0.000 A 
ENDBRANCH   1  10
BRANCH   5  13
ATOM     13  C   UNL     1      45.207   4.805  13.342  0.00  0.00    +0.000 C 
BRANCH  13  14
ATOM     14  C   UNL     1      46.703   4.747  13.662  0.00  0.00    +0.000 C 
BRANCH  14  15
ATOM     15  N   UNL     1      47.128   3.400  14.016  0.00  0.00    +0.000 N 
ATOM     16  C   UNL     1      47.530   3.319  15.353  0.00  0.00    +0.000 A 
ATOM     17  N   UNL     1      46.978   4.133  16.265  0.00  0.00    +0.000 NA
ATOM     18  C   UNL     1      47.431   4.049  17.525  0.00  0.00    +0.000 A 
ATOM     19  C   UNL     1      48.409   3.174  17.914  0.00  0.00    +0.000 A 
ATOM     20  C   UNL     1      48.909   2.377  16.913  0.00  0.00    +0.000 A 
ATOM     21  N   UNL     1      48.497   2.438  15.630  0.00  0.00    +0.000 NA
ATOM     22  H   UNL     1      47.897   3.016  13.478  0.00  0.00    +0.000 HD
ENDBRANCH  14  15
ENDBRANCH  13  14
ENDBRANCH   5  13
TORSDOF 4
ENDMDL
MODEL 2
REMARK VINA RESULT:    -8.004      2.634      3.433
REMARK INTER + INTRA:         -10.310
REMARK INTER:                  -9.631
REMARK INTRA:                  -0.679
REMARK UNBOUND:                -0.434
REMARK  Name = 
REMARK  4 active torsions:
REMARK  status: ('A' for Active; 'I' for Inactive)
REMARK    1  A    between atoms: C_4  and  C_5
REMARK    2  A    between atoms: C_9  and  C_10
REMARK    3  A    between atoms: C_10  and  C_11
REMARK    4  A    between atoms: C_11  and  N_12
REMARK                            x       y       z     vdW  Elec       q    Type
REMARK                         _______ _______ _______ _____ _____    ______ ____
ROOT
ATOM      1  C   UNL     1      44.672   3.160   9.515  0.00  0.00    +0.000 A 
ATOM      2  C   UNL     1      44.097   2.241  10.390  0.00  0.00    +0.000 A 
ATOM      3  N   UNL     1      43.272   2.553  11.419  0.00  0.00    +0.000 NA
ATOM      4  C   UNL     1      43.003   3.863  11.603  0.00  0.00    +0.000 A 
ATOM      5  C   UNL     1      43.509   4.886  10.809  0.00  0.00    +0.000 A 
ATOM      6  C   UNL     1      44.356   4.506   9.757  0.00  0.00    +0.000 A 
ENDROOT
BRANCH   1  10
ATOM      7  C   UNL     1      47.222   1.840   6.409  0.00  0.00    +0.000 A 
ATOM      8  C   UNL     1      46.730   3.136   6.343  0.00  0.00    +0.000 A 
ATOM      9  C   UNL     1      45.901   3.606   7.360  0.00  0.00    +0.000 A 
ATOM     10  C   UNL     1      45.574   2.761   8.422  0.00  0.00    +0.000 A 
ATOM     11  N   UNL     1      46.072   1.499   8.501  0.00  0.00    +0.000 NA
ATOM     12  C   UNL     1      46.873   1.068   7.501  0.00  0.00    +0.000 A 
ENDBRANCH   1  10
BRANCH   5  13
ATOM     13  C   UNL     1      43.121   6.316  11.114  0.00  0.00    +0.000 C 
BRANCH  13  14
ATOM     14  C   UNL     1      44.294   7.247  11.434  0.00  0.00    +0.000 C 
BRANCH  14  15
ATOM     15  N   UNL     1      44.843   6.987  12.758  0.00  0.00    +0.000 N 
ATOM     16  C   UNL     1      46.241   6.998  12.749  0.00  0.00    +0.000 A 
ATOM     17  N   UNL     1      46.896   7.768  11.867  0.00  0.00    +0.000 NA
ATOM     18  C   UNL     1      48.236   7.707  11.866  0.00  0.00    +0.000 A 
ATOM     19  C   UNL     1      48.952   6.915  12.723  0.00  0.00    +0.000 A 
ATOM     20  C   UNL     1      48.196   6.169  13.594  0.00  0.00    +0.000 A 
ATOM     21  N   UNL     1      46.848   6.184  13.620  0.00  0.00    +0.000 NA
ATOM     22  H   UNL     1      44.582   6.107  13.188  0.00  0.00    +0.000 HD
ENDBRANCH  14  15
ENDBRANCH  13  14
ENDBRANCH   5  13
TORSDOF 4
ENDMDL
MODEL 3
REMARK VINA RESULT:    -7.923      2.825      7.138
REMARK INTER + INTRA:         -10.210
REMARK INTER:                  -9.632
REMARK INTRA:                  -0.578
REMARK UNBOUND:                -0.434
REMARK  Name = 
REMARK  4 active torsions:
REMARK  status: ('A' for Active; 'I' for Inactive)
REMARK    1  A    between atoms: C_4  and  C_5
REMARK    2  A    between atoms: C_9  and  C_10
REMARK    3  A    between atoms: C_10  and  C_11
REMARK    4  A    between atoms: C_11  and  N_12
REMARK                            x       y       z     vdW  Elec       q    Type
REMARK                         _______ _______ _______ _____ _____    ______ ____
ROOT
ATOM      1  C   UNL     1      47.233   6.066  12.896  0.00  0.00    +0.000 A 
ATOM      2  C   UNL     1      47.029   5.127  13.904  0.00  0.00    +0.000 A 
ATOM      3  N   UNL     1      45.944   4.321  14.012  0.00  0.00    +0.000 NA
ATOM      4  C   UNL     1      44.992   4.458  13.064  0.00  0.00    +0.000 A 
ATOM      5  C   UNL     1      45.064   5.354  12.004  0.00  0.00    +0.000 A 
ATOM      6  C   UNL     1      46.209   6.162  11.940  0.00  0.00    +0.000 A 
ENDROOT
BRANCH   1  10
ATOM      7  C   UNL     1      50.742   8.429  12.860  0.00  0.00    +0.000 A 
ATOM      8  C   UNL     1      49.926   8.455  11.738  0.00  0.00    +0.000 A 
ATOM      9  C   UNL     1      48.755   7.700  11.725  0.00  0.00    +0.000 A 
ATOM     10  C   UNL     1      48.427   6.926  12.840  0.00  0.00    +0.000 A 
ATOM     11  N   UNL     1      49.212   6.916  13.949  0.00  0.00    +0.000 NA
ATOM     12  C   UNL     1      50.343   7.656  13.934  0.00  0.00    +0.000 A 
ENDBRANCH   1  10
BRANCH   5  13
ATOM     13  C   UNL     1      43.933   5.402  11.001  0.00  0.00    +0.000 C 
BRANCH  13  14
ATOM     14  C   UNL     1      43.803   4.157  10.119  0.00  0.00    +0.000 C 
BRANCH  14  15
ATOM     15  N   UNL     1      44.159   4.436   8.734  0.00  0.00    +0.000 N 
ATOM     16  C   UNL     1      45.111   3.533   8.253  0.00  0.00    +0.000 A 
ATOM     17  N   UNL     1      45.150   2.283   8.739  0.00  0.00    +0.000 NA
ATOM     18  C   UNL     1      46.112   1.469   8.280  0.00  0.00    +0.000 A 
ATOM     19  C   UNL     1      47.034   1.851   7.343  0.00  0.00    +0.000 A 
ATOM     20  C   UNL     1      46.910   3.145   6.899  0.00  0.00    +0.000 A 
ATOM     21  N   UNL     1      45.971   4.004   7.344  0.00  0.00    +0.000 NA
ATOM     22  H   UNL     1      44.539   5.357   8.546  0.00  0.00    +0.000 HD
ENDBRANCH  14  15
ENDBRANCH  13  14
ENDBRANCH   5  13
TORSDOF 4
ENDMDL
MODEL 4
REMARK VINA RESULT:    -7.702      1.608      7.554
REMARK INTER + INTRA:          -9.937
REMARK INTER:                  -9.289
REMARK INTRA:                  -0.648
REMARK UNBOUND:                -0.434
REMARK  Name = 
REMARK  4 active torsions:
REMARK  status: ('A' for Active; 'I' for Inactive)
REMARK    1  A    between atoms: C_4  and  C_5
REMARK    2  A    between atoms: C_9  and  C_10
REMARK    3  A    between atoms: C_10  and  C_11
REMARK    4  A    between atoms: C_11  and  N_12
REMARK                            x       y       z     vdW  Elec       q    Type
REMARK                         _______ _______ _______ _____ _____    ______ ____
ROOT
ATOM      1  C   UNL     1      46.683   5.180  13.420  0.00  0.00    +0.000 A 
ATOM      2  C   UNL     1      47.007   6.219  12.551  0.00  0.00    +0.000 A 
ATOM      3  N   UNL     1      46.417   6.445  11.351  0.00  0.00    +0.000 NA
ATOM      4  C   UNL     1      45.447   5.582  10.982  0.00  0.00    +0.000 A 
ATOM      5  C   UNL     1      45.024   4.502  11.749  0.00  0.00    +0.000 A 
ATOM      6  C   UNL     1      45.668   4.316  12.982  0.00  0.00    +0.000 A 
ENDROOT
BRANCH   1  10
ATOM      7  C   UNL     1      48.682   4.774  17.127  0.00  0.00    +0.000 A 
ATOM      8  C   UNL     1      47.818   3.760  16.736  0.00  0.00    +0.000 A 
ATOM      9  C   UNL     1      47.158   3.857  15.513  0.00  0.00    +0.000 A 
ATOM     10  C   UNL     1      47.371   4.976  14.707  0.00  0.00    +0.000 A 
ATOM     11  N   UNL     1      48.233   5.960  15.075  0.00  0.00    +0.000 NA
ATOM     12  C   UNL     1      48.860   5.841  16.267  0.00  0.00    +0.000 A 
ENDBRANCH   1  10
BRANCH   5  13
ATOM     13  C   UNL     1      43.917   3.614  11.225  0.00  0.00    +0.000 C 
BRANCH  13  14
ATOM     14  C   UNL     1      44.128   3.096   9.800  0.00  0.00    +0.000 C 
BRANCH  14  15
ATOM     15  N   UNL     1      45.178   2.089   9.741  0.00  0.00    +0.000 N 
ATOM     16  C   UNL     1      45.927   2.191   8.566  0.00  0.00    +0.000 A 
ATOM     17  N   UNL     1      46.080   3.386   7.975  0.00  0.00    +0.000 NA
ATOM     18  C   UNL     1      46.768   3.425   6.824  0.00  0.00    +0.000 A 
ATOM     19  C   UNL     1      47.321   2.316   6.243  0.00  0.00    +0.000 A 
ATOM     20  C   UNL     1      47.119   1.140   6.923  0.00  0.00    +0.000 A 
ATOM     21  N   UNL     1      46.420   1.050   8.073  0.00  0.00    +0.000 NA
ATOM     22  H   UNL     1      44.875   1.122   9.786  0.00  0.00    +0.000 HD
ENDBRANCH  14  15
ENDBRANCH  13  14
ENDBRANCH   5  13
TORSDOF 4
ENDMDL
MODEL 5
REMARK VINA RESULT:    -7.441      2.901      3.269
REMARK INTER + INTRA:          -9.614
REMARK INTER:                  -9.137
REMARK INTRA:                  -0.478
REMARK UNBOUND:                -0.434
REMARK  Name = 
REMARK  4 active torsions:
REMARK  status: ('A' for Active; 'I' for Inactive)
REMARK    1  A    between atoms: C_4  and  C_5
REMARK    2  A    between atoms: C_9  and  C_10
REMARK    3  A    between atoms: C_10  and  C_11
REMARK    4  A    between atoms: C_11  and  N_12
REMARK                            x       y       z     vdW  Elec       q    Type
REMARK                         _______ _______ _______ _____ _____    ______ ____
ROOT
ATOM      1  C   UNL     1      45.030   3.354   9.344  0.00  0.00    +0.000 A 
ATOM      2  C   UNL     1      44.113   2.559  10.028  0.00  0.00    +0.000 A 
ATOM      3  N   UNL     1      43.375   2.958  11.093  0.00  0.00    +0.000 NA
ATOM      4  C   UNL     1      43.562   4.227  11.517  0.00  0.00    +0.000 A 
ATOM      5  C   UNL     1      44.444   5.128  10.930  0.00  0.00    +0.000 A 
ATOM      6  C   UNL     1      45.180   4.662   9.831  0.00  0.00    +0.000 A 
ENDROOT
BRANCH   1  10
ATOM      7  C   UNL     1      47.329   2.104   6.020  0.00  0.00    +0.000 A 
ATOM      8  C   UNL     1      47.097   1.186   7.035  0.00  0.00    +0.000 A 
ATOM      9  C   UNL     1      46.329   1.563   8.135  0.00  0.00    +0.000 A 
ATOM     10  C   UNL     1      45.814   2.859   8.200  0.00  0.00    +0.000 A 
ATOM     11  N   UNL     1      46.020   3.753   7.197  0.00  0.00    +0.000 NA
ATOM     12  C   UNL     1      46.769   3.361   6.142  0.00  0.00    +0.000 A 
ENDBRANCH   1  10
BRANCH   5  13
ATOM     13  C   UNL     1      44.552   6.526  11.494  0.00  0.00    +0.000 C 
BRANCH  13  14
ATOM     14  C   UNL     1      45.981   7.059  11.627  0.00  0.00    +0.000 C 
BRANCH  14  15
ATOM     15  N   UNL     1      46.784   6.236  12.521  0.00  0.00    +0.000 N 
ATOM     16  C   UNL     1      47.600   7.015  13.347  0.00  0.00    +0.000 A 
ATOM     17  N   UNL     1      47.204   8.245  13.707  0.00  0.00    +0.000 NA
ATOM     18  C   UNL     1      48.044   8.970  14.461  0.00  0.00    +0.000 A 
ATOM     19  C   UNL     1      49.263   8.510  14.881  0.00  0.00    +0.000 A 
ATOM     20  C   UNL     1      49.578   7.238  14.469  0.00  0.00    +0.000 A 
ATOM     21  N   UNL     1      48.775   6.479  13.697  0.00  0.00    +0.000 NA
ATOM     22  H   UNL     1      47.405   5.567  12.080  0.00  0.00    +0.000 HD
ENDBRANCH  14  15
ENDBRANCH  13  14
ENDBRANCH   5  13
TORSDOF 4
ENDMDL
MODEL 6
REMARK VINA RESULT:    -6.747      2.348      7.913
REMARK INTER + INTRA:          -8.759
REMARK INTER:                  -8.288
REMARK INTRA:                  -0.471
REMARK UNBOUND:                -0.434
REMARK  Name = 
REMARK  4 active torsions:
REMARK  status: ('A' for Active; 'I' for Inactive)
REMARK    1  A    between atoms: C_4  and  C_5
REMARK    2  A    between atoms: C_9  and  C_10
REMARK    3  A    between atoms: C_10  and  C_11
REMARK    4  A    between atoms: C_11  and  N_12
REMARK                            x       y       z     vdW  Elec       q    Type
REMARK                         _______ _______ _______ _____ _____    ______ ____
ROOT
ATOM      1  C   UNL     1      47.756   6.109  14.422  0.00  0.00    +0.000 A 
ATOM      2  C   UNL     1      48.532   7.238  14.169  0.00  0.00    +0.000 A 
ATOM      3  N   UNL     1      48.316   8.126  13.168  0.00  0.00    +0.000 NA
ATOM      4  C   UNL     1      47.266   7.879  12.356  0.00  0.00    +0.000 A 
ATOM      5  C   UNL     1      46.409   6.792  12.491  0.00  0.00    +0.000 A 
ATOM      6  C   UNL     1      46.679   5.906  13.545  0.00  0.00    +0.000 A 
ENDROOT
BRANCH   1  10
ATOM      7  C   UNL     1      48.695   3.544  17.652  0.00  0.00    +0.000 A 
ATOM      8  C   UNL     1      47.568   3.256  16.896  0.00  0.00    +0.000 A 
ATOM      9  C   UNL     1      47.241   4.073  15.816  0.00  0.00    +0.000 A 
ATOM     10  C   UNL     1      48.050   5.171  15.517  0.00  0.00    +0.000 A 
ATOM     11  N   UNL     1      49.168   5.443  16.241  0.00  0.00    +0.000 NA
ATOM     12  C   UNL     1      49.461   4.635  17.285  0.00  0.00    +0.000 A 
ENDBRANCH   1  10
BRANCH   5  13
ATOM     13  C   UNL     1      45.260   6.635  11.521  0.00  0.00    +0.000 C 
BRANCH  13  14
ATOM     14  C   UNL     1      45.212   5.289  10.792  0.00  0.00    +0.000 C 
BRANCH  14  15
ATOM     15  N   UNL     1      45.283   5.454   9.347  0.00  0.00    +0.000 N 
ATOM     16  C   UNL     1      45.629   4.261   8.707  0.00  0.00    +0.000 A 
ATOM     17  N   UNL     1      45.281   3.086   9.253  0.00  0.00    +0.000 NA
ATOM     18  C   UNL     1      45.677   1.969   8.625  0.00  0.00    +0.000 A 
ATOM     19  C   UNL     1      46.401   1.978   7.463  0.00  0.00    +0.000 A 
ATOM     20  C   UNL     1      46.704   3.226   6.976  0.00  0.00    +0.000 A 
ATOM     21  N   UNL     1      46.342   4.375   7.581  0.00  0.00    +0.000 NA
ATOM     22  H   UNL     1      45.942   6.145   9.006  0.00  0.00    +0.000 HD
ENDBRANCH  14  15
ENDBRANCH  13  14
ENDBRANCH   5  13
TORSDOF 4
ENDMDL
MODEL 7
REMARK VINA RESULT:    -6.745      2.415      3.482
REMARK INTER + INTRA:          -8.757
REMARK INTER:                  -8.350
REMARK INTRA:                  -0.407
REMARK UNBOUND:                -0.434
REMARK  Name = 
REMARK  4 active torsions:
REMARK  status: ('A' for Active; 'I' for Inactive)
REMARK    1  A    between atoms: C_4  and  C_5
REMARK    2  A    between atoms: C_9  and  C_10
REMARK    3  A    between atoms: C_10  and  C_11
REMARK    4  A    between atoms: C_11  and  N_12
REMARK                            x       y       z     vdW  Elec       q    Type
REMARK                         _______ _______ _______ _____ _____    ______ ____
ROOT
ATOM      1  C   UNL     1      45.516   6.194  11.197  0.00  0.00    +0.000 A 
ATOM      2  C   UNL     1      44.684   7.310  11.229  0.00  0.00    +0.000 A 
ATOM      3  N   UNL     1      44.900   8.424  11.971  0.00  0.00    +0.000 NA
ATOM      4  C   UNL     1      46.009   8.432  12.741  0.00  0.00    +0.000 A 
ATOM      5  C   UNL     1      46.925   7.388  12.808  0.00  0.00    +0.000 A 
ATOM      6  C   UNL     1      46.653   6.261  12.018  0.00  0.00    +0.000 A 
ENDROOT
BRANCH   1  10
ATOM      7  C   UNL     1      44.524   2.744   8.958  0.00  0.00    +0.000 A 
ATOM      8  C   UNL     1      45.278   3.730   8.338  0.00  0.00    +0.000 A 
ATOM      9  C   UNL     1      45.635   4.871   9.054  0.00  0.00    +0.000 A 
ATOM     10  C   UNL     1      45.221   5.004  10.380  0.00  0.00    +0.000 A 
ATOM     11  N   UNL     1      44.501   4.030  10.998  0.00  0.00    +0.000 NA
ATOM     12  C   UNL     1      44.168   2.935  10.280  0.00  0.00    +0.000 A 
ENDBRANCH   1  10
BRANCH   5  13
ATOM     13  C   UNL     1      48.136   7.527  13.703  0.00  0.00    +0.000 C 
BRANCH  13  14
ATOM     14  C   UNL     1      48.538   6.249  14.444  0.00  0.00    +0.000 C 
BRANCH  14  15
ATOM     15  N   UNL     1      47.436   5.710  15.230  0.00  0.00    +0.000 N 
ATOM     16  C   UNL     1      47.886   4.814  16.204  0.00  0.00    +0.000 A 
ATOM     17  N   UNL     1      49.107   4.967  16.738  0.00  0.00    +0.000 NA
ATOM     18  C   UNL     1      49.511   4.054  17.634  0.00  0.00    +0.000 A 
ATOM     19  C   UNL     1      48.736   2.996  18.028  0.00  0.00    +0.000 A 
ATOM     20  C   UNL     1      47.500   2.926  17.433  0.00  0.00    +0.000 A 
ATOM     21  N   UNL     1      47.059   3.810  16.515  0.00  0.00    +0.000 NA
ATOM     22  H   UNL     1      46.719   5.212  14.714  0.00  0.00    +0.000 HD
ENDBRANCH  14  15
ENDBRANCH  13  14
ENDBRANCH   5  13
TORSDOF 4
ENDMDL
MODEL 8
REMARK VINA RESULT:    -6.476      2.151      7.970
REMARK INTER + INTRA:          -8.424
REMARK INTER:                  -7.876
REMARK INTRA:                  -0.548
REMARK UNBOUND:                -0.434
REMARK  Name = 
REMARK  4 active torsions:
REMARK  status: ('A' for Active; 'I' for Inactive)
REMARK    1  A    between atoms: C_4  and  C_5
REMARK    2  A    between atoms: C_9  and  C_10
REMARK    3  A    between atoms: C_10  and  C_11
REMARK    4  A    between atoms: C_11  and  N_12
REMARK                            x       y       z     vdW  Elec       q    Type
REMARK                         _______ _______ _______ _____ _____    ______ ____
ROOT
ATOM      1  C   UNL     1      47.546   4.967  15.025  0.00  0.00    +0.000 A 
ATOM      2  C   UNL     1      47.403   3.587  14.904  0.00  0.00    +0.000 A 
ATOM      3  N   UNL     1      46.794   2.952  13.872  0.00  0.00    +0.000 NA
ATOM      4  C   UNL     1      46.284   3.735  12.897  0.00  0.00    +0.000 A 
ATOM      5  C   UNL     1      46.353   5.123  12.889  0.00  0.00    +0.000 A 
ATOM      6  C   UNL     1      46.996   5.727  13.980  0.00  0.00    +0.000 A 
ENDROOT
BRANCH   1  10
ATOM      7  C   UNL     1      49.417   6.632  18.434  0.00  0.00    +0.000 A 
ATOM      8  C   UNL     1      49.722   7.172  17.192  0.00  0.00    +0.000 A 
ATOM      9  C   UNL     1      49.110   6.656  16.052  0.00  0.00    +0.000 A 
ATOM     10  C   UNL     1      48.206   5.600  16.179  0.00  0.00    +0.000 A 
ATOM     11  N   UNL     1      47.887   5.084  17.395  0.00  0.00    +0.000 NA
ATOM     12  C   UNL     1      48.496   5.603  18.484  0.00  0.00    +0.000 A 
ENDBRANCH   1  10
BRANCH   5  13
ATOM     13  C   UNL     1      45.752   5.885  11.730  0.00  0.00    +0.000 C 
BRANCH  13  14
ATOM     14  C   UNL     1      44.681   5.122  10.945  0.00  0.00    +0.000 C 
BRANCH  14  15
ATOM     15  N   UNL     1      44.822   5.317   9.509  0.00  0.00    +0.000 N 
ATOM     16  C   UNL     1      45.333   4.178   8.880  0.00  0.00    +0.000 A 
ATOM     17  N   UNL     1      45.081   2.964   9.392  0.00  0.00    +0.000 NA
ATOM     18  C   UNL     1      45.633   1.906   8.780  0.00  0.00    +0.000 A 
ATOM     19  C   UNL     1      46.421   2.011   7.666  0.00  0.00    +0.000 A 
ATOM     20  C   UNL     1      46.617   3.292   7.210  0.00  0.00    +0.000 A 
ATOM     21  N   UNL     1      46.097   4.386   7.802  0.00  0.00    +0.000 NA
ATOM     22  H   UNL     1      45.421   6.080   9.216  0.00  0.00    +0.000 HD
ENDBRANCH  14  15
ENDBRANCH  13  14
ENDBRANCH   5  13
TORSDOF 4
ENDMDL
MODEL 9
REMARK VINA RESULT:    -5.828      3.430      4.105
REMARK INTER + INTRA:          -7.624
REMARK INTER:                  -7.098
REMARK INTRA:                  -0.526
REMARK UNBOUND:                -0.434
REMARK  Name = 
REMARK  4 active torsions:
REMARK  status: ('A' for Active; 'I' for Inactive)
REMARK    1  A    between atoms: C_4  and  C_5
REMARK    2  A    between atoms: C_9  and  C_10
REMARK    3  A    between atoms: C_10  and  C_11
REMARK    4  A    between atoms: C_11  and  N_12
REMARK                            x       y       z     vdW  Elec       q    Type
REMARK                         _______ _______ _______ _____ _____    ______ ____
ROOT
ATOM      1  C   UNL     1      44.909   4.296  10.656  0.00  0.00    +0.000 A 
ATOM      2  C   UNL     1      44.214   3.634  11.664  0.00  0.00    +0.000 A 
ATOM      3  N   UNL     1      43.739   4.212  12.795  0.00  0.00    +0.000 NA
ATOM      4  C   UNL     1      43.975   5.533  12.944  0.00  0.00    +0.000 A 
ATOM      5  C   UNL     1      44.655   6.317  12.019  0.00  0.00    +0.000 A 
ATOM      6  C   UNL     1      45.123   5.668  10.867  0.00  0.00    +0.000 A 
ENDROOT
BRANCH   1  10
ATOM      7  C   UNL     1      46.261   2.179   7.252  0.00  0.00    +0.000 A 
ATOM      8  C   UNL     1      46.289   3.566   7.212  0.00  0.00    +0.000 A 
ATOM      9  C   UNL     1      45.866   4.291   8.323  0.00  0.00    +0.000 A 
ATOM     10  C   UNL     1      45.414   3.610   9.455  0.00  0.00    +0.000 A 
ATOM     11  N   UNL     1      45.406   2.252   9.506  0.00  0.00    +0.000 NA
ATOM     12  C   UNL     1      45.822   1.572   8.414  0.00  0.00    +0.000 A 
ENDBRANCH   1  10
BRANCH   5  13
ATOM     13  C   UNL     1      44.843   7.791  12.299  0.00  0.00    +0.000 C 
BRANCH  13  14
ATOM     14  C   UNL     1      46.099   8.139  13.104  0.00  0.00    +0.000 C 
BRANCH  14  15
ATOM     15  N   UNL     1      47.125   8.747  12.268  0.00  0.00    +0.000 N 
ATOM     16  C   UNL     1      48.398   8.603  12.826  0.00  0.00    +0.000 A 
ATOM     17  N   UNL     1      48.673   7.537  13.593  0.00  0.00    +0.000 NA
ATOM     18  C   UNL     1      49.894   7.468  14.144  0.00  0.00    +0.000 A 
ATOM     19  C   UNL     1      50.860   8.418  13.949  0.00  0.00    +0.000 A 
ATOM     20  C   UNL     1      50.490   9.467  13.143  0.00  0.00    +0.000 A 
ATOM     21  N   UNL     1      49.269   9.588  12.583  0.00  0.00    +0.000 NA
ATOM     22  H   UNL     1      47.022   9.738  12.082  0.00  0.00    +0.000 HD
ENDBRANCH  14  15
ENDBRANCH  13  14
ENDBRANCH   5  13
TORSDOF 4
ENDMDL
