MODEL 1
REMARK VINA RESULT:    -7.771      0.000      0.000
REMARK INTER + INTRA:         -10.077
REMARK INTER:                  -9.588
REMARK INTRA:                  -0.489
REMARK UNBOUND:                -0.489
REMARK  Name = 
REMARK  5 active torsions:
REMARK  status: ('A' for Active; 'I' for Inactive)
REMARK    1  A    between atoms: C_1  and  C_2
REMARK    2  A    between atoms: C_5  and  O_6
REMARK    3  A    between atoms: O_6  and  C_7
REMARK    4  A    between atoms: C_7  and  C_8
REMARK    5  A    between atoms: C_11  and  C_12
REMARK                            x       y       z     vdW  Elec       q    Type
REMARK                         _______ _______ _______ _____ _____    ______ ____
ROOT
ATOM      1  C   UNL     1      44.470   3.815  12.184  0.00  0.00    +0.000 A 
ATOM      2  N   UNL     1      45.618   3.284  12.700  0.00  0.00    +0.000 NA
ATOM      3  C   UNL     1      46.499   4.137  13.279  0.00  0.00    +0.000 A 
ATOM      4  C   UNL     1      46.304   5.511  13.343  0.00  0.00    +0.000 A 
ATOM      5  C   UNL     1      45.092   6.028  12.894  0.00  0.00    +0.000 A 
ATOM      6  C   UNL     1      44.157   5.173  12.313  0.00  0.00    +0.000 A 
ATOM      7 CL   UNL     1      42.691   5.861  11.723  0.00  0.00    +0.000 Cl
ENDROOT
BRANCH   4   8
ATOM      8  C   UNL     1      47.400   6.368  13.827  0.00  0.00    +0.000 C 
ATOM      9  N   UNL     1      47.114   7.694  14.016  0.00  0.00    +0.000 N 
ATOM     10  O   UNL     1      48.533   5.929  13.984  0.00  0.00    +0.000 OA
ATOM     11  H   UNL     1      46.270   8.129  13.662  0.00  0.00    +0.000 HD
ATOM     12  H   UNL     1      47.901   8.303  14.202  0.00  0.00    +0.000 HD
ENDBRANCH   4   8
BRANCH   1  13
ATOM     13  C   UNL     1      43.614   2.881  11.359  0.00  0.00    +0.000 C 
BRANCH  13  14
ATOM     14  O   UNL     1      43.481   3.341  10.012  0.00  0.00    +0.000 OA
BRANCH  14  19
ATOM     15  C   UNL     1      47.779   1.847   6.734  0.00  0.00    +0.000 C 
ATOM     16  C   UNL     1      46.647   2.306   7.604  0.00  0.00    +0.000 A 
ATOM     17  C   UNL     1      46.275   3.647   7.625  0.00  0.00    +0.000 A 
ATOM     18  C   UNL     1      45.204   4.039   8.429  0.00  0.00    +0.000 A 
ATOM     19  C   UNL     1      44.535   3.087   9.187  0.00  0.00    +0.000 A 
ATOM     20  C   UNL     1      45.015   1.786   9.152  0.00  0.00    +0.000 A 
ATOM     21  N   UNL     1      46.046   1.372   8.376  0.00  0.00    +0.000 NA
ENDBRANCH  14  19
ENDBRANCH  13  14
ENDBRANCH   1  13
TORSDOF 4
ENDMDL
MODEL 2
REMARK VINA RESULT:    -7.754      2.351      6.117
REMARK INTER + INTRA:         -10.056
REMARK INTER:                  -9.602
REMARK INTRA:                  -0.454
REMARK UNBOUND:                -0.489
REMARK  Name = 
REMARK  5 active torsions:
REMARK  status: ('A' for Active; 'I' for Inactive)
REMARK    1  A    between atoms: C_1  and  C_2
REMARK    2  A    between atoms: C_5  and  O_6
REMARK    3  A    between atoms: O_6  and  C_7
REMARK    4  A    between atoms: C_7  and  C_8
REMARK    5  A    between atoms: C_11  and  C_12
REMARK                            x       y       z     vdW  Elec       q    Type
REMARK                         _______ _______ _______ _____ _____    ______ ____
ROOT
ATOM      1  C   UNL     1      44.936   4.214   9.288  0.00  0.00    +0.000 A 
ATOM      2  N   UNL     1      45.701   4.759   8.296  0.00  0.00    +0.000 NA
ATOM      3  C   UNL     1      46.426   3.910   7.525  0.00  0.00    +0.000 A 
ATOM      4  C   UNL     1      46.450   2.535   7.716  0.00  0.00    +0.000 A 
ATOM      5  C   UNL     1      45.599   1.985   8.672  0.00  0.00    +0.000 A 
ATOM      6  C   UNL     1      44.825   2.830   9.464  0.00  0.00    +0.000 A 
ATOM      7 CL   UNL     1      43.824   2.113  10.671  0.00  0.00    +0.000 Cl
ENDROOT
BRANCH   4   8
ATOM      8  C   UNL     1      47.408   1.722   6.947  0.00  0.00    +0.000 C 
ATOM      9  N   UNL     1      48.465   2.381   6.378  0.00  0.00    +0.000 N 
ATOM     10  O   UNL     1      47.228   0.524   6.765  0.00  0.00    +0.000 OA
ATOM     11  H   UNL     1      48.505   3.391   6.301  0.00  0.00    +0.000 HD
ATOM     12  H   UNL     1      49.033   1.849   5.731  0.00  0.00    +0.000 HD
ENDBRANCH   4   8
BRANCH   1  13
ATOM     13  C   UNL     1      44.312   5.188  10.261  0.00  0.00    +0.000 C 
BRANCH  13  14
ATOM     14  O   UNL     1      45.285   6.081  10.810  0.00  0.00    +0.000 OA
BRANCH  14  19
ATOM     15  C   UNL     1      47.296   4.184  15.689  0.00  0.00    +0.000 C 
ATOM     16  C   UNL     1      46.800   4.739  14.388  0.00  0.00    +0.000 A 
ATOM     17  C   UNL     1      47.544   5.691  13.698  0.00  0.00    +0.000 A 
ATOM     18  C   UNL     1      47.065   6.172  12.479  0.00  0.00    +0.000 A 
ATOM     19  C   UNL     1      45.861   5.691  11.981  0.00  0.00    +0.000 A 
ATOM     20  C   UNL     1      45.157   4.789  12.766  0.00  0.00    +0.000 A 
ATOM     21  N   UNL     1      45.598   4.298  13.948  0.00  0.00    +0.000 NA
ENDBRANCH  14  19
ENDBRANCH  13  14
ENDBRANCH   1  13
TORSDOF 4
ENDMDL
MODEL 3
REMARK VINA RESULT:    -7.439      1.948      2.179
REMARK INTER + INTRA:          -9.667
REMARK INTER:                  -9.290
REMARK INTRA:                  -0.377
REMARK UNBOUND:                -0.489
REMARK  Name = 
REMARK  5 active torsions:
REMARK  status: ('A' for Active; 'I' for Inactive)
REMARK    1  A    between atoms: C_1  and  C_2
REMARK    2  A    between atoms: C_5  and  O_6
REMARK    3  A    between atoms: O_6  and  C_7
REMARK    4  A    between atoms: C_7  and  C_8
REMARK    5  A    between atoms: C_11  and  C_12
REMARK                            x       y       z     vdW  Elec       q    Type
REMARK                         _______ _______ _______ _____ _____    ______ ____
ROOT
ATOM      1  C   UNL     1      44.765   4.713  11.636  0.00  0.00    +0.000 A 
ATOM      2  N   UNL     1      44.192   5.814  11.066  0.00  0.00    +0.000 NA
ATOM      3  C   UNL     1      44.589   7.031  11.514  0.00  0.00    +0.000 A 
ATOM      4  C   UNL     1      45.517   7.205  12.533  0.00  0.00    +0.000 A 
ATOM      5  C   UNL     1      46.158   6.079  13.044  0.00  0.00    +0.000 A 
ATOM      6  C   UNL     1      45.787   4.816  12.587  0.00  0.00    +0.000 A 
ATOM      7 CL   UNL     1      46.568   3.445  13.281  0.00  0.00    +0.000 Cl
ENDROOT
BRANCH   4   8
ATOM      8  C   UNL     1      45.744   8.558  13.071  0.00  0.00    +0.000 C 
ATOM      9  N   UNL     1      44.777   9.495  12.823  0.00  0.00    +0.000 N 
ATOM     10  O   UNL     1      46.784   8.849  13.650  0.00  0.00    +0.000 OA
ATOM     11  H   UNL     1      44.038   9.354  12.145  0.00  0.00    +0.000 HD
ATOM     12  H   UNL     1      45.004  10.452  13.062  0.00  0.00    +0.000 HD
ENDBRANCH   4   8
BRANCH   1  13
ATOM     13  C   UNL     1      44.153   3.378  11.274  0.00  0.00    +0.000 C 
BRANCH  13  14
ATOM     14  O   UNL     1      43.777   3.328   9.896  0.00  0.00    +0.000 OA
BRANCH  14  19
ATOM     15  C   UNL     1      47.877   1.771   6.401  0.00  0.00    +0.000 C 
ATOM     16  C   UNL     1      46.797   2.248   7.325  0.00  0.00    +0.000 A 
ATOM     17  C   UNL     1      46.392   3.579   7.308  0.00  0.00    +0.000 A 
ATOM     18  C   UNL     1      45.369   3.986   8.166  0.00  0.00    +0.000 A 
ATOM     19  C   UNL     1      44.778   3.058   9.013  0.00  0.00    +0.000 A 
ATOM     20  C   UNL     1      45.287   1.767   9.005  0.00  0.00    +0.000 A 
ATOM     21  N   UNL     1      46.273   1.339   8.181  0.00  0.00    +0.000 NA
ENDBRANCH  14  19
ENDBRANCH  13  14
ENDBRANCH   1  13
TORSDOF 4
ENDMDL
MODEL 4
REMARK VINA RESULT:    -7.235      1.246      1.262
REMARK INTER + INTRA:          -9.416
REMARK INTER:                  -9.050
REMARK INTRA:                  -0.366
REMARK UNBOUND:                -0.489
REMARK  Name = 
REMARK  5 active torsions:
REMARK  status: ('A' for Active; 'I' for Inactive)
REMARK    1  A    between atoms: C_1  and  C_2
REMARK    2  A    between atoms: C_5  and  O_6
REMARK    3  A    between atoms: O_6  and  C_7
REMARK    4  A    between atoms: C_7  and  C_8
REMARK    5  A    between atoms: C_11  and  C_12
REMARK                            x       y       z     vdW  Elec       q    Type
REMARK                         _______ _______ _______ _____ _____    ______ ____
ROOT
ATOM      1  C   UNL     1      44.485   4.829  11.626  0.00  0.00    +0.000 A 
ATOM      2  N   UNL     1      44.847   3.664  12.241  0.00  0.00    +0.000 NA
ATOM      3  C   UNL     1      45.722   3.747  13.275  0.00  0.00    +0.000 A 
ATOM      4  C   UNL     1      46.280   4.941  13.710  0.00  0.00    +0.000 A 
ATOM      5  C   UNL     1      45.835   6.129  13.134  0.00  0.00    +0.000 A 
ATOM      6  C   UNL     1      44.921   6.077  12.084  0.00  0.00    +0.000 A 
ATOM      7 CL   UNL     1      44.435   7.566  11.363  0.00  0.00    +0.000 Cl
ENDROOT
BRANCH   4   8
ATOM      8  C   UNL     1      47.355   4.904  14.717  0.00  0.00    +0.000 C 
ATOM      9  N   UNL     1      47.893   6.106  15.096  0.00  0.00    +0.000 N 
ATOM     10  O   UNL     1      47.797   3.843  15.142  0.00  0.00    +0.000 OA
ATOM     11  H   UNL     1      47.725   6.966  14.588  0.00  0.00    +0.000 HD
ATOM     12  H   UNL     1      48.726   6.066  15.670  0.00  0.00    +0.000 HD
ENDBRANCH   4   8
BRANCH   1  13
ATOM     13  C   UNL     1      43.686   4.689  10.350  0.00  0.00    +0.000 C 
BRANCH  13  14
ATOM     14  O   UNL     1      43.746   3.357   9.834  0.00  0.00    +0.000 OA
BRANCH  14  19
ATOM     15  C   UNL     1      47.950   1.830   6.452  0.00  0.00    +0.000 C 
ATOM     16  C   UNL     1      46.842   2.299   7.346  0.00  0.00    +0.000 A 
ATOM     17  C   UNL     1      46.424   3.626   7.313  0.00  0.00    +0.000 A 
ATOM     18  C   UNL     1      45.375   4.025   8.142  0.00  0.00    +0.000 A 
ATOM     19  C   UNL     1      44.772   3.094   8.978  0.00  0.00    +0.000 A 
ATOM     20  C   UNL     1      45.295   1.809   8.989  0.00  0.00    +0.000 A 
ATOM     21  N   UNL     1      46.306   1.388   8.192  0.00  0.00    +0.000 NA
ENDBRANCH  14  19
ENDBRANCH  13  14
ENDBRANCH   1  13
TORSDOF 4
ENDMDL
MODEL 5
REMARK VINA RESULT:    -6.363      3.649      6.887
REMARK INTER + INTRA:          -8.341
REMARK INTER:                  -8.022
REMARK INTRA:                  -0.318
REMARK UNBOUND:                -0.489
REMARK  Name = 
REMARK  5 active torsions:
REMARK  status: ('A' for Active; 'I' for Inactive)
REMARK    1  A    between atoms: C_1  and  C_2
REMARK    2  A    between atoms: C_5  and  O_6
REMARK    3  A    between atoms: O_6  and  C_7
REMARK    4  A    between atoms: C_7  and  C_8
REMARK    5  A    between atoms: C_11  and  C_12
REMARK                            x       y       z     vdW  Elec       q    Type
REMARK                         _______ _______ _______ _____ _____    ______ ____
ROOT
ATOM      1  C   UNL     1      46.695   4.977  13.615  0.00  0.00    +0.000 A 
ATOM      2  N   UNL     1      46.236   3.691  13.555  0.00  0.00    +0.000 NA
ATOM      3  C   UNL     1      45.397   3.372  12.538  0.00  0.00    +0.000 A 
ATOM      4  C   UNL     1      44.965   4.287  11.587  0.00  0.00    +0.000 A 
ATOM      5  C   UNL     1      45.508   5.569  11.608  0.00  0.00    +0.000 A 
ATOM      6  C   UNL     1      46.390   5.921  12.628  0.00  0.00    +0.000 A 
ATOM      7 CL   UNL     1      47.000   7.533  12.648  0.00  0.00    +0.000 Cl
ENDROOT
BRANCH   4   8
ATOM      8  C   UNL     1      43.913   3.888  10.635  0.00  0.00    +0.000 C 
ATOM      9  N   UNL     1      43.871   4.557   9.441  0.00  0.00    +0.000 N 
ATOM     10  O   UNL     1      43.071   3.048  10.929  0.00  0.00    +0.000 OA
ATOM     11  H   UNL     1      44.387   5.412   9.273  0.00  0.00    +0.000 HD
ATOM     12  H   UNL     1      43.063   4.386   8.856  0.00  0.00    +0.000 HD
ENDBRANCH   4   8
BRANCH   1  13
ATOM     13  C   UNL     1      47.449   5.358  14.869  0.00  0.00    +0.000 C 
BRANCH  13  14
ATOM     14  O   UNL     1      47.209   4.432  15.931  0.00  0.00    +0.000 OA
BRANCH  14  19
ATOM     15  C   UNL     1      51.579   1.326  17.574  0.00  0.00    +0.000 C 
ATOM     16  C   UNL     1      50.421   2.194  17.184  0.00  0.00    +0.000 A 
ATOM     17  C   UNL     1      50.279   3.466  17.730  0.00  0.00    +0.000 A 
ATOM     18  C   UNL     1      49.202   4.258  17.330  0.00  0.00    +0.000 A 
ATOM     19  C   UNL     1      48.299   3.763  16.398  0.00  0.00    +0.000 A 
ATOM     20  C   UNL     1      48.484   2.462  15.955  0.00  0.00    +0.000 A 
ATOM     21  N   UNL     1      49.523   1.671  16.317  0.00  0.00    +0.000 NA
ENDBRANCH  14  19
ENDBRANCH  13  14
ENDBRANCH   1  13
TORSDOF 4
ENDMDL
MODEL 6
REMARK VINA RESULT:    -6.061      4.645      6.205
REMARK INTER + INTRA:          -7.968
REMARK INTER:                  -7.588
REMARK INTRA:                  -0.380
REMARK UNBOUND:                -0.489
REMARK  Name = 
REMARK  5 active torsions:
REMARK  status: ('A' for Active; 'I' for Inactive)
REMARK    1  A    between atoms: C_1  and  C_2
REMARK    2  A    between atoms: C_5  and  O_6
REMARK    3  A    between atoms: O_6  and  C_7
REMARK    4  A    between atoms: C_7  and  C_8
REMARK    5  A    between atoms: C_11  and  C_12
REMARK                            x       y       z     vdW  Elec       q    Type
REMARK                         _______ _______ _______ _____ _____    ______ ____
ROOT
ATOM      1  C   UNL     1      48.279   3.687  16.387  0.00  0.00    +0.000 A 
ATOM      2  N   UNL     1      48.542   2.420  15.949  0.00  0.00    +0.000 NA
ATOM      3  C   UNL     1      49.641   1.801  16.447  0.00  0.00    +0.000 A 
ATOM      4  C   UNL     1      50.516   2.399  17.344  0.00  0.00    +0.000 A 
ATOM      5  C   UNL     1      50.189   3.655  17.849  0.00  0.00    +0.000 A 
ATOM      6  C   UNL     1      49.054   4.308  17.373  0.00  0.00    +0.000 A 
ATOM      7 CL   UNL     1      48.713   5.883  17.984  0.00  0.00    +0.000 Cl
ENDROOT
BRANCH   4   8
ATOM      8  C   UNL     1      51.776   1.713  17.682  0.00  0.00    +0.000 C 
ATOM      9  N   UNL     1      51.689   0.390  18.026  0.00  0.00    +0.000 N 
ATOM     10  O   UNL     1      52.841   2.317  17.723  0.00  0.00    +0.000 OA
ATOM     11  H   UNL     1      50.809  -0.064  18.242  0.00  0.00    +0.000 HD
ATOM     12  H   UNL     1      52.528  -0.034  18.400  0.00  0.00    +0.000 HD
ENDBRANCH   4   8
BRANCH   1  13
ATOM     13  C   UNL     1      47.180   4.430  15.661  0.00  0.00    +0.000 C 
BRANCH  13  14
ATOM     14  O   UNL     1      47.652   5.011  14.443  0.00  0.00    +0.000 OA
BRANCH  14  19
ATOM     15  C   UNL     1      44.015   4.391  10.220  0.00  0.00    +0.000 C 
ATOM     16  C   UNL     1      45.009   4.609  11.321  0.00  0.00    +0.000 A 
ATOM     17  C   UNL     1      45.640   5.841  11.466  0.00  0.00    +0.000 A 
ATOM     18  C   UNL     1      46.545   6.018  12.514  0.00  0.00    +0.000 A 
ATOM     19  C   UNL     1      46.793   4.967  13.387  0.00  0.00    +0.000 A 
ATOM     20  C   UNL     1      46.165   3.757  13.129  0.00  0.00    +0.000 A 
ATOM     21  N   UNL     1      45.278   3.555  12.125  0.00  0.00    +0.000 NA
ENDBRANCH  14  19
ENDBRANCH  13  14
ENDBRANCH   1  13
TORSDOF 4
ENDMDL
MODEL 7
REMARK VINA RESULT:    -5.770      3.829      7.794
REMARK INTER + INTRA:          -7.609
REMARK INTER:                  -7.302
REMARK INTRA:                  -0.307
REMARK UNBOUND:                -0.489
REMARK  Name = 
REMARK  5 active torsions:
REMARK  status: ('A' for Active; 'I' for Inactive)
REMARK    1  A    between atoms: C_1  and  C_2
REMARK    2  A    between atoms: C_5  and  O_6
REMARK    3  A    between atoms: O_6  and  C_7
REMARK    4  A    between atoms: C_7  and  C_8
REMARK    5  A    between atoms: C_11  and  C_12
REMARK                            x       y       z     vdW  Elec       q    Type
REMARK                         _______ _______ _______ _____ _____    ______ ____
ROOT
ATOM      1  C   UNL     1      46.827   4.850  13.636  0.00  0.00    +0.000 A 
ATOM      2  N   UNL     1      46.351   3.574  13.524  0.00  0.00    +0.000 NA
ATOM      3  C   UNL     1      45.528   3.302  12.480  0.00  0.00    +0.000 A 
ATOM      4  C   UNL     1      45.130   4.255  11.552  0.00  0.00    +0.000 A 
ATOM      5  C   UNL     1      45.691   5.527  11.626  0.00  0.00    +0.000 A 
ATOM      6  C   UNL     1      46.557   5.831  12.675  0.00  0.00    +0.000 A 
ATOM      7 CL   UNL     1      47.190   7.432  12.761  0.00  0.00    +0.000 Cl
ENDROOT
BRANCH   4   8
ATOM      8  C   UNL     1      44.093   3.903  10.565  0.00  0.00    +0.000 C 
ATOM      9  N   UNL     1      43.965   4.728   9.479  0.00  0.00    +0.000 N 
ATOM     10  O   UNL     1      43.333   2.959  10.746  0.00  0.00    +0.000 OA
ATOM     11  H   UNL     1      44.401   5.641   9.429  0.00  0.00    +0.000 HD
ATOM     12  H   UNL     1      43.160   4.571   8.887  0.00  0.00    +0.000 HD
ENDBRANCH   4   8
BRANCH   1  13
ATOM     13  C   UNL     1      47.560   5.178  14.917  0.00  0.00    +0.000 C 
BRANCH  13  14
ATOM     14  O   UNL     1      47.828   4.003  15.687  0.00  0.00    +0.000 OA
BRANCH  14  19
ATOM     15  C   UNL     1      49.430   5.049  20.958  0.00  0.00    +0.000 C 
ATOM     16  C   UNL     1      49.062   4.757  19.534  0.00  0.00    +0.000 A 
ATOM     17  C   UNL     1      49.959   4.102  18.695  0.00  0.00    +0.000 A 
ATOM     18  C   UNL     1      49.578   3.827  17.381  0.00  0.00    +0.000 A 
ATOM     19  C   UNL     1      48.317   4.209  16.941  0.00  0.00    +0.000 A 
ATOM     20  C   UNL     1      47.514   4.912  17.828  0.00  0.00    +0.000 A 
ATOM     21  N   UNL     1      47.852   5.188  19.111  0.00  0.00    +0.000 NA
ENDBRANCH  14  19
ENDBRANCH  13  14
ENDBRANCH   1  13
TORSDOF 4
ENDMDL
MODEL 8
REMARK VINA RESULT:    -5.675      3.593      4.487
REMARK INTER + INTRA:          -7.492
REMARK INTER:                  -7.168
REMARK INTRA:                  -0.323
REMARK UNBOUND:                -0.489
REMARK  Name = 
REMARK  5 active torsions:
REMARK  status: ('A' for Active; 'I' for Inactive)
REMARK    1  A    between atoms: C_1  and  C_2
REMARK    2  A    between atoms: C_5  and  O_6
REMARK    3  A    between atoms: O_6  and  C_7
REMARK    4  A    between atoms: C_7  and  C_8
REMARK    5  A    between atoms: C_11  and  C_12
REMARK                            x       y       z     vdW  Elec       q    Type
REMARK                         _______ _______ _______ _____ _____    ______ ____
ROOT
ATOM      1  C   UNL     1      47.354   5.260  14.888  0.00  0.00    +0.000 A 
ATOM      2  N   UNL     1      46.936   4.042  15.343  0.00  0.00    +0.000 NA
ATOM      3  C   UNL     1      47.515   3.562  16.473  0.00  0.00    +0.000 A 
ATOM      4  C   UNL     1      48.520   4.229  17.159  0.00  0.00    +0.000 A 
ATOM      5  C   UNL     1      48.875   5.507  16.736  0.00  0.00    +0.000 A 
ATOM      6  C   UNL     1      48.282   6.037  15.591  0.00  0.00    +0.000 A 
ATOM      7 CL   UNL     1      48.786   7.600  15.070  0.00  0.00    +0.000 Cl
ENDROOT
BRANCH   4   8
ATOM      8  C   UNL     1      49.209   3.542  18.266  0.00  0.00    +0.000 C 
ATOM      9  N   UNL     1      48.434   3.124  19.315  0.00  0.00    +0.000 N 
ATOM     10  O   UNL     1      50.428   3.416  18.280  0.00  0.00    +0.000 OA
ATOM     11  H   UNL     1      47.478   3.431  19.447  0.00  0.00    +0.000 HD
ATOM     12  H   UNL     1      48.926   2.791  20.134  0.00  0.00    +0.000 HD
ENDBRANCH   4   8
BRANCH   1  13
ATOM     13  C   UNL     1      46.854   5.669  13.521  0.00  0.00    +0.000 C 
BRANCH  13  14
ATOM     14  O   UNL     1      45.623   5.019  13.194  0.00  0.00    +0.000 OA
BRANCH  14  19
ATOM     15  C   UNL     1      44.707   3.340   7.923  0.00  0.00    +0.000 C 
ATOM     16  C   UNL     1      44.987   3.837   9.310  0.00  0.00    +0.000 A 
ATOM     17  C   UNL     1      45.494   5.117   9.510  0.00  0.00    +0.000 A 
ATOM     18  C   UNL     1      45.724   5.557  10.815  0.00  0.00    +0.000 A 
ATOM     19  C   UNL     1      45.441   4.712  11.880  0.00  0.00    +0.000 A 
ATOM     20  C   UNL     1      44.997   3.431  11.583  0.00  0.00    +0.000 A 
ATOM     21  N   UNL     1      44.757   2.977  10.329  0.00  0.00    +0.000 NA
ENDBRANCH  14  19
ENDBRANCH  13  14
ENDBRANCH   1  13
TORSDOF 4
ENDMDL
MODEL 9
REMARK VINA RESULT:    -5.573      3.991      7.796
REMARK INTER + INTRA:          -7.366
REMARK INTER:                  -6.884
REMARK INTRA:                  -0.482
REMARK UNBOUND:                -0.489
REMARK  Name = 
REMARK  5 active torsions:
REMARK  status: ('A' for Active; 'I' for Inactive)
REMARK    1  A    between atoms: C_1  and  C_2
REMARK    2  A    between atoms: C_5  and  O_6
REMARK    3  A    between atoms: O_6  and  C_7
REMARK    4  A    between atoms: C_7  and  C_8
REMARK    5  A    between atoms: C_11  and  C_12
REMARK                            x       y       z     vdW  Elec       q    Type
REMARK                         _______ _______ _______ _____ _____    ______ ____
ROOT
ATOM      1  C   UNL     1      47.523   6.466  13.512  0.00  0.00    +0.000 A 
ATOM      2  N   UNL     1      47.404   5.113  13.660  0.00  0.00    +0.000 NA
ATOM      3  C   UNL     1      46.183   4.564  13.441  0.00  0.00    +0.000 A 
ATOM      4  C   UNL     1      45.058   5.307  13.109  0.00  0.00    +0.000 A 
ATOM      5  C   UNL     1      45.212   6.672  12.876  0.00  0.00    +0.000 A 
ATOM      6  C   UNL     1      46.460   7.261  13.071  0.00  0.00    +0.000 A 
ATOM      7 CL   UNL     1      46.596   8.961  12.822  0.00  0.00    +0.000 Cl
ENDROOT
BRANCH   4   8
ATOM      8  C   UNL     1      43.744   4.641  13.073  0.00  0.00    +0.000 C 
ATOM      9  N   UNL     1      42.641   5.448  12.987  0.00  0.00    +0.000 N 
ATOM     10  O   UNL     1      43.641   3.426  13.187  0.00  0.00    +0.000 OA
ATOM     11  H   UNL     1      42.681   6.449  13.142  0.00  0.00    +0.000 HD
ATOM     12  H   UNL     1      41.743   5.000  13.114  0.00  0.00    +0.000 HD
ENDBRANCH   4   8
BRANCH   1  13
ATOM     13  C   UNL     1      48.830   7.075  13.969  0.00  0.00    +0.000 C 
BRANCH  13  14
ATOM     14  O   UNL     1      49.399   6.345  15.058  0.00  0.00    +0.000 OA
BRANCH  14  19
ATOM     15  C   UNL     1      47.539   7.286  20.265  0.00  0.00    +0.000 C 
ATOM     16  C   UNL     1      48.026   7.095  18.859  0.00  0.00    +0.000 A 
ATOM     17  C   UNL     1      48.348   8.195  18.070  0.00  0.00    +0.000 A 
ATOM     18  C   UNL     1      48.818   7.983  16.774  0.00  0.00    +0.000 A 
ATOM     19  C   UNL     1      48.956   6.684  16.301  0.00  0.00    +0.000 A 
ATOM     20  C   UNL     1      48.552   5.652  17.135  0.00  0.00    +0.000 A 
ATOM     21  N   UNL     1      48.099   5.824  18.401  0.00  0.00    +0.000 NA
ENDBRANCH  14  19
ENDBRANCH  13  14
ENDBRANCH   1  13
TORSDOF 4
ENDMDL
