MODEL 1
REMARK VINA RESULT:    -8.417      0.000      0.000
REMARK INTER + INTRA:         -11.600
REMARK INTER:                 -10.877
REMARK INTRA:                  -0.723
REMARK UNBOUND:                -0.723
REMARK  Name = 
REMARK  5 active torsions:
REMARK  status: ('A' for Active; 'I' for Inactive)
REMARK    1  A    between atoms: C_2  and  C_4
REMARK    2  A    between atoms: C_8  and  S_9
REMARK    3  A    between atoms: S_9  and  C_10
REMARK    4  A    between atoms: C_10  and  C_11
REMARK    5  A    between atoms: C_15  and  C_16
REMARK                            x       y       z     vdW  Elec       q    Type
REMARK                         _______ _______ _______ _____ _____    ______ ____
ROOT
ATOM      1  C   UNL     1      44.814   2.986  12.330  0.00  0.00    +0.000 C 
ENDROOT
BRANCH   1   2
ATOM      2  C   UNL     1      45.624   4.214  12.679  0.00  0.00    +0.000 A 
ATOM      3  C   UNL     1      46.752   4.110  13.481  0.00  0.00    +0.000 A 
ATOM      4  N   UNL     1      47.499   5.164  13.871  0.00  0.00    +0.000 NA
ATOM      5  C   UNL     1      47.109   6.390  13.441  0.00  0.00    +0.000 A 
ATOM      6  C   UNL     1      45.999   6.642  12.637  0.00  0.00    +0.000 A 
ATOM      7  C   UNL     1      45.251   5.508  12.282  0.00  0.00    +0.000 A 
BRANCH   6   8
ATOM      8  C   UNL     1      45.619   7.993  12.178  0.00  0.00    +0.000 A 
ATOM      9  C   UNL     1      46.384   9.130  12.475  0.00  0.00    +0.000 A 
ATOM     10  N   UNL     1      46.091  10.397  12.086  0.00  0.00    +0.000 NA
ATOM     11  C   UNL     1      44.975  10.557  11.339  0.00  0.00    +0.000 A 
ATOM     12  C   UNL     1      44.157   9.510  10.975  0.00  0.00    +0.000 A 
ATOM     13  F   UNL     1      43.066   9.720  10.227  0.00  0.00    +0.000 F 
ATOM     14  C   UNL     1      44.473   8.224  11.396  0.00  0.00    +0.000 A 
ENDBRANCH   6   8
ENDBRANCH   1   2
BRANCH   1  15
ATOM     15  S   UNL     1      43.738   3.239  10.871  0.00  0.00    +0.000 S 
BRANCH  15  20
ATOM     16  C   UNL     1      46.348   2.181   7.887  0.00  0.00    +0.000 A 
ATOM     17  C   UNL     1      46.601   3.448   7.378  0.00  0.00    +0.000 A 
ATOM     18  N   UNL     1      45.991   4.566   7.828  0.00  0.00    +0.000 NA
ATOM     19  C   UNL     1      45.126   4.406   8.858  0.00  0.00    +0.000 A 
ATOM     20  C   UNL     1      44.830   3.186   9.472  0.00  0.00    +0.000 A 
ATOM     21  C   UNL     1      45.449   2.049   8.954  0.00  0.00    +0.000 A 
BRANCH  16  23
ATOM     22  N   UNL     1      46.729  -0.211   7.748  0.00  0.00    +0.000 N 
ATOM     23  C   UNL     1      47.076   1.034   7.307  0.00  0.00    +0.000 C 
ATOM     24  O   UNL     1      47.926   1.190   6.445  0.00  0.00    +0.000 OA
ATOM     25  H   UNL     1      47.154  -0.985   7.250  0.00  0.00    +0.000 HD
ATOM     26  H   UNL     1      45.855  -0.395   8.222  0.00  0.00    +0.000 HD
ENDBRANCH  16  23
ENDBRANCH  15  20
ENDBRANCH   1  15
TORSDOF 5
ENDMDL
MODEL 2
REMARK VINA RESULT:    -8.166      2.956      4.421
REMARK INTER + INTRA:         -11.276
REMARK INTER:                 -10.936
REMARK INTRA:                  -0.340
REMARK UNBOUND:                -0.723
REMARK  Name = 
REMARK  5 active torsions:
REMARK  status: ('A' for Active; 'I' for Inactive)
REMARK    1  A    between atoms: C_2  and  C_4
REMARK    2  A    between atoms: C_8  and  S_9
REMARK    3  A    between atoms: S_9  and  C_10
REMARK    4  A    between atoms: C_10  and  C_11
REMARK    5  A    between atoms: C_15  and  C_16
REMARK                            x       y       z     vdW  Elec       q    Type
REMARK                         _______ _______ _______ _____ _____    ______ ____
ROOT
ATOM      1  C   UNL     1      43.643   4.735  11.618  0.00  0.00    +0.000 C 
ENDROOT
BRANCH   1   2
ATOM      2  C   UNL     1      44.970   5.291  12.076  0.00  0.00    +0.000 A 
ATOM      3  C   UNL     1      45.681   6.174  11.273  0.00  0.00    +0.000 A 
ATOM      4  N   UNL     1      46.891   6.678  11.594  0.00  0.00    +0.000 NA
ATOM      5  C   UNL     1      47.428   6.288  12.777  0.00  0.00    +0.000 A 
ATOM      6  C   UNL     1      46.830   5.408  13.678  0.00  0.00    +0.000 A 
ATOM      7  C   UNL     1      45.584   4.903  13.278  0.00  0.00    +0.000 A 
BRANCH   6   8
ATOM      8  C   UNL     1      47.445   5.023  14.964  0.00  0.00    +0.000 A 
ATOM      9  C   UNL     1      48.495   5.749  15.543  0.00  0.00    +0.000 A 
ATOM     10  N   UNL     1      49.104   5.449  16.719  0.00  0.00    +0.000 NA
ATOM     11  C   UNL     1      48.637   4.366  17.380  0.00  0.00    +0.000 A 
ATOM     12  C   UNL     1      47.600   3.587  16.914  0.00  0.00    +0.000 A 
ATOM     13  F   UNL     1      47.170   2.528  17.612  0.00  0.00    +0.000 F 
ATOM     14  C   UNL     1      47.003   3.910  15.702  0.00  0.00    +0.000 A 
ENDBRANCH   6   8
ENDBRANCH   1   2
BRANCH   1  15
ATOM     15  S   UNL     1      43.745   2.976  11.124  0.00  0.00    +0.000 S 
BRANCH  15  20
ATOM     16  C   UNL     1      46.204   2.091   7.961  0.00  0.00    +0.000 A 
ATOM     17  C   UNL     1      46.156   3.319   7.314  0.00  0.00    +0.000 A 
ATOM     18  N   UNL     1      45.387   4.349   7.730  0.00  0.00    +0.000 NA
ATOM     19  C   UNL     1      44.675   4.147   8.865  0.00  0.00    +0.000 A 
ATOM     20  C   UNL     1      44.683   2.970   9.616  0.00  0.00    +0.000 A 
ATOM     21  C   UNL     1      45.457   1.915   9.133  0.00  0.00    +0.000 A 
BRANCH  16  23
ATOM     22  N   UNL     1      46.743  -0.257   7.669  0.00  0.00    +0.000 N 
ATOM     23  C   UNL     1      47.080   1.040   7.405  0.00  0.00    +0.000 C 
ATOM     24  O   UNL     1      48.044   1.317   6.709  0.00  0.00    +0.000 OA
ATOM     25  H   UNL     1      47.286  -0.959   7.178  0.00  0.00    +0.000 HD
ATOM     26  H   UNL     1      45.818  -0.525   7.976  0.00  0.00    +0.000 HD
ENDBRANCH  16  23
ENDBRANCH  15  20
ENDBRANCH   1  15
TORSDOF 5
ENDMDL
MODEL 3
REMARK VINA RESULT:    -7.983      3.504      6.929
REMARK INTER + INTRA:         -11.040
REMARK INTER:                 -10.460
REMARK INTRA:                  -0.580
REMARK UNBOUND:                -0.723
REMARK  Name = 
REMARK  5 active torsions:
REMARK  status: ('A' for Active; 'I' for Inactive)
REMARK    1  A    between atoms: C_2  and  C_4
REMARK    2  A    between atoms: C_8  and  S_9
REMARK    3  A    between atoms: S_9  and  C_10
REMARK    4  A    between atoms: C_10  and  C_11
REMARK    5  A    between atoms: C_15  and  C_16
REMARK                            x       y       z     vdW  Elec       q    Type
REMARK                         _______ _______ _______ _____ _____    ______ ____
ROOT
ATOM      1  C   UNL     1      43.599   6.609  11.548  0.00  0.00    +0.000 C 
ENDROOT
BRANCH   1   2
ATOM      2  C   UNL     1      43.714   5.160  11.135  0.00  0.00    +0.000 A 
ATOM      3  C   UNL     1      43.025   4.173  11.827  0.00  0.00    +0.000 A 
ATOM      4  N   UNL     1      43.110   2.856  11.547  0.00  0.00    +0.000 NA
ATOM      5  C   UNL     1      43.923   2.495  10.522  0.00  0.00    +0.000 A 
ATOM      6  C   UNL     1      44.675   3.376   9.746  0.00  0.00    +0.000 A 
ATOM      7  C   UNL     1      44.558   4.729  10.101  0.00  0.00    +0.000 A 
BRANCH   6   8
ATOM      8  C   UNL     1      45.536   2.940   8.628  0.00  0.00    +0.000 A 
ATOM      9  C   UNL     1      46.017   3.830   7.658  0.00  0.00    +0.000 A 
ATOM     10  N   UNL     1      46.808   3.495   6.607  0.00  0.00    +0.000 NA
ATOM     11  C   UNL     1      47.166   2.195   6.512  0.00  0.00    +0.000 A 
ATOM     12  C   UNL     1      46.765   1.235   7.416  0.00  0.00    +0.000 A 
ATOM     13  F   UNL     1      47.153  -0.039   7.281  0.00  0.00    +0.000 F 
ATOM     14  C   UNL     1      45.945   1.603   8.476  0.00  0.00    +0.000 A 
ENDBRANCH   6   8
ENDBRANCH   1   2
BRANCH   1  15
ATOM     15  S   UNL     1      45.156   7.539  11.306  0.00  0.00    +0.000 S 
BRANCH  15  20
ATOM     16  C   UNL     1      47.132   5.347  14.156  0.00  0.00    +0.000 A 
ATOM     17  C   UNL     1      48.021   6.322  14.585  0.00  0.00    +0.000 A 
ATOM     18  N   UNL     1      48.104   7.550  14.028  0.00  0.00    +0.000 NA
ATOM     19  C   UNL     1      47.226   7.818  13.032  0.00  0.00    +0.000 A 
ATOM     20  C   UNL     1      46.263   6.927  12.552  0.00  0.00    +0.000 A 
ATOM     21  C   UNL     1      46.235   5.656  13.125  0.00  0.00    +0.000 A 
BRANCH  16  23
ATOM     22  N   UNL     1      46.956   4.043  16.196  0.00  0.00    +0.000 N 
ATOM     23  C   UNL     1      47.141   4.038  14.843  0.00  0.00    +0.000 C 
ATOM     24  O   UNL     1      47.273   2.995  14.222  0.00  0.00    +0.000 OA
ATOM     25  H   UNL     1      46.846   3.131  16.625  0.00  0.00    +0.000 HD
ATOM     26  H   UNL     1      46.558   4.833  16.686  0.00  0.00    +0.000 HD
ENDBRANCH  16  23
ENDBRANCH  15  20
ENDBRANCH   1  15
TORSDOF 5
ENDMDL
MODEL 4
REMARK VINA RESULT:    -7.938      2.524      3.633
REMARK INTER + INTRA:         -10.981
REMARK INTER:                 -10.397
REMARK INTRA:                  -0.584
REMARK UNBOUND:                -0.723
REMARK  Name = 
REMARK  5 active torsions:
REMARK  status: ('A' for Active; 'I' for Inactive)
REMARK    1  A    between atoms: C_2  and  C_4
REMARK    2  A    between atoms: C_8  and  S_9
REMARK    3  A    between atoms: S_9  and  C_10
REMARK    4  A    between atoms: C_10  and  C_11
REMARK    5  A    between atoms: C_15  and  C_16
REMARK                            x       y       z     vdW  Elec       q    Type
REMARK                         _______ _______ _______ _____ _____    ______ ____
ROOT
ATOM      1  C   UNL     1      45.027   3.354  12.317  0.00  0.00    +0.000 C 
ENDROOT
BRANCH   1   2
ATOM      2  C   UNL     1      45.415   4.792  12.567  0.00  0.00    +0.000 A 
ATOM      3  C   UNL     1      44.572   5.828  12.184  0.00  0.00    +0.000 A 
ATOM      4  N   UNL     1      44.868   7.135  12.335  0.00  0.00    +0.000 NA
ATOM      5  C   UNL     1      46.065   7.436  12.897  0.00  0.00    +0.000 A 
ATOM      6  C   UNL     1      47.009   6.503  13.323  0.00  0.00    +0.000 A 
ATOM      7  C   UNL     1      46.651   5.161  13.121  0.00  0.00    +0.000 A 
BRANCH   6   8
ATOM      8  C   UNL     1      48.295   6.876  13.945  0.00  0.00    +0.000 A 
ATOM      9  C   UNL     1      48.607   6.558  15.275  0.00  0.00    +0.000 A 
ATOM     10  N   UNL     1      49.767   6.872  15.906  0.00  0.00    +0.000 NA
ATOM     11  C   UNL     1      50.693   7.531  15.173  0.00  0.00    +0.000 A 
ATOM     12  C   UNL     1      50.502   7.881  13.855  0.00  0.00    +0.000 A 
ATOM     13  F   UNL     1      51.454   8.527  13.171  0.00  0.00    +0.000 F 
ATOM     14  C   UNL     1      49.300   7.558  13.236  0.00  0.00    +0.000 A 
ENDBRANCH   6   8
ENDBRANCH   1   2
BRANCH   1  15
ATOM     15  S   UNL     1      43.878   3.166  10.904  0.00  0.00    +0.000 S 
BRANCH  15  20
ATOM     16  C   UNL     1      46.396   2.156   7.825  0.00  0.00    +0.000 A 
ATOM     17  C   UNL     1      46.596   3.425   7.299  0.00  0.00    +0.000 A 
ATOM     18  N   UNL     1      45.974   4.529   7.765  0.00  0.00    +0.000 NA
ATOM     19  C   UNL     1      45.155   4.354   8.830  0.00  0.00    +0.000 A 
ATOM     20  C   UNL     1      44.915   3.132   9.463  0.00  0.00    +0.000 A 
ATOM     21  C   UNL     1      45.544   2.008   8.927  0.00  0.00    +0.000 A 
BRANCH  16  23
ATOM     22  N   UNL     1      46.790  -0.232   7.639  0.00  0.00    +0.000 N 
ATOM     23  C   UNL     1      47.131   1.024   7.224  0.00  0.00    +0.000 C 
ATOM     24  O   UNL     1      47.983   1.201   6.368  0.00  0.00    +0.000 OA
ATOM     25  H   UNL     1      47.220  -0.994   7.126  0.00  0.00    +0.000 HD
ATOM     26  H   UNL     1      45.915  -0.429   8.106  0.00  0.00    +0.000 HD
ENDBRANCH  16  23
ENDBRANCH  15  20
ENDBRANCH   1  15
TORSDOF 5
ENDMDL
MODEL 5
REMARK VINA RESULT:    -7.884      4.134      7.439
REMARK INTER + INTRA:         -10.911
REMARK INTER:                 -10.298
REMARK INTRA:                  -0.613
REMARK UNBOUND:                -0.723
REMARK  Name = 
REMARK  5 active torsions:
REMARK  status: ('A' for Active; 'I' for Inactive)
REMARK    1  A    between atoms: C_2  and  C_4
REMARK    2  A    between atoms: C_8  and  S_9
REMARK    3  A    between atoms: S_9  and  C_10
REMARK    4  A    between atoms: C_10  and  C_11
REMARK    5  A    between atoms: C_15  and  C_16
REMARK                            x       y       z     vdW  Elec       q    Type
REMARK                         _______ _______ _______ _____ _____    ______ ____
ROOT
ATOM      1  C   UNL     1      44.885   5.955  12.893  0.00  0.00    +0.000 C 
ENDROOT
BRANCH   1   2
ATOM      2  C   UNL     1      44.504   4.786  12.016  0.00  0.00    +0.000 A 
ATOM      3  C   UNL     1      43.470   3.935  12.383  0.00  0.00    +0.000 A 
ATOM      4  N   UNL     1      43.101   2.848  11.675  0.00  0.00    +0.000 NA
ATOM      5  C   UNL     1      43.793   2.588  10.537  0.00  0.00    +0.000 A 
ATOM      6  C   UNL     1      44.853   3.352  10.052  0.00  0.00    +0.000 A 
ATOM      7  C   UNL     1      45.202   4.457  10.843  0.00  0.00    +0.000 A 
BRANCH   6   8
ATOM      8  C   UNL     1      45.570   3.040   8.798  0.00  0.00    +0.000 A 
ATOM      9  C   UNL     1      45.882   4.021   7.847  0.00  0.00    +0.000 A 
ATOM     10  N   UNL     1      46.535   3.802   6.677  0.00  0.00    +0.000 NA
ATOM     11  C   UNL     1      46.923   2.531   6.433  0.00  0.00    +0.000 A 
ATOM     12  C   UNL     1      46.684   1.489   7.302  0.00  0.00    +0.000 A 
ATOM     13  F   UNL     1      47.097   0.248   7.016  0.00  0.00    +0.000 F 
ATOM     14  C   UNL     1      46.003   1.739   8.488  0.00  0.00    +0.000 A 
ENDBRANCH   6   8
ENDBRANCH   1   2
BRANCH   1  15
ATOM     15  S   UNL     1      46.630   6.464  12.678  0.00  0.00    +0.000 S 
BRANCH  15  20
ATOM     16  C   UNL     1      47.868   4.476  16.047  0.00  0.00    +0.000 A 
ATOM     17  C   UNL     1      48.837   5.375  16.471  0.00  0.00    +0.000 A 
ATOM     18  N   UNL     1      49.178   6.483  15.777  0.00  0.00    +0.000 NA
ATOM     19  C   UNL     1      48.484   6.715  14.637  0.00  0.00    +0.000 A 
ATOM     20  C   UNL     1      47.463   5.901  14.142  0.00  0.00    +0.000 A 
ATOM     21  C   UNL     1      47.167   4.745  14.865  0.00  0.00    +0.000 A 
BRANCH  16  23
ATOM     22  N   UNL     1      48.638   2.469  17.175  0.00  0.00    +0.000 N 
ATOM     23  C   UNL     1      47.588   3.296  16.892  0.00  0.00    +0.000 C 
ATOM     24  O   UNL     1      46.474   3.089  17.347  0.00  0.00    +0.000 OA
ATOM     25  H   UNL     1      48.448   1.739  17.852  0.00  0.00    +0.000 HD
ATOM     26  H   UNL     1      49.600   2.760  17.070  0.00  0.00    +0.000 HD
ENDBRANCH  16  23
ENDBRANCH  15  20
ENDBRANCH   1  15
TORSDOF 5
ENDMDL
MODEL 6
REMARK VINA RESULT:    -7.882      2.128      2.464
REMARK INTER + INTRA:         -10.909
REMARK INTER:                 -10.517
REMARK INTRA:                  -0.392
REMARK UNBOUND:                -0.723
REMARK  Name = 
REMARK  5 active torsions:
REMARK  status: ('A' for Active; 'I' for Inactive)
REMARK    1  A    between atoms: C_2  and  C_4
REMARK    2  A    between atoms: C_8  and  S_9
REMARK    3  A    between atoms: S_9  and  C_10
REMARK    4  A    between atoms: C_10  and  C_11
REMARK    5  A    between atoms: C_15  and  C_16
REMARK                            x       y       z     vdW  Elec       q    Type
REMARK                         _______ _______ _______ _____ _____    ______ ____
ROOT
ATOM      1  C   UNL     1      43.816   4.468  11.689  0.00  0.00    +0.000 C 
ENDROOT
BRANCH   1   2
ATOM      2  C   UNL     1      45.151   4.916  12.235  0.00  0.00    +0.000 A 
ATOM      3  C   UNL     1      45.858   4.110  13.118  0.00  0.00    +0.000 A 
ATOM      4  N   UNL     1      47.034   4.459  13.681  0.00  0.00    +0.000 NA
ATOM      5  C   UNL     1      47.539   5.675  13.351  0.00  0.00    +0.000 A 
ATOM      6  C   UNL     1      46.937   6.585  12.484  0.00  0.00    +0.000 A 
ATOM      7  C   UNL     1      45.707   6.172  11.948  0.00  0.00    +0.000 A 
BRANCH   6   8
ATOM      8  C   UNL     1      47.531   7.893  12.141  0.00  0.00    +0.000 A 
ATOM      9  C   UNL     1      46.800   9.088  12.192  0.00  0.00    +0.000 A 
ATOM     10  N   UNL     1      47.284  10.319  11.888  0.00  0.00    +0.000 NA
ATOM     11  C   UNL     1      48.585  10.383  11.524  0.00  0.00    +0.000 A 
ATOM     12  C   UNL     1      49.402   9.276  11.453  0.00  0.00    +0.000 A 
ATOM     13  F   UNL     1      50.687   9.394  11.093  0.00  0.00    +0.000 F 
ATOM     14  C   UNL     1      48.878   8.026  11.758  0.00  0.00    +0.000 A 
ENDBRANCH   6   8
ENDBRANCH   1   2
BRANCH   1  15
ATOM     15  S   UNL     1      43.897   2.831  10.874  0.00  0.00    +0.000 S 
BRANCH  15  20
ATOM     16  C   UNL     1      46.490   2.426   7.721  0.00  0.00    +0.000 A 
ATOM     17  C   UNL     1      46.621   3.767   7.389  0.00  0.00    +0.000 A 
ATOM     18  N   UNL     1      45.934   4.755   8.002  0.00  0.00    +0.000 NA
ATOM     19  C   UNL     1      45.118   4.380   9.017  0.00  0.00    +0.000 A 
ATOM     20  C   UNL     1      44.945   3.067   9.460  0.00  0.00    +0.000 A 
ATOM     21  C   UNL     1      45.640   2.070   8.776  0.00  0.00    +0.000 A 
BRANCH  16  23
ATOM     22  N   UNL     1      48.277   1.920   6.157  0.00  0.00    +0.000 N 
ATOM     23  C   UNL     1      47.293   1.437   6.972  0.00  0.00    +0.000 C 
ATOM     24  O   UNL     1      47.109   0.237   7.103  0.00  0.00    +0.000 OA
ATOM     25  H   UNL     1      48.890   1.223   5.751  0.00  0.00    +0.000 HD
ATOM     26  H   UNL     1      48.644   2.858   6.249  0.00  0.00    +0.000 HD
ENDBRANCH  16  23
ENDBRANCH  15  20
ENDBRANCH   1  15
TORSDOF 5
ENDMDL
MODEL 7
REMARK VINA RESULT:    -7.312      4.052      7.655
REMARK INTER + INTRA:         -10.172
REMARK INTER:                  -9.710
REMARK INTRA:                  -0.463
REMARK UNBOUND:                -0.723
REMARK  Name = 
REMARK  5 active torsions:
REMARK  status: ('A' for Active; 'I' for Inactive)
REMARK    1  A    between atoms: C_2  and  C_4
REMARK    2  A    between atoms: C_8  and  S_9
REMARK    3  A    between atoms: S_9  and  C_10
REMARK    4  A    between atoms: C_10  and  C_11
REMARK    5  A    between atoms: C_15  and  C_16
REMARK                            x       y       z     vdW  Elec       q    Type
REMARK                         _______ _______ _______ _____ _____    ______ ____
ROOT
ATOM      1  C   UNL     1      45.886   7.445  11.822  0.00  0.00    +0.000 C 
ENDROOT
BRANCH   1   2
ATOM      2  C   UNL     1      45.135   6.348  11.105  0.00  0.00    +0.000 A 
ATOM      3  C   UNL     1      43.787   6.134  11.359  0.00  0.00    +0.000 A 
ATOM      4  N   UNL     1      43.060   5.148  10.792  0.00  0.00    +0.000 NA
ATOM      5  C   UNL     1      43.704   4.329   9.923  0.00  0.00    +0.000 A 
ATOM      6  C   UNL     1      45.051   4.424   9.579  0.00  0.00    +0.000 A 
ATOM      7  C   UNL     1      45.757   5.456  10.217  0.00  0.00    +0.000 A 
BRANCH   6   8
ATOM      8  C   UNL     1      45.708   3.518   8.615  0.00  0.00    +0.000 A 
ATOM      9  C   UNL     1      46.403   3.991   7.493  0.00  0.00    +0.000 A 
ATOM     10  N   UNL     1      47.026   3.214   6.570  0.00  0.00    +0.000 NA
ATOM     11  C   UNL     1      46.976   1.878   6.773  0.00  0.00    +0.000 A 
ATOM     12  C   UNL     1      46.335   1.303   7.848  0.00  0.00    +0.000 A 
ATOM     13  F   UNL     1      46.320  -0.026   8.007  0.00  0.00    +0.000 F 
ATOM     14  C   UNL     1      45.695   2.121   8.772  0.00  0.00    +0.000 A 
ENDBRANCH   6   8
ENDBRANCH   1   2
BRANCH   1  15
ATOM     15  S   UNL     1      47.625   6.998  12.177  0.00  0.00    +0.000 S 
BRANCH  15  20
ATOM     16  C   UNL     1      48.172   5.497  15.956  0.00  0.00    +0.000 A 
ATOM     17  C   UNL     1      47.395   4.353  15.837  0.00  0.00    +0.000 A 
ATOM     18  N   UNL     1      46.677   4.053  14.732  0.00  0.00    +0.000 NA
ATOM     19  C   UNL     1      46.783   4.917  13.694  0.00  0.00    +0.000 A 
ATOM     20  C   UNL     1      47.568   6.073  13.692  0.00  0.00    +0.000 A 
ATOM     21  C   UNL     1      48.262   6.370  14.864  0.00  0.00    +0.000 A 
BRANCH  16  23
ATOM     22  N   UNL     1      49.293   6.996  17.501  0.00  0.00    +0.000 N 
ATOM     23  C   UNL     1      48.907   5.717  17.219  0.00  0.00    +0.000 C 
ATOM     24  O   UNL     1      49.129   4.800  17.994  0.00  0.00    +0.000 OA
ATOM     25  H   UNL     1      49.686   7.140  18.425  0.00  0.00    +0.000 HD
ATOM     26  H   UNL     1      48.880   7.800  17.047  0.00  0.00    +0.000 HD
ENDBRANCH  16  23
ENDBRANCH  15  20
ENDBRANCH   1  15
TORSDOF 5
ENDMDL
MODEL 8
REMARK VINA RESULT:    -6.998      4.240      7.588
REMARK INTER + INTRA:          -9.767
REMARK INTER:                  -9.192
REMARK INTRA:                  -0.575
REMARK UNBOUND:                -0.723
REMARK  Name = 
REMARK  5 active torsions:
REMARK  status: ('A' for Active; 'I' for Inactive)
REMARK    1  A    between atoms: C_2  and  C_4
REMARK    2  A    between atoms: C_8  and  S_9
REMARK    3  A    between atoms: S_9  and  C_10
REMARK    4  A    between atoms: C_10  and  C_11
REMARK    5  A    between atoms: C_15  and  C_16
REMARK                            x       y       z     vdW  Elec       q    Type
REMARK                         _______ _______ _______ _____ _____    ______ ____
ROOT
ATOM      1  C   UNL     1      48.718   7.627  13.224  0.00  0.00    +0.000 C 
ENDROOT
BRANCH   1   2
ATOM      2  C   UNL     1      47.345   7.488  12.610  0.00  0.00    +0.000 A 
ATOM      3  C   UNL     1      46.370   8.450  12.837  0.00  0.00    +0.000 A 
ATOM      4  N   UNL     1      45.110   8.374  12.360  0.00  0.00    +0.000 NA
ATOM      5  C   UNL     1      44.798   7.284  11.614  0.00  0.00    +0.000 A 
ATOM      6  C   UNL     1      45.672   6.242  11.311  0.00  0.00    +0.000 A 
ATOM      7  C   UNL     1      46.961   6.370  11.853  0.00  0.00    +0.000 A 
BRANCH   6   8
ATOM      8  C   UNL     1      45.294   5.081  10.481  0.00  0.00    +0.000 A 
ATOM      9  C   UNL     1      44.506   4.030  10.972  0.00  0.00    +0.000 A 
ATOM     10  N   UNL     1      44.125   2.936  10.265  0.00  0.00    +0.000 NA
ATOM     11  C   UNL     1      44.533   2.878   8.977  0.00  0.00    +0.000 A 
ATOM     12  C   UNL     1      45.297   3.860   8.384  0.00  0.00    +0.000 A 
ATOM     13  F   UNL     1      45.669   3.758   7.102  0.00  0.00    +0.000 F 
ATOM     14  C   UNL     1      45.683   4.964   9.135  0.00  0.00    +0.000 A 
ENDBRANCH   6   8
ENDBRANCH   1   2
BRANCH   1  15
ATOM     15  S   UNL     1      48.660   8.122  14.985  0.00  0.00    +0.000 S 
BRANCH  15  20
ATOM     16  C   UNL     1      48.693   4.652  17.174  0.00  0.00    +0.000 A 
ATOM     17  C   UNL     1      50.060   4.567  17.402  0.00  0.00    +0.000 A 
ATOM     18  N   UNL     1      50.956   5.436  16.886  0.00  0.00    +0.000 NA
ATOM     19  C   UNL     1      50.449   6.454  16.150  0.00  0.00    +0.000 A 
ATOM     20  C   UNL     1      49.092   6.659  15.894  0.00  0.00    +0.000 A 
ATOM     21  C   UNL     1      48.201   5.718  16.410  0.00  0.00    +0.000 A 
BRANCH  16  23
ATOM     22  N   UNL     1      48.220   3.099  18.979  0.00  0.00    +0.000 N 
ATOM     23  C   UNL     1      47.815   3.636  17.790  0.00  0.00    +0.000 C 
ATOM     24  O   UNL     1      46.755   3.315  17.275  0.00  0.00    +0.000 OA
ATOM     25  H   UNL     1      47.546   2.498  19.439  0.00  0.00    +0.000 HD
ATOM     26  H   UNL     1      48.916   3.542  19.564  0.00  0.00    +0.000 HD
ENDBRANCH  16  23
ENDBRANCH  15  20
ENDBRANCH   1  15
TORSDOF 5
ENDMDL
MODEL 9
REMARK VINA RESULT:    -6.633      4.241      7.622
REMARK INTER + INTRA:          -9.295
REMARK INTER:                  -8.474
REMARK INTRA:                  -0.822
REMARK UNBOUND:                -0.723
REMARK  Name = 
REMARK  5 active torsions:
REMARK  status: ('A' for Active; 'I' for Inactive)
REMARK    1  A    between atoms: C_2  and  C_4
REMARK    2  A    between atoms: C_8  and  S_9
REMARK    3  A    between atoms: S_9  and  C_10
REMARK    4  A    between atoms: C_10  and  C_11
REMARK    5  A    between atoms: C_15  and  C_16
REMARK                            x       y       z     vdW  Elec       q    Type
REMARK                         _______ _______ _______ _____ _____    ______ ____
ROOT
ATOM      1  C   UNL     1      49.505   7.816  13.003  0.00  0.00    +0.000 C 
ENDROOT
BRANCH   1   2
ATOM      2  C   UNL     1      48.012   7.758  12.778  0.00  0.00    +0.000 A 
ATOM      3  C   UNL     1      47.203   8.829  13.136  0.00  0.00    +0.000 A 
ATOM      4  N   UNL     1      45.860   8.834  13.006  0.00  0.00    +0.000 NA
ATOM      5  C   UNL     1      45.285   7.718  12.492  0.00  0.00    +0.000 A 
ATOM      6  C   UNL     1      45.972   6.572  12.096  0.00  0.00    +0.000 A 
ATOM      7  C   UNL     1      47.363   6.620  12.275  0.00  0.00    +0.000 A 
BRANCH   6   8
ATOM      8  C   UNL     1      45.306   5.383  11.526  0.00  0.00    +0.000 A 
ATOM      9  C   UNL     1      45.253   5.140  10.146  0.00  0.00    +0.000 A 
ATOM     10  N   UNL     1      44.657   4.071   9.559  0.00  0.00    +0.000 NA
ATOM     11  C   UNL     1      44.085   3.169  10.387  0.00  0.00    +0.000 A 
ATOM     12  C   UNL     1      44.089   3.297  11.759  0.00  0.00    +0.000 A 
ATOM     13  F   UNL     1      43.515   2.370  12.537  0.00  0.00    +0.000 F 
ATOM     14  C   UNL     1      44.697   4.407  12.334  0.00  0.00    +0.000 A 
ENDBRANCH   6   8
ENDBRANCH   1   2
BRANCH   1  15
ATOM     15  S   UNL     1      49.946   8.376  14.689  0.00  0.00    +0.000 S 
BRANCH  15  20
ATOM     16  C   UNL     1      48.532   5.288  16.992  0.00  0.00    +0.000 A 
ATOM     17  C   UNL     1      49.747   4.815  17.468  0.00  0.00    +0.000 A 
ATOM     18  N   UNL     1      50.942   5.317  17.088  0.00  0.00    +0.000 NA
ATOM     19  C   UNL     1      50.907   6.365  16.229  0.00  0.00    +0.000 A 
ATOM     20  C   UNL     1      49.743   6.946  15.723  0.00  0.00    +0.000 A 
ATOM     21  C   UNL     1      48.530   6.374  16.107  0.00  0.00    +0.000 A 
BRANCH  16  23
ATOM     22  N   UNL     1      46.673   5.231  18.551  0.00  0.00    +0.000 N 
ATOM     23  C   UNL     1      47.292   4.651  17.481  0.00  0.00    +0.000 C 
ATOM     24  O   UNL     1      46.821   3.670  16.928  0.00  0.00    +0.000 OA
ATOM     25  H   UNL     1      45.764   4.850  18.790  0.00  0.00    +0.000 HD
ATOM     26  H   UNL     1      46.861   6.182  18.837  0.00  0.00    +0.000 HD
ENDBRANCH  16  23
ENDBRANCH  15  20
ENDBRANCH   1  15
TORSDOF 5
ENDMDL
