MODEL 1
REMARK VINA RESULT:    -8.792      0.000      0.000
REMARK INTER + INTRA:         -12.377
REMARK INTER:                 -11.362
REMARK INTRA:                  -1.014
REMARK UNBOUND:                -1.014
REMARK  Name = 
REMARK  5 active torsions:
REMARK  status: ('A' for Active; 'I' for Inactive)
REMARK    1  A    between atoms: C_2  and  C_4
REMARK    2  A    between atoms: C_7  and  O_8
REMARK    3  A    between atoms: O_8  and  C_9
REMARK    4  A    between atoms: C_9  and  C_10
REMARK    5  A    between atoms: C_15  and  C_16
REMARK                            x       y       z     vdW  Elec       q    Type
REMARK                         _______ _______ _______ _____ _____    ______ ____
ROOT
ATOM      1  C   UNL     1      43.801   4.855  11.251  0.00  0.00    +0.000 C 
ATOM      2  C   UNL     1      42.529   5.162  12.033  0.00  0.00    +0.000 C 
ATOM      3  C   UNL     1      42.973   6.088  10.950  0.00  0.00    +0.000 C 
ENDROOT
BRANCH   1   4
ATOM      4  C   UNL     1      45.125   4.996  11.987  0.00  0.00    +0.000 A 
ATOM      5  C   UNL     1      45.575   4.012  12.880  0.00  0.00    +0.000 A 
ATOM      6  C   UNL     1      46.806   4.130  13.509  0.00  0.00    +0.000 A 
ATOM      7  F   UNL     1      47.220   3.160  14.336  0.00  0.00    +0.000 F 
ATOM      8  C   UNL     1      47.617   5.234  13.294  0.00  0.00    +0.000 A 
ATOM      9  C   UNL     1      47.208   6.253  12.425  0.00  0.00    +0.000 A 
ATOM     10  C   UNL     1      45.959   6.116  11.788  0.00  0.00    +0.000 A 
BRANCH   9  11
ATOM     11  C   UNL     1      48.044   7.459  12.220  0.00  0.00    +0.000 C 
ATOM     12  C   UNL     1      49.382   7.389  12.070  0.00  0.00    +0.000 C 
ATOM     13  C   UNL     1      50.269   8.589  11.910  0.00  0.00    +0.000 C 
ATOM     14  N   UNL     1      49.555   9.839  11.643  0.00  0.00    +0.000 NA
ATOM     15  C   UNL     1      48.367   9.944  12.495  0.00  0.00    +0.000 C 
ATOM     16  C   UNL     1      47.369   8.812  12.209  0.00  0.00    +0.000 C 
ATOM     17  H   UNL     1      49.257   9.827  10.668  0.00  0.00    +0.000 HD
ENDBRANCH   9  11
ENDBRANCH   1   4
BRANCH   1  18
ATOM     18  O   UNL     1      43.606   3.671  10.442  0.00  0.00    +0.000 OA
BRANCH  18  22
ATOM     19  C   UNL     1      46.378   2.688   7.557  0.00  0.00    +0.000 A 
ATOM     20  C   UNL     1      45.906   1.718   8.438  0.00  0.00    +0.000 A 
ATOM     21  C   UNL     1      44.970   2.080   9.403  0.00  0.00    +0.000 A 
ATOM     22  C   UNL     1      44.534   3.399   9.453  0.00  0.00    +0.000 A 
ATOM     23  N   UNL     1      44.963   4.361   8.614  0.00  0.00    +0.000 NA
ATOM     24  C   UNL     1      45.890   3.989   7.693  0.00  0.00    +0.000 A 
BRANCH  19  26
ATOM     25  N   UNL     1      47.365   3.170   5.385  0.00  0.00    +0.000 N 
ATOM     26  C   UNL     1      47.391   2.404   6.521  0.00  0.00    +0.000 C 
ATOM     27  O   UNL     1      48.237   1.537   6.676  0.00  0.00    +0.000 OA
ATOM     28  H   UNL     1      48.115   3.017   4.724  0.00  0.00    +0.000 HD
ATOM     29  H   UNL     1      46.855   4.038   5.319  0.00  0.00    +0.000 HD
ENDBRANCH  19  26
ENDBRANCH  18  22
ENDBRANCH   1  18
TORSDOF 5
ENDMDL
MODEL 2
REMARK VINA RESULT:    -8.098      2.520      3.463
REMARK INTER + INTRA:         -11.479
REMARK INTER:                 -12.110
REMARK INTRA:                   0.631
REMARK UNBOUND:                -1.014
REMARK  Name = 
REMARK  5 active torsions:
REMARK  status: ('A' for Active; 'I' for Inactive)
REMARK    1  A    between atoms: C_2  and  C_4
REMARK    2  A    between atoms: C_7  and  O_8
REMARK    3  A    between atoms: O_8  and  C_9
REMARK    4  A    between atoms: C_9  and  C_10
REMARK    5  A    between atoms: C_15  and  C_16
REMARK                            x       y       z     vdW  Elec       q    Type
REMARK                         _______ _______ _______ _____ _____    ______ ____
ROOT
ATOM      1  C   UNL     1      44.112   4.798  11.489  0.00  0.00    +0.000 C 
ATOM      2  C   UNL     1      43.610   3.480  12.068  0.00  0.00    +0.000 C 
ATOM      3  C   UNL     1      42.903   4.752  12.402  0.00  0.00    +0.000 C 
ENDROOT
BRANCH   1   4
ATOM      4  C   UNL     1      45.436   5.333  12.015  0.00  0.00    +0.000 A 
ATOM      5  C   UNL     1      46.236   6.192  11.247  0.00  0.00    +0.000 A 
ATOM      6  C   UNL     1      47.418   6.710  11.757  0.00  0.00    +0.000 A 
ATOM      7  F   UNL     1      48.147   7.550  11.009  0.00  0.00    +0.000 F 
ATOM      8  C   UNL     1      47.855   6.377  13.030  0.00  0.00    +0.000 A 
ATOM      9  C   UNL     1      47.102   5.511  13.832  0.00  0.00    +0.000 A 
ATOM     10  C   UNL     1      45.901   4.998  13.304  0.00  0.00    +0.000 A 
BRANCH   9  11
ATOM     11  C   UNL     1      47.579   5.111  15.177  0.00  0.00    +0.000 C 
ATOM     12  C   UNL     1      47.124   4.007  15.802  0.00  0.00    +0.000 C 
ATOM     13  C   UNL     1      47.545   3.595  17.183  0.00  0.00    +0.000 C 
ATOM     14  N   UNL     1      48.703   4.322  17.706  0.00  0.00    +0.000 NA
ATOM     15  C   UNL     1      48.597   5.751  17.392  0.00  0.00    +0.000 C 
ATOM     16  C   UNL     1      48.588   5.994  15.876  0.00  0.00    +0.000 C 
ATOM     17  H   UNL     1      49.537   3.950  17.252  0.00  0.00    +0.000 HD
ENDBRANCH   9  11
ENDBRANCH   1   4
BRANCH   1  18
ATOM     18  O   UNL     1      43.902   4.816  10.057  0.00  0.00    +0.000 OA
BRANCH  18  22
ATOM     19  C   UNL     1      46.454   2.522   7.777  0.00  0.00    +0.000 A 
ATOM     20  C   UNL     1      45.616   1.921   8.714  0.00  0.00    +0.000 A 
ATOM     21  C   UNL     1      44.765   2.722   9.471  0.00  0.00    +0.000 A 
ATOM     22  C   UNL     1      44.778   4.097   9.263  0.00  0.00    +0.000 A 
ATOM     23  N   UNL     1      45.568   4.711   8.363  0.00  0.00    +0.000 NA
ATOM     24  C   UNL     1      46.404   3.911   7.649  0.00  0.00    +0.000 A 
BRANCH  19  26
ATOM     25  N   UNL     1      48.509   2.423   6.477  0.00  0.00    +0.000 N 
ATOM     26  C   UNL     1      47.409   1.757   6.951  0.00  0.00    +0.000 C 
ATOM     27  O   UNL     1      47.242   0.570   6.715  0.00  0.00    +0.000 OA
ATOM     28  H   UNL     1      49.193   1.864   5.983  0.00  0.00    +0.000 HD
ATOM     29  H   UNL     1      48.810   3.315   6.840  0.00  0.00    +0.000 HD
ENDBRANCH  19  26
ENDBRANCH  18  22
ENDBRANCH   1  18
TORSDOF 5
ENDMDL
MODEL 3
REMARK VINA RESULT:    -7.812      2.012      2.696
REMARK INTER + INTRA:         -11.110
REMARK INTER:                 -11.328
REMARK INTRA:                   0.217
REMARK UNBOUND:                -1.014
REMARK  Name = 
REMARK  5 active torsions:
REMARK  status: ('A' for Active; 'I' for Inactive)
REMARK    1  A    between atoms: C_2  and  C_4
REMARK    2  A    between atoms: C_7  and  O_8
REMARK    3  A    between atoms: O_8  and  C_9
REMARK    4  A    between atoms: C_9  and  C_10
REMARK    5  A    between atoms: C_15  and  C_16
REMARK                            x       y       z     vdW  Elec       q    Type
REMARK                         _______ _______ _______ _____ _____    ______ ____
ROOT
ATOM      1  C   UNL     1      44.193   4.330  11.570  0.00  0.00    +0.000 C 
ATOM      2  C   UNL     1      44.935   3.214  12.296  0.00  0.00    +0.000 C 
ATOM      3  C   UNL     1      43.621   3.691  12.819  0.00  0.00    +0.000 C 
ENDROOT
BRANCH   1   4
ATOM      4  C   UNL     1      44.790   5.728  11.643  0.00  0.00    +0.000 A 
ATOM      5  C   UNL     1      44.035   6.865  11.317  0.00  0.00    +0.000 A 
ATOM      6  C   UNL     1      44.576   8.137  11.434  0.00  0.00    +0.000 A 
ATOM      7  F   UNL     1      43.822   9.205  11.140  0.00  0.00    +0.000 F 
ATOM      8  C   UNL     1      45.885   8.323  11.853  0.00  0.00    +0.000 A 
ATOM      9  C   UNL     1      46.687   7.220  12.175  0.00  0.00    +0.000 A 
ATOM     10  C   UNL     1      46.121   5.936  12.059  0.00  0.00    +0.000 A 
BRANCH   9  11
ATOM     11  C   UNL     1      48.100   7.401  12.581  0.00  0.00    +0.000 C 
ATOM     12  C   UNL     1      48.496   7.310  13.867  0.00  0.00    +0.000 C 
ATOM     13  C   UNL     1      49.907   7.535  14.325  0.00  0.00    +0.000 C 
ATOM     14  N   UNL     1      50.895   7.586  13.245  0.00  0.00    +0.000 NA
ATOM     15  C   UNL     1      50.381   8.369  12.117  0.00  0.00    +0.000 C 
ATOM     16  C   UNL     1      49.122   7.728  11.515  0.00  0.00    +0.000 C 
ATOM     17  H   UNL     1      51.062   6.631  12.930  0.00  0.00    +0.000 HD
ENDBRANCH   9  11
ENDBRANCH   1   4
BRANCH   1  18
ATOM     18  O   UNL     1      43.742   3.860  10.278  0.00  0.00    +0.000 OA
BRANCH  18  22
ATOM     19  C   UNL     1      46.605   2.708   7.549  0.00  0.00    +0.000 A 
ATOM     20  C   UNL     1      46.290   4.055   7.710  0.00  0.00    +0.000 A 
ATOM     21  C   UNL     1      45.317   4.415   8.640  0.00  0.00    +0.000 A 
ATOM     22  C   UNL     1      44.694   3.415   9.380  0.00  0.00    +0.000 A 
ATOM     23  N   UNL     1      44.978   2.104   9.256  0.00  0.00    +0.000 NA
ATOM     24  C   UNL     1      45.917   1.776   8.329  0.00  0.00    +0.000 A 
BRANCH  19  26
ATOM     25  N   UNL     1      47.771   2.971   5.429  0.00  0.00    +0.000 N 
ATOM     26  C   UNL     1      47.600   2.230   6.569  0.00  0.00    +0.000 C 
ATOM     27  O   UNL     1      48.267   1.227   6.773  0.00  0.00    +0.000 OA
ATOM     28  H   UNL     1      48.513   2.675   4.808  0.00  0.00    +0.000 HD
ATOM     29  H   UNL     1      47.430   3.916   5.331  0.00  0.00    +0.000 HD
ENDBRANCH  19  26
ENDBRANCH  18  22
ENDBRANCH   1  18
TORSDOF 5
ENDMDL
MODEL 4
REMARK VINA RESULT:    -7.580      3.637      7.252
REMARK INTER + INTRA:         -10.809
REMARK INTER:                 -10.028
REMARK INTRA:                  -0.782
REMARK UNBOUND:                -1.014
REMARK  Name = 
REMARK  5 active torsions:
REMARK  status: ('A' for Active; 'I' for Inactive)
REMARK    1  A    between atoms: C_2  and  C_4
REMARK    2  A    between atoms: C_7  and  O_8
REMARK    3  A    between atoms: O_8  and  C_9
REMARK    4  A    between atoms: C_9  and  C_10
REMARK    5  A    between atoms: C_15  and  C_16
REMARK                            x       y       z     vdW  Elec       q    Type
REMARK                         _______ _______ _______ _____ _____    ______ ____
ROOT
ATOM      1  C   UNL     1      46.429   7.289  12.440  0.00  0.00    +0.000 C 
ATOM      2  C   UNL     1      46.621   8.695  11.884  0.00  0.00    +0.000 C 
ATOM      3  C   UNL     1      45.897   8.503  13.175  0.00  0.00    +0.000 C 
ENDROOT
BRANCH   1   4
ATOM      4  C   UNL     1      45.465   6.372  11.701  0.00  0.00    +0.000 A 
ATOM      5  C   UNL     1      44.086   6.396  11.961  0.00  0.00    +0.000 A 
ATOM      6  C   UNL     1      43.213   5.589  11.247  0.00  0.00    +0.000 A 
ATOM      7  F   UNL     1      41.898   5.654  11.499  0.00  0.00    +0.000 F 
ATOM      8  C   UNL     1      43.676   4.718  10.273  0.00  0.00    +0.000 A 
ATOM      9  C   UNL     1      45.045   4.643   9.985  0.00  0.00    +0.000 A 
ATOM     10  C   UNL     1      45.919   5.473  10.714  0.00  0.00    +0.000 A 
BRANCH   9  11
ATOM     11  C   UNL     1      45.560   3.685   8.979  0.00  0.00    +0.000 C 
ATOM     12  C   UNL     1      45.440   2.351   9.129  0.00  0.00    +0.000 C 
ATOM     13  C   UNL     1      45.990   1.347   8.158  0.00  0.00    +0.000 C 
ATOM     14  N   UNL     1      46.427   1.916   6.881  0.00  0.00    +0.000 NA
ATOM     15  C   UNL     1      47.159   3.167   7.100  0.00  0.00    +0.000 C 
ATOM     16  C   UNL     1      46.268   4.231   7.759  0.00  0.00    +0.000 C 
ATOM     17  H   UNL     1      45.595   2.117   6.328  0.00  0.00    +0.000 HD
ENDBRANCH   9  11
ENDBRANCH   1   4
BRANCH   1  18
ATOM     18  O   UNL     1      47.707   6.739  12.837  0.00  0.00    +0.000 OA
BRANCH  18  22
ATOM     19  C   UNL     1      47.793   4.597  16.355  0.00  0.00    +0.000 A 
ATOM     20  C   UNL     1      47.012   4.162  15.287  0.00  0.00    +0.000 A 
ATOM     21  C   UNL     1      47.002   4.907  14.110  0.00  0.00    +0.000 A 
ATOM     22  C   UNL     1      47.776   6.061  14.040  0.00  0.00    +0.000 A 
ATOM     23  N   UNL     1      48.548   6.506  15.049  0.00  0.00    +0.000 NA
ATOM     24  C   UNL     1      48.527   5.773  16.194  0.00  0.00    +0.000 A 
BRANCH  19  26
ATOM     25  N   UNL     1      47.031   2.796  17.805  0.00  0.00    +0.000 N 
ATOM     26  C   UNL     1      47.844   3.888  17.649  0.00  0.00    +0.000 C 
ATOM     27  O   UNL     1      48.599   4.243  18.542  0.00  0.00    +0.000 OA
ATOM     28  H   UNL     1      47.139   2.276  18.666  0.00  0.00    +0.000 HD
ATOM     29  H   UNL     1      46.584   2.329  17.030  0.00  0.00    +0.000 HD
ENDBRANCH  19  26
ENDBRANCH  18  22
ENDBRANCH   1  18
TORSDOF 5
ENDMDL
MODEL 5
REMARK VINA RESULT:    -6.637      5.746      8.448
REMARK INTER + INTRA:          -9.592
REMARK INTER:                  -9.513
REMARK INTRA:                  -0.078
REMARK UNBOUND:                -1.014
REMARK  Name = 
REMARK  5 active torsions:
REMARK  status: ('A' for Active; 'I' for Inactive)
REMARK    1  A    between atoms: C_2  and  C_4
REMARK    2  A    between atoms: C_7  and  O_8
REMARK    3  A    between atoms: O_8  and  C_9
REMARK    4  A    between atoms: C_9  and  C_10
REMARK    5  A    between atoms: C_15  and  C_16
REMARK                            x       y       z     vdW  Elec       q    Type
REMARK                         _______ _______ _______ _____ _____    ______ ____
ROOT
ATOM      1  C   UNL     1      48.125   4.645  16.893  0.00  0.00    +0.000 C 
ATOM      2  C   UNL     1      47.134   4.842  18.035  0.00  0.00    +0.000 C 
ATOM      3  C   UNL     1      47.335   3.481  17.457  0.00  0.00    +0.000 C 
ENDROOT
BRANCH   1   4
ATOM      4  C   UNL     1      47.752   5.225  15.537  0.00  0.00    +0.000 A 
ATOM      5  C   UNL     1      48.471   6.289  14.972  0.00  0.00    +0.000 A 
ATOM      6  C   UNL     1      48.150   6.777  13.713  0.00  0.00    +0.000 A 
ATOM      7  F   UNL     1      48.872   7.777  13.189  0.00  0.00    +0.000 F 
ATOM      8  C   UNL     1      47.096   6.244  12.986  0.00  0.00    +0.000 A 
ATOM      9  C   UNL     1      46.336   5.191  13.511  0.00  0.00    +0.000 A 
ATOM     10  C   UNL     1      46.678   4.702  14.787  0.00  0.00    +0.000 A 
BRANCH   9  11
ATOM     11  C   UNL     1      45.180   4.642  12.765  0.00  0.00    +0.000 C 
ATOM     12  C   UNL     1      45.186   3.399  12.244  0.00  0.00    +0.000 C 
ATOM     13  C   UNL     1      44.056   2.824  11.439  0.00  0.00    +0.000 C 
ATOM     14  N   UNL     1      42.818   3.603  11.492  0.00  0.00    +0.000 NA
ATOM     15  C   UNL     1      43.108   5.036  11.385  0.00  0.00    +0.000 C 
ATOM     16  C   UNL     1      43.969   5.524  12.559  0.00  0.00    +0.000 C 
ATOM     17  H   UNL     1      42.375   3.426  12.393  0.00  0.00    +0.000 HD
ENDBRANCH   9  11
ENDBRANCH   1   4
BRANCH   1  18
ATOM     18  O   UNL     1      49.473   4.868  17.370  0.00  0.00    +0.000 OA
BRANCH  18  22
ATOM     19  C   UNL     1      52.139   1.740  17.650  0.00  0.00    +0.000 A 
ATOM     20  C   UNL     1      52.454   2.982  18.195  0.00  0.00    +0.000 A 
ATOM     21  C   UNL     1      51.533   4.021  18.085  0.00  0.00    +0.000 A 
ATOM     22  C   UNL     1      50.327   3.782  17.435  0.00  0.00    +0.000 A 
ATOM     23  N   UNL     1      49.986   2.593  16.902  0.00  0.00    +0.000 NA
ATOM     24  C   UNL     1      50.909   1.600  17.006  0.00  0.00    +0.000 A 
BRANCH  19  26
ATOM     25  N   UNL     1      52.718  -0.470  18.490  0.00  0.00    +0.000 N 
ATOM     26  C   UNL     1      53.063   0.589  17.693  0.00  0.00    +0.000 C 
ATOM     27  O   UNL     1      54.087   0.567  17.026  0.00  0.00    +0.000 OA
ATOM     28  H   UNL     1      53.320  -1.282  18.444  0.00  0.00    +0.000 HD
ATOM     29  H   UNL     1      51.787  -0.600  18.858  0.00  0.00    +0.000 HD
ENDBRANCH  19  26
ENDBRANCH  18  22
ENDBRANCH   1  18
TORSDOF 5
ENDMDL
MODEL 6
REMARK VINA RESULT:    -6.608      4.135      7.974
REMARK INTER + INTRA:          -9.553
REMARK INTER:                  -8.754
REMARK INTRA:                  -0.799
REMARK UNBOUND:                -1.014
REMARK  Name = 
REMARK  5 active torsions:
REMARK  status: ('A' for Active; 'I' for Inactive)
REMARK    1  A    between atoms: C_2  and  C_4
REMARK    2  A    between atoms: C_7  and  O_8
REMARK    3  A    between atoms: O_8  and  C_9
REMARK    4  A    between atoms: C_9  and  C_10
REMARK    5  A    between atoms: C_15  and  C_16
REMARK                            x       y       z     vdW  Elec       q    Type
REMARK                         _______ _______ _______ _____ _____    ______ ____
ROOT
ATOM      1  C   UNL     1      48.746   8.062  12.713  0.00  0.00    +0.000 C 
ATOM      2  C   UNL     1      49.678   8.762  11.730  0.00  0.00    +0.000 C 
ATOM      3  C   UNL     1      49.238   9.472  12.967  0.00  0.00    +0.000 C 
ENDROOT
BRANCH   1   4
ATOM      4  C   UNL     1      47.309   7.832  12.269  0.00  0.00    +0.000 A 
ATOM      5  C   UNL     1      46.352   8.857  12.326  0.00  0.00    +0.000 A 
ATOM      6  C   UNL     1      45.057   8.648  11.874  0.00  0.00    +0.000 A 
ATOM      7  F   UNL     1      44.173   9.654  11.917  0.00  0.00    +0.000 F 
ATOM      8  C   UNL     1      44.663   7.416  11.375  0.00  0.00    +0.000 A 
ATOM      9  C   UNL     1      45.574   6.355  11.310  0.00  0.00    +0.000 A 
ATOM     10  C   UNL     1      46.887   6.584  11.767  0.00  0.00    +0.000 A 
BRANCH   9  11
ATOM     11  C   UNL     1      45.155   5.021  10.820  0.00  0.00    +0.000 C 
ATOM     12  C   UNL     1      45.256   4.667   9.523  0.00  0.00    +0.000 C 
ATOM     13  C   UNL     1      44.797   3.346   8.979  0.00  0.00    +0.000 C 
ATOM     14  N   UNL     1      44.486   2.344  10.001  0.00  0.00    +0.000 NA
ATOM     15  C   UNL     1      43.741   2.954  11.107  0.00  0.00    +0.000 C 
ATOM     16  C   UNL     1      44.569   4.040  11.810  0.00  0.00    +0.000 C 
ATOM     17  H   UNL     1      45.368   1.983  10.362  0.00  0.00    +0.000 HD
ENDBRANCH   9  11
ENDBRANCH   1   4
BRANCH   1  18
ATOM     18  O   UNL     1      49.438   6.959  13.344  0.00  0.00    +0.000 OA
BRANCH  18  22
ATOM     19  C   UNL     1      48.299   5.935  17.169  0.00  0.00    +0.000 A 
ATOM     20  C   UNL     1      49.099   7.054  16.950  0.00  0.00    +0.000 A 
ATOM     21  C   UNL     1      49.469   7.375  15.646  0.00  0.00    +0.000 A 
ATOM     22  C   UNL     1      49.023   6.568  14.605  0.00  0.00    +0.000 A 
ATOM     23  N   UNL     1      48.244   5.484  14.778  0.00  0.00    +0.000 NA
ATOM     24  C   UNL     1      47.911   5.180  16.061  0.00  0.00    +0.000 A 
BRANCH  19  26
ATOM     25  N   UNL     1      46.544   5.552  18.812  0.00  0.00    +0.000 N 
ATOM     26  C   UNL     1      47.881   5.501  18.517  0.00  0.00    +0.000 C 
ATOM     27  O   UNL     1      48.691   5.088  19.334  0.00  0.00    +0.000 OA
ATOM     28  H   UNL     1      46.268   5.174  19.709  0.00  0.00    +0.000 HD
ATOM     29  H   UNL     1      45.829   5.649  18.106  0.00  0.00    +0.000 HD
ENDBRANCH  19  26
ENDBRANCH  18  22
ENDBRANCH   1  18
TORSDOF 5
ENDMDL
MODEL 7
REMARK VINA RESULT:    -6.455      4.057      6.115
REMARK INTER + INTRA:          -9.356
REMARK INTER:                  -8.531
REMARK INTRA:                  -0.825
REMARK UNBOUND:                -1.014
REMARK  Name = 
REMARK  5 active torsions:
REMARK  status: ('A' for Active; 'I' for Inactive)
REMARK    1  A    between atoms: C_2  and  C_4
REMARK    2  A    between atoms: C_7  and  O_8
REMARK    3  A    between atoms: O_8  and  C_9
REMARK    4  A    between atoms: C_9  and  C_10
REMARK    5  A    between atoms: C_15  and  C_16
REMARK                            x       y       z     vdW  Elec       q    Type
REMARK                         _______ _______ _______ _____ _____    ______ ____
ROOT
ATOM      1  C   UNL     1      48.188   7.938  12.728  0.00  0.00    +0.000 C 
ATOM      2  C   UNL     1      49.069   8.863  11.896  0.00  0.00    +0.000 C 
ATOM      3  C   UNL     1      49.268   7.385  11.820  0.00  0.00    +0.000 C 
ENDROOT
BRANCH   1   4
ATOM      4  C   UNL     1      48.398   7.943  14.235  0.00  0.00    +0.000 A 
ATOM      5  C   UNL     1      48.126   9.082  15.009  0.00  0.00    +0.000 A 
ATOM      6  C   UNL     1      48.276   9.058  16.387  0.00  0.00    +0.000 A 
ATOM      7  F   UNL     1      47.983  10.154  17.102  0.00  0.00    +0.000 F 
ATOM      8  C   UNL     1      48.722   7.919  17.040  0.00  0.00    +0.000 A 
ATOM      9  C   UNL     1      49.023   6.760  16.313  0.00  0.00    +0.000 A 
ATOM     10  C   UNL     1      48.859   6.797  14.915  0.00  0.00    +0.000 A 
BRANCH   9  11
ATOM     11  C   UNL     1      49.542   5.550  16.992  0.00  0.00    +0.000 C 
ATOM     12  C   UNL     1      50.853   5.378  17.252  0.00  0.00    +0.000 C 
ATOM     13  C   UNL     1      51.425   4.147  17.892  0.00  0.00    +0.000 C 
ATOM     14  N   UNL     1      50.427   3.250  18.478  0.00  0.00    +0.000 NA
ATOM     15  C   UNL     1      49.271   3.115  17.586  0.00  0.00    +0.000 C 
ATOM     16  C   UNL     1      48.564   4.462  17.376  0.00  0.00    +0.000 C 
ATOM     17  H   UNL     1      50.114   3.661  19.356  0.00  0.00    +0.000 HD
ENDBRANCH   9  11
ENDBRANCH   1   4
BRANCH   1  18
ATOM     18  O   UNL     1      46.827   7.987  12.240  0.00  0.00    +0.000 OA
BRANCH  18  22
ATOM     19  C   UNL     1      44.824   4.451  11.566  0.00  0.00    +0.000 A 
ATOM     20  C   UNL     1      45.261   5.226  10.495  0.00  0.00    +0.000 A 
ATOM     21  C   UNL     1      45.935   6.417  10.753  0.00  0.00    +0.000 A 
ATOM     22  C   UNL     1      46.152   6.792  12.075  0.00  0.00    +0.000 A 
ATOM     23  N   UNL     1      45.750   6.065  13.134  0.00  0.00    +0.000 NA
ATOM     24  C   UNL     1      45.078   4.916  12.857  0.00  0.00    +0.000 A 
BRANCH  19  26
ATOM     25  N   UNL     1      43.746   2.487  12.519  0.00  0.00    +0.000 N 
ATOM     26  C   UNL     1      44.078   3.189  11.390  0.00  0.00    +0.000 C 
ATOM     27  O   UNL     1      43.745   2.794  10.283  0.00  0.00    +0.000 OA
ATOM     28  H   UNL     1      43.165   1.670  12.384  0.00  0.00    +0.000 HD
ATOM     29  H   UNL     1      43.782   2.887  13.444  0.00  0.00    +0.000 HD
ENDBRANCH  19  26
ENDBRANCH  18  22
ENDBRANCH   1  18
TORSDOF 5
ENDMDL
MODEL 8
REMARK VINA RESULT:    -6.214      4.014      6.088
REMARK INTER + INTRA:          -9.045
REMARK INTER:                  -8.658
REMARK INTRA:                  -0.387
REMARK UNBOUND:                -1.014
REMARK  Name = 
REMARK  5 active torsions:
REMARK  status: ('A' for Active; 'I' for Inactive)
REMARK    1  A    between atoms: C_2  and  C_4
REMARK    2  A    between atoms: C_7  and  O_8
REMARK    3  A    between atoms: O_8  and  C_9
REMARK    4  A    between atoms: C_9  and  C_10
REMARK    5  A    between atoms: C_15  and  C_16
REMARK                            x       y       z     vdW  Elec       q    Type
REMARK                         _______ _______ _______ _____ _____    ______ ____
ROOT
ATOM      1  C   UNL     1      47.979   7.593  12.979  0.00  0.00    +0.000 C 
ATOM      2  C   UNL     1      48.185   8.847  12.136  0.00  0.00    +0.000 C 
ATOM      3  C   UNL     1      48.445   7.504  11.539  0.00  0.00    +0.000 C 
ENDROOT
BRANCH   1   4
ATOM      4  C   UNL     1      48.967   7.341  14.109  0.00  0.00    +0.000 A 
ATOM      5  C   UNL     1      50.242   7.927  14.111  0.00  0.00    +0.000 A 
ATOM      6  C   UNL     1      51.115   7.728  15.170  0.00  0.00    +0.000 A 
ATOM      7  F   UNL     1      52.316   8.323  15.157  0.00  0.00    +0.000 F 
ATOM      8  C   UNL     1      50.765   6.926  16.246  0.00  0.00    +0.000 A 
ATOM      9  C   UNL     1      49.511   6.304  16.285  0.00  0.00    +0.000 A 
ATOM     10  C   UNL     1      48.632   6.521  15.206  0.00  0.00    +0.000 A 
BRANCH   9  11
ATOM     11  C   UNL     1      49.141   5.409  17.406  0.00  0.00    +0.000 C 
ATOM     12  C   UNL     1      48.675   4.160  17.205  0.00  0.00    +0.000 C 
ATOM     13  C   UNL     1      48.243   3.240  18.310  0.00  0.00    +0.000 C 
ATOM     14  N   UNL     1      48.624   3.685  19.652  0.00  0.00    +0.000 NA
ATOM     15  C   UNL     1      48.398   5.126  19.798  0.00  0.00    +0.000 C 
ATOM     16  C   UNL     1      49.264   5.932  18.819  0.00  0.00    +0.000 C 
ATOM     17  H   UNL     1      49.618   3.497  19.773  0.00  0.00    +0.000 HD
ENDBRANCH   9  11
ENDBRANCH   1   4
BRANCH   1  18
ATOM     18  O   UNL     1      46.572   7.420  13.267  0.00  0.00    +0.000 OA
BRANCH  18  22
ATOM     19  C   UNL     1      44.694   4.096  11.718  0.00  0.00    +0.000 A 
ATOM     20  C   UNL     1      45.411   4.007  12.909  0.00  0.00    +0.000 A 
ATOM     21  C   UNL     1      46.036   5.148  13.409  0.00  0.00    +0.000 A 
ATOM     22  C   UNL     1      45.921   6.339  12.701  0.00  0.00    +0.000 A 
ATOM     23  N   UNL     1      45.232   6.464  11.551  0.00  0.00    +0.000 NA
ATOM     24  C   UNL     1      44.646   5.333  11.074  0.00  0.00    +0.000 A 
BRANCH  19  26
ATOM     25  N   UNL     1      44.587   2.411   9.964  0.00  0.00    +0.000 N 
ATOM     26  C   UNL     1      44.024   2.935  11.099  0.00  0.00    +0.000 C 
ATOM     27  O   UNL     1      43.019   2.442  11.588  0.00  0.00    +0.000 OA
ATOM     28  H   UNL     1      44.162   1.568   9.602  0.00  0.00    +0.000 HD
ATOM     29  H   UNL     1      45.528   2.624   9.670  0.00  0.00    +0.000 HD
ENDBRANCH  19  26
ENDBRANCH  18  22
ENDBRANCH   1  18
TORSDOF 5
ENDMDL
MODEL 9
REMARK VINA RESULT:    -6.123      5.952      8.039
REMARK INTER + INTRA:          -8.927
REMARK INTER:                  -8.296
REMARK INTRA:                  -0.631
REMARK UNBOUND:                -1.014
REMARK  Name = 
REMARK  5 active torsions:
REMARK  status: ('A' for Active; 'I' for Inactive)
REMARK    1  A    between atoms: C_2  and  C_4
REMARK    2  A    between atoms: C_7  and  O_8
REMARK    3  A    between atoms: O_8  and  C_9
REMARK    4  A    between atoms: C_9  and  C_10
REMARK    5  A    between atoms: C_15  and  C_16
REMARK                            x       y       z     vdW  Elec       q    Type
REMARK                         _______ _______ _______ _____ _____    ______ ____
ROOT
ATOM      1  C   UNL     1      48.009   3.836  16.620  0.00  0.00    +0.000 C 
ATOM      2  C   UNL     1      47.232   2.894  17.532  0.00  0.00    +0.000 C 
ATOM      3  C   UNL     1      46.838   4.331  17.445  0.00  0.00    +0.000 C 
ENDROOT
BRANCH   1   4
ATOM      4  C   UNL     1      49.429   4.195  17.033  0.00  0.00    +0.000 A 
ATOM      5  C   UNL     1      49.863   5.529  17.083  0.00  0.00    +0.000 A 
ATOM      6  C   UNL     1      51.145   5.846  17.507  0.00  0.00    +0.000 A 
ATOM      7  F   UNL     1      51.521   7.131  17.570  0.00  0.00    +0.000 F 
ATOM      8  C   UNL     1      52.044   4.855  17.872  0.00  0.00    +0.000 A 
ATOM      9  C   UNL     1      51.667   3.506  17.825  0.00  0.00    +0.000 A 
ATOM     10  C   UNL     1      50.360   3.201  17.399  0.00  0.00    +0.000 A 
BRANCH   9  11
ATOM     11  C   UNL     1      52.631   2.435  18.169  0.00  0.00    +0.000 C 
ATOM     12  C   UNL     1      53.746   2.675  18.888  0.00  0.00    +0.000 C 
ATOM     13  C   UNL     1      54.771   1.629  19.214  0.00  0.00    +0.000 C 
ATOM     14  N   UNL     1      54.344   0.255  18.941  0.00  0.00    +0.000 NA
ATOM     15  C   UNL     1      53.640   0.183  17.656  0.00  0.00    +0.000 C 
ATOM     16  C   UNL     1      52.362   1.034  17.668  0.00  0.00    +0.000 C 
ATOM     17  H   UNL     1      53.701  -0.026  19.680  0.00  0.00    +0.000 HD
ENDBRANCH   9  11
ENDBRANCH   1   4
BRANCH   1  18
ATOM     18  O   UNL     1      47.784   3.477  15.237  0.00  0.00    +0.000 OA
BRANCH  18  22
ATOM     19  C   UNL     1      45.801   6.221  12.889  0.00  0.00    +0.000 A 
ATOM     20  C   UNL     1      47.086   6.492  13.352  0.00  0.00    +0.000 A 
ATOM     21  C   UNL     1      47.732   5.545  14.144  0.00  0.00    +0.000 A 
ATOM     22  C   UNL     1      47.071   4.359  14.445  0.00  0.00    +0.000 A 
ATOM     23  N   UNL     1      45.832   4.062  14.009  0.00  0.00    +0.000 NA
ATOM     24  C   UNL     1      45.215   5.008  13.253  0.00  0.00    +0.000 A 
BRANCH  19  26
ATOM     25  N   UNL     1      44.216   6.659  11.094  0.00  0.00    +0.000 N 
ATOM     26  C   UNL     1      45.028   7.176  12.068  0.00  0.00    +0.000 C 
ATOM     27  O   UNL     1      45.090   8.380  12.263  0.00  0.00    +0.000 OA
ATOM     28  H   UNL     1      43.634   7.320  10.598  0.00  0.00    +0.000 HD
ATOM     29  H   UNL     1      43.950   5.686  11.059  0.00  0.00    +0.000 HD
ENDBRANCH  19  26
ENDBRANCH  18  22
ENDBRANCH   1  18
TORSDOF 5
ENDMDL
