MODEL 1
REMARK VINA RESULT:    -7.498      0.000      0.000
REMARK INTER + INTRA:         -11.093
REMARK INTER:                 -10.128
REMARK INTRA:                  -0.965
REMARK UNBOUND:                -0.965
REMARK  Name = 
REMARK  6 active torsions:
REMARK  status: ('A' for Active; 'I' for Inactive)
REMARK    1  A    between atoms: C_4  and  O_5
REMARK    2  A    between atoms: O_5  and  C_6
REMARK    3  A    between atoms: C_6  and  C_7
REMARK    4  A    between atoms: C_7  and  C_8
REMARK    5  A    between atoms: C_12  and  C_13
REMARK    6  A    between atoms: C_13  and  C_14
REMARK                            x       y       z     vdW  Elec       q    Type
REMARK                         _______ _______ _______ _____ _____    ______ ____
ROOT
ATOM      1  C   UNL     1      45.263   4.394  11.857  0.00  0.00    +0.000 A 
ATOM      2  C   UNL     1      45.289   5.438  10.939  0.00  0.00    +0.000 A 
ATOM      3  C   UNL     1      46.096   6.538  11.204  0.00  0.00    +0.000 A 
ATOM      4  C   UNL     1      46.856   6.572  12.369  0.00  0.00    +0.000 A 
ATOM      5  C   UNL     1      46.783   5.500  13.249  0.00  0.00    +0.000 A 
ATOM      6  N   UNL     1      45.986   4.432  13.007  0.00  0.00    +0.000 NA
ENDROOT
BRANCH   1   7
ATOM      7  C   UNL     1      44.439   3.156  11.581  0.00  0.00    +0.000 C 
BRANCH   7   8
ATOM      8  C   UNL     1      44.087   3.051  10.098  0.00  0.00    +0.000 C 
BRANCH   8   9
ATOM      9  O   UNL     1      44.690   1.905   9.491  0.00  0.00    +0.000 OA
BRANCH   9  13
ATOM     10  C   UNL     1      47.457   2.576   6.431  0.00  0.00    +0.000 A 
ATOM     11  C   UNL     1      46.652   3.636   6.843  0.00  0.00    +0.000 A 
ATOM     12  C   UNL     1      45.714   3.446   7.859  0.00  0.00    +0.000 A 
ATOM     13  C   UNL     1      45.572   2.197   8.477  0.00  0.00    +0.000 A 
ATOM     14  C   UNL     1      46.379   1.140   8.055  0.00  0.00    +0.000 A 
ATOM     15  C   UNL     1      47.320   1.327   7.036  0.00  0.00    +0.000 A 
ENDBRANCH   9  13
ENDBRANCH   8   9
ENDBRANCH   7   8
ENDBRANCH   1   7
BRANCH   5  16
ATOM     16  C   UNL     1      47.627   5.460  14.497  0.00  0.00    +0.000 C 
BRANCH  16  17
ATOM     17  C   UNL     1      47.149   4.381  15.462  0.00  0.00    +0.000 C 
ATOM     18  C   UNL     1      47.749   4.320  16.888  0.00  0.00    +0.000 C 
ATOM     19  C   UNL     1      47.873   2.810  16.642  0.00  0.00    +0.000 C 
ATOM     20  N   UNL     1      47.835   3.081  15.193  0.00  0.00    +0.000 NA
ATOM     21  H   UNL     1      47.288   2.413  14.651  0.00  0.00    +0.000 HD
ENDBRANCH  16  17
ENDBRANCH   5  16
TORSDOF 6
ENDMDL
MODEL 2
REMARK VINA RESULT:    -6.960      2.310      4.492
REMARK INTER + INTRA:         -10.366
REMARK INTER:                  -9.379
REMARK INTRA:                  -0.987
REMARK UNBOUND:                -0.965
REMARK  Name = 
REMARK  6 active torsions:
REMARK  status: ('A' for Active; 'I' for Inactive)
REMARK    1  A    between atoms: C_4  and  O_5
REMARK    2  A    between atoms: O_5  and  C_6
REMARK    3  A    between atoms: C_6  and  C_7
REMARK    4  A    between atoms: C_7  and  C_8
REMARK    5  A    between atoms: C_12  and  C_13
REMARK    6  A    between atoms: C_13  and  C_14
REMARK                            x       y       z     vdW  Elec       q    Type
REMARK                         _______ _______ _______ _____ _____    ______ ____
ROOT
ATOM      1  C   UNL     1      44.897   5.038  12.918  0.00  0.00    +0.000 A 
ATOM      2  C   UNL     1      46.177   4.557  13.167  0.00  0.00    +0.000 A 
ATOM      3  C   UNL     1      47.223   5.467  13.263  0.00  0.00    +0.000 A 
ATOM      4  C   UNL     1      46.972   6.827  13.113  0.00  0.00    +0.000 A 
ATOM      5  C   UNL     1      45.672   7.244  12.861  0.00  0.00    +0.000 A 
ATOM      6  N   UNL     1      44.649   6.363  12.748  0.00  0.00    +0.000 NA
ENDROOT
BRANCH   1   7
ATOM      7  C   UNL     1      43.722   4.086  12.858  0.00  0.00    +0.000 C 
BRANCH   7   8
ATOM      8  C   UNL     1      43.138   4.025  11.447  0.00  0.00    +0.000 C 
BRANCH   8   9
ATOM      9  O   UNL     1      43.457   2.791  10.797  0.00  0.00    +0.000 OA
BRANCH   9  13
ATOM     10  C   UNL     1      46.172   3.374   7.675  0.00  0.00    +0.000 A 
ATOM     11  C   UNL     1      45.934   2.074   8.113  0.00  0.00    +0.000 A 
ATOM     12  C   UNL     1      45.037   1.843   9.157  0.00  0.00    +0.000 A 
ATOM     13  C   UNL     1      44.366   2.908   9.772  0.00  0.00    +0.000 A 
ATOM     14  C   UNL     1      44.614   4.207   9.329  0.00  0.00    +0.000 A 
ATOM     15  C   UNL     1      45.513   4.442   8.283  0.00  0.00    +0.000 A 
ENDBRANCH   9  13
ENDBRANCH   8   9
ENDBRANCH   7   8
ENDBRANCH   1   7
BRANCH   5  16
ATOM     16  C   UNL     1      45.334   8.709  12.745  0.00  0.00    +0.000 C 
BRANCH  16  17
ATOM     17  C   UNL     1      44.793   9.051  11.361  0.00  0.00    +0.000 C 
ATOM     18  C   UNL     1      44.208  10.461  11.104  0.00  0.00    +0.000 C 
ATOM     19  C   UNL     1      43.054   9.726  10.410  0.00  0.00    +0.000 C 
ATOM     20  N   UNL     1      43.409   8.520  11.182  0.00  0.00    +0.000 NA
ATOM     21  H   UNL     1      43.349   7.648  10.658  0.00  0.00    +0.000 HD
ENDBRANCH  16  17
ENDBRANCH   5  16
TORSDOF 6
ENDMDL
MODEL 3
REMARK VINA RESULT:    -6.831      1.868      3.749
REMARK INTER + INTRA:         -10.192
REMARK INTER:                  -9.348
REMARK INTRA:                  -0.845
REMARK UNBOUND:                -0.965
REMARK  Name = 
REMARK  6 active torsions:
REMARK  status: ('A' for Active; 'I' for Inactive)
REMARK    1  A    between atoms: C_4  and  O_5
REMARK    2  A    between atoms: O_5  and  C_6
REMARK    3  A    between atoms: C_6  and  C_7
REMARK    4  A    between atoms: C_7  and  C_8
REMARK    5  A    between atoms: C_12  and  C_13
REMARK    6  A    between atoms: C_13  and  C_14
REMARK                            x       y       z     vdW  Elec       q    Type
REMARK                         _______ _______ _______ _____ _____    ______ ____
ROOT
ATOM      1  C   UNL     1      44.856   4.120  12.105  0.00  0.00    +0.000 A 
ATOM      2  C   UNL     1      45.738   3.265  12.757  0.00  0.00    +0.000 A 
ATOM      3  C   UNL     1      46.760   3.819  13.520  0.00  0.00    +0.000 A 
ATOM      4  C   UNL     1      46.878   5.202  13.617  0.00  0.00    +0.000 A 
ATOM      5  C   UNL     1      45.969   6.001  12.938  0.00  0.00    +0.000 A 
ATOM      6  N   UNL     1      44.980   5.471  12.178  0.00  0.00    +0.000 NA
ENDROOT
BRANCH   1   7
ATOM      7  C   UNL     1      43.699   3.559  11.308  0.00  0.00    +0.000 C 
BRANCH   7   8
ATOM      8  C   UNL     1      44.199   2.709  10.140  0.00  0.00    +0.000 C 
BRANCH   8   9
ATOM      9  O   UNL     1      44.545   3.516   9.011  0.00  0.00    +0.000 OA
BRANCH   9  13
ATOM     10  C   UNL     1      47.523   1.702   6.708  0.00  0.00    +0.000 A 
ATOM     11  C   UNL     1      47.278   3.061   6.525  0.00  0.00    +0.000 A 
ATOM     12  C   UNL     1      46.287   3.697   7.273  0.00  0.00    +0.000 A 
ATOM     13  C   UNL     1      45.534   2.985   8.215  0.00  0.00    +0.000 A 
ATOM     14  C   UNL     1      45.783   1.624   8.388  0.00  0.00    +0.000 A 
ATOM     15  C   UNL     1      46.775   0.982   7.639  0.00  0.00    +0.000 A 
ENDBRANCH   9  13
ENDBRANCH   8   9
ENDBRANCH   7   8
ENDBRANCH   1   7
BRANCH   5  16
ATOM     16  C   UNL     1      46.017   7.504  13.053  0.00  0.00    +0.000 C 
BRANCH  16  17
ATOM     17  C   UNL     1      45.582   8.179  11.757  0.00  0.00    +0.000 C 
ATOM     18  C   UNL     1      45.511   9.724  11.696  0.00  0.00    +0.000 C 
ATOM     19  C   UNL     1      44.152   9.516  11.014  0.00  0.00    +0.000 C 
ATOM     20  N   UNL     1      44.094   8.175  11.626  0.00  0.00    +0.000 NA
ATOM     21  H   UNL     1      43.720   7.448  11.017  0.00  0.00    +0.000 HD
ENDBRANCH  16  17
ENDBRANCH   5  16
TORSDOF 6
ENDMDL
MODEL 4
REMARK VINA RESULT:    -6.678      1.920      2.634
REMARK INTER + INTRA:          -9.985
REMARK INTER:                  -9.260
REMARK INTRA:                  -0.725
REMARK UNBOUND:                -0.965
REMARK  Name = 
REMARK  6 active torsions:
REMARK  status: ('A' for Active; 'I' for Inactive)
REMARK    1  A    between atoms: C_4  and  O_5
REMARK    2  A    between atoms: O_5  and  C_6
REMARK    3  A    between atoms: C_6  and  C_7
REMARK    4  A    between atoms: C_7  and  C_8
REMARK    5  A    between atoms: C_12  and  C_13
REMARK    6  A    between atoms: C_13  and  C_14
REMARK                            x       y       z     vdW  Elec       q    Type
REMARK                         _______ _______ _______ _____ _____    ______ ____
ROOT
ATOM      1  C   UNL     1      45.061   4.858  11.574  0.00  0.00    +0.000 A 
ATOM      2  C   UNL     1      45.248   3.659  12.251  0.00  0.00    +0.000 A 
ATOM      3  C   UNL     1      46.259   3.582  13.203  0.00  0.00    +0.000 A 
ATOM      4  C   UNL     1      47.054   4.695  13.457  0.00  0.00    +0.000 A 
ATOM      5  C   UNL     1      46.820   5.863  12.744  0.00  0.00    +0.000 A 
ATOM      6  N   UNL     1      45.849   5.942  11.802  0.00  0.00    +0.000 NA
ENDROOT
BRANCH   1   7
ATOM      7  C   UNL     1      43.939   5.000  10.569  0.00  0.00    +0.000 C 
BRANCH   7   8
ATOM      8  C   UNL     1      44.076   3.972   9.446  0.00  0.00    +0.000 C 
BRANCH   8   9
ATOM      9  O   UNL     1      44.966   4.425   8.422  0.00  0.00    +0.000 OA
BRANCH   9  13
ATOM     10  C   UNL     1      47.287   1.285   6.934  0.00  0.00    +0.000 A 
ATOM     11  C   UNL     1      47.365   2.524   6.304  0.00  0.00    +0.000 A 
ATOM     12  C   UNL     1      46.599   3.594   6.771  0.00  0.00    +0.000 A 
ATOM     13  C   UNL     1      45.752   3.438   7.875  0.00  0.00    +0.000 A 
ATOM     14  C   UNL     1      45.677   2.192   8.498  0.00  0.00    +0.000 A 
ATOM     15  C   UNL     1      46.443   1.118   8.032  0.00  0.00    +0.000 A 
ENDBRANCH   9  13
ENDBRANCH   8   9
ENDBRANCH   7   8
ENDBRANCH   1   7
BRANCH   5  16
ATOM     16  C   UNL     1      47.614   7.114  13.019  0.00  0.00    +0.000 C 
BRANCH  16  17
ATOM     17  C   UNL     1      48.419   6.994  14.309  0.00  0.00    +0.000 C 
ATOM     18  C   UNL     1      48.610   8.244  15.201  0.00  0.00    +0.000 C 
ATOM     19  C   UNL     1      50.083   7.818  15.277  0.00  0.00    +0.000 C 
ATOM     20  N   UNL     1      49.885   7.054  14.031  0.00  0.00    +0.000 NA
ATOM     21  H   UNL     1      50.354   6.149  14.011  0.00  0.00    +0.000 HD
ENDBRANCH  16  17
ENDBRANCH   5  16
TORSDOF 6
ENDMDL
MODEL 5
REMARK VINA RESULT:    -6.671      1.763      2.255
REMARK INTER + INTRA:          -9.976
REMARK INTER:                  -9.378
REMARK INTRA:                  -0.597
REMARK UNBOUND:                -0.965
REMARK  Name = 
REMARK  6 active torsions:
REMARK  status: ('A' for Active; 'I' for Inactive)
REMARK    1  A    between atoms: C_4  and  O_5
REMARK    2  A    between atoms: O_5  and  C_6
REMARK    3  A    between atoms: C_6  and  C_7
REMARK    4  A    between atoms: C_7  and  C_8
REMARK    5  A    between atoms: C_12  and  C_13
REMARK    6  A    between atoms: C_13  and  C_14
REMARK                            x       y       z     vdW  Elec       q    Type
REMARK                         _______ _______ _______ _____ _____    ______ ____
ROOT
ATOM      1  C   UNL     1      44.201   4.769  11.661  0.00  0.00    +0.000 A 
ATOM      2  C   UNL     1      43.764   6.017  11.232  0.00  0.00    +0.000 A 
ATOM      3  C   UNL     1      44.461   7.146  11.647  0.00  0.00    +0.000 A 
ATOM      4  C   UNL     1      45.572   7.006  12.474  0.00  0.00    +0.000 A 
ATOM      5  C   UNL     1      45.954   5.733  12.873  0.00  0.00    +0.000 A 
ATOM      6  N   UNL     1      45.271   4.628  12.487  0.00  0.00    +0.000 NA
ENDROOT
BRANCH   1   7
ATOM      7  C   UNL     1      43.502   3.513  11.190  0.00  0.00    +0.000 C 
BRANCH   7   8
ATOM      8  C   UNL     1      44.401   2.704  10.256  0.00  0.00    +0.000 C 
BRANCH   8   9
ATOM      9  O   UNL     1      44.457   3.279   8.948  0.00  0.00    +0.000 OA
BRANCH   9  13
ATOM     10  C   UNL     1      47.570   1.647   6.688  0.00  0.00    +0.000 A 
ATOM     11  C   UNL     1      47.180   2.958   6.430  0.00  0.00    +0.000 A 
ATOM     12  C   UNL     1      46.140   3.533   7.163  0.00  0.00    +0.000 A 
ATOM     13  C   UNL     1      45.482   2.806   8.162  0.00  0.00    +0.000 A 
ATOM     14  C   UNL     1      45.876   1.492   8.410  0.00  0.00    +0.000 A 
ATOM     15  C   UNL     1      46.918   0.911   7.678  0.00  0.00    +0.000 A 
ENDBRANCH   9  13
ENDBRANCH   8   9
ENDBRANCH   7   8
ENDBRANCH   1   7
BRANCH   5  16
ATOM     16  C   UNL     1      47.182   5.520  13.722  0.00  0.00    +0.000 C 
BRANCH  16  17
ATOM     17  C   UNL     1      47.993   6.804  13.865  0.00  0.00    +0.000 C 
ATOM     18  C   UNL     1      49.115   7.107  12.843  0.00  0.00    +0.000 C 
ATOM     19  C   UNL     1      49.967   7.473  14.067  0.00  0.00    +0.000 C 
ATOM     20  N   UNL     1      49.066   6.647  14.892  0.00  0.00    +0.000 NA
ATOM     21  H   UNL     1      48.845   7.043  15.805  0.00  0.00    +0.000 HD
ENDBRANCH  16  17
ENDBRANCH   5  16
TORSDOF 6
ENDMDL
MODEL 6
REMARK VINA RESULT:    -6.387      2.259      6.999
REMARK INTER + INTRA:          -9.592
REMARK INTER:                  -8.808
REMARK INTRA:                  -0.784
REMARK UNBOUND:                -0.965
REMARK  Name = 
REMARK  6 active torsions:
REMARK  status: ('A' for Active; 'I' for Inactive)
REMARK    1  A    between atoms: C_4  and  O_5
REMARK    2  A    between atoms: O_5  and  C_6
REMARK    3  A    between atoms: C_6  and  C_7
REMARK    4  A    between atoms: C_7  and  C_8
REMARK    5  A    between atoms: C_12  and  C_13
REMARK    6  A    between atoms: C_13  and  C_14
REMARK                            x       y       z     vdW  Elec       q    Type
REMARK                         _______ _______ _______ _____ _____    ______ ____
ROOT
ATOM      1  C   UNL     1      44.863   5.248  11.194  0.00  0.00    +0.000 A 
ATOM      2  C   UNL     1      44.107   4.955  12.323  0.00  0.00    +0.000 A 
ATOM      3  C   UNL     1      43.439   3.736  12.379  0.00  0.00    +0.000 A 
ATOM      4  C   UNL     1      43.542   2.843  11.317  0.00  0.00    +0.000 A 
ATOM      5  C   UNL     1      44.310   3.197  10.216  0.00  0.00    +0.000 A 
ATOM      6  N   UNL     1      44.949   4.389  10.144  0.00  0.00    +0.000 NA
ENDROOT
BRANCH   1   7
ATOM      7  C   UNL     1      45.647   6.540  11.115  0.00  0.00    +0.000 C 
BRANCH   7   8
ATOM      8  C   UNL     1      46.195   6.932  12.487  0.00  0.00    +0.000 C 
BRANCH   8   9
ATOM      9  O   UNL     1      47.479   6.349  12.729  0.00  0.00    +0.000 OA
BRANCH   9  13
ATOM     10  C   UNL     1      48.146   5.022  16.635  0.00  0.00    +0.000 A 
ATOM     11  C   UNL     1      47.319   4.265  15.809  0.00  0.00    +0.000 A 
ATOM     12  C   UNL     1      47.071   4.681  14.500  0.00  0.00    +0.000 A 
ATOM     13  C   UNL     1      47.648   5.856  14.001  0.00  0.00    +0.000 A 
ATOM     14  C   UNL     1      48.471   6.611  14.837  0.00  0.00    +0.000 A 
ATOM     15  C   UNL     1      48.722   6.197  16.150  0.00  0.00    +0.000 A 
ENDBRANCH   9  13
ENDBRANCH   8   9
ENDBRANCH   7   8
ENDBRANCH   1   7
BRANCH   5  16
ATOM     16  C   UNL     1      44.500   2.244   9.063  0.00  0.00    +0.000 C 
BRANCH  16  17
ATOM     17  C   UNL     1      45.966   2.149   8.651  0.00  0.00    +0.000 C 
ATOM     18  C   UNL     1      46.400   2.696   7.270  0.00  0.00    +0.000 C 
ATOM     19  C   UNL     1      47.188   1.386   7.132  0.00  0.00    +0.000 C 
ATOM     20  N   UNL     1      46.289   0.785   8.136  0.00  0.00    +0.000 NA
ATOM     21  H   UNL     1      46.752   0.173   8.807  0.00  0.00    +0.000 HD
ENDBRANCH  16  17
ENDBRANCH   5  16
TORSDOF 6
ENDMDL
MODEL 7
REMARK VINA RESULT:    -6.136      1.736      2.125
REMARK INTER + INTRA:          -9.253
REMARK INTER:                  -8.554
REMARK INTRA:                  -0.699
REMARK UNBOUND:                -0.965
REMARK  Name = 
REMARK  6 active torsions:
REMARK  status: ('A' for Active; 'I' for Inactive)
REMARK    1  A    between atoms: C_4  and  O_5
REMARK    2  A    between atoms: O_5  and  C_6
REMARK    3  A    between atoms: C_6  and  C_7
REMARK    4  A    between atoms: C_7  and  C_8
REMARK    5  A    between atoms: C_12  and  C_13
REMARK    6  A    between atoms: C_13  and  C_14
REMARK                            x       y       z     vdW  Elec       q    Type
REMARK                         _______ _______ _______ _____ _____    ______ ____
ROOT
ATOM      1  C   UNL     1      45.692   6.201  12.456  0.00  0.00    +0.000 A 
ATOM      2  C   UNL     1      45.052   7.422  12.279  0.00  0.00    +0.000 A 
ATOM      3  C   UNL     1      45.701   8.580  12.691  0.00  0.00    +0.000 A 
ATOM      4  C   UNL     1      46.966   8.496  13.265  0.00  0.00    +0.000 A 
ATOM      5  C   UNL     1      47.550   7.246  13.419  0.00  0.00    +0.000 A 
ATOM      6  N   UNL     1      46.918   6.110  13.036  0.00  0.00    +0.000 NA
ENDROOT
BRANCH   1   7
ATOM      7  C   UNL     1      45.043   4.922  11.974  0.00  0.00    +0.000 C 
BRANCH   7   8
ATOM      8  C   UNL     1      44.659   5.025  10.499  0.00  0.00    +0.000 C 
BRANCH   8   9
ATOM      9  O   UNL     1      44.311   3.750   9.953  0.00  0.00    +0.000 OA
BRANCH   9  13
ATOM     10  C   UNL     1      46.895   2.163   7.077  0.00  0.00    +0.000 A 
ATOM     11  C   UNL     1      46.661   3.536   7.074  0.00  0.00    +0.000 A 
ATOM     12  C   UNL     1      45.800   4.099   8.017  0.00  0.00    +0.000 A 
ATOM     13  C   UNL     1      45.167   3.298   8.975  0.00  0.00    +0.000 A 
ATOM     14  C   UNL     1      45.403   1.923   8.968  0.00  0.00    +0.000 A 
ATOM     15  C   UNL     1      46.265   1.355   8.023  0.00  0.00    +0.000 A 
ENDBRANCH   9  13
ENDBRANCH   8   9
ENDBRANCH   7   8
ENDBRANCH   1   7
BRANCH   5  16
ATOM     16  C   UNL     1      48.941   7.103  13.982  0.00  0.00    +0.000 C 
BRANCH  16  17
ATOM     17  C   UNL     1      48.918   6.960  15.500  0.00  0.00    +0.000 C 
ATOM     18  C   UNL     1      50.212   6.543  16.241  0.00  0.00    +0.000 C 
ATOM     19  C   UNL     1      49.313   5.568  17.015  0.00  0.00    +0.000 C 
ATOM     20  N   UNL     1      48.345   5.641  15.905  0.00  0.00    +0.000 NA
ATOM     21  H   UNL     1      47.368   5.670  16.196  0.00  0.00    +0.000 HD
ENDBRANCH  16  17
ENDBRANCH   5  16
TORSDOF 6
ENDMDL
MODEL 8
REMARK VINA RESULT:    -6.075      1.958      2.968
REMARK INTER + INTRA:          -9.170
REMARK INTER:                  -8.570
REMARK INTRA:                  -0.600
REMARK UNBOUND:                -0.965
REMARK  Name = 
REMARK  6 active torsions:
REMARK  status: ('A' for Active; 'I' for Inactive)
REMARK    1  A    between atoms: C_4  and  O_5
REMARK    2  A    between atoms: O_5  and  C_6
REMARK    3  A    between atoms: C_6  and  C_7
REMARK    4  A    between atoms: C_7  and  C_8
REMARK    5  A    between atoms: C_12  and  C_13
REMARK    6  A    between atoms: C_13  and  C_14
REMARK                            x       y       z     vdW  Elec       q    Type
REMARK                         _______ _______ _______ _____ _____    ______ ____
ROOT
ATOM      1  C   UNL     1      44.145   3.800  11.098  0.00  0.00    +0.000 A 
ATOM      2  C   UNL     1      43.008   4.560  11.344  0.00  0.00    +0.000 A 
ATOM      3  C   UNL     1      43.022   5.455  12.408  0.00  0.00    +0.000 A 
ATOM      4  C   UNL     1      44.163   5.573  13.196  0.00  0.00    +0.000 A 
ATOM      5  C   UNL     1      45.265   4.782  12.902  0.00  0.00    +0.000 A 
ATOM      6  N   UNL     1      45.255   3.894  11.878  0.00  0.00    +0.000 NA
ENDROOT
BRANCH   1   7
ATOM      7  C   UNL     1      44.190   2.853   9.919  0.00  0.00    +0.000 C 
BRANCH   7   8
ATOM      8  C   UNL     1      44.182   3.622   8.599  0.00  0.00    +0.000 C 
BRANCH   8   9
ATOM      9  O   UNL     1      45.482   4.118   8.269  0.00  0.00    +0.000 OA
BRANCH   9  13
ATOM     10  C   UNL     1      47.798   1.634   5.834  0.00  0.00    +0.000 A 
ATOM     11  C   UNL     1      47.452   1.182   7.105  0.00  0.00    +0.000 A 
ATOM     12  C   UNL     1      46.683   1.988   7.946  0.00  0.00    +0.000 A 
ATOM     13  C   UNL     1      46.249   3.251   7.526  0.00  0.00    +0.000 A 
ATOM     14  C   UNL     1      46.605   3.698   6.254  0.00  0.00    +0.000 A 
ATOM     15  C   UNL     1      47.376   2.893   5.408  0.00  0.00    +0.000 A 
ENDBRANCH   9  13
ENDBRANCH   8   9
ENDBRANCH   7   8
ENDBRANCH   1   7
BRANCH   5  16
ATOM     16  C   UNL     1      46.546   4.909  13.688  0.00  0.00    +0.000 C 
BRANCH  16  17
ATOM     17  C   UNL     1      47.471   5.960  13.084  0.00  0.00    +0.000 C 
ATOM     18  C   UNL     1      47.377   7.425  13.577  0.00  0.00    +0.000 C 
ATOM     19  C   UNL     1      47.418   7.803  12.090  0.00  0.00    +0.000 C 
ATOM     20  N   UNL     1      46.947   6.442  11.771  0.00  0.00    +0.000 NA
ATOM     21  H   UNL     1      47.388   6.022  10.953  0.00  0.00    +0.000 HD
ENDBRANCH  16  17
ENDBRANCH   5  16
TORSDOF 6
ENDMDL
MODEL 9
REMARK VINA RESULT:    -6.000      3.068      7.070
REMARK INTER + INTRA:          -9.069
REMARK INTER:                  -8.487
REMARK INTRA:                  -0.582
REMARK UNBOUND:                -0.965
REMARK  Name = 
REMARK  6 active torsions:
REMARK  status: ('A' for Active; 'I' for Inactive)
REMARK    1  A    between atoms: C_4  and  O_5
REMARK    2  A    between atoms: O_5  and  C_6
REMARK    3  A    between atoms: C_6  and  C_7
REMARK    4  A    between atoms: C_7  and  C_8
REMARK    5  A    between atoms: C_12  and  C_13
REMARK    6  A    between atoms: C_13  and  C_14
REMARK                            x       y       z     vdW  Elec       q    Type
REMARK                         _______ _______ _______ _____ _____    ______ ____
ROOT
ATOM      1  C   UNL     1      44.952   5.071  11.204  0.00  0.00    +0.000 A 
ATOM      2  C   UNL     1      44.167   4.760  12.308  0.00  0.00    +0.000 A 
ATOM      3  C   UNL     1      43.472   3.556  12.313  0.00  0.00    +0.000 A 
ATOM      4  C   UNL     1      43.577   2.694  11.226  0.00  0.00    +0.000 A 
ATOM      5  C   UNL     1      44.375   3.064  10.152  0.00  0.00    +0.000 A 
ATOM      6  N   UNL     1      45.041   4.243  10.130  0.00  0.00    +0.000 NA
ENDROOT
BRANCH   1   7
ATOM      7  C   UNL     1      45.765   6.347  11.181  0.00  0.00    +0.000 C 
BRANCH   7   8
ATOM      8  C   UNL     1      46.662   6.447  12.415  0.00  0.00    +0.000 C 
BRANCH   8   9
ATOM      9  O   UNL     1      46.571   7.735  13.030  0.00  0.00    +0.000 OA
BRANCH   9  13
ATOM     10  C   UNL     1      48.625  10.840  11.130  0.00  0.00    +0.000 A 
ATOM     11  C   UNL     1      49.312   9.659  11.403  0.00  0.00    +0.000 A 
ATOM     12  C   UNL     1      48.658   8.604  12.041  0.00  0.00    +0.000 A 
ATOM     13  C   UNL     1      47.312   8.715  12.409  0.00  0.00    +0.000 A 
ATOM     14  C   UNL     1      46.633   9.902  12.136  0.00  0.00    +0.000 A 
ATOM     15  C   UNL     1      47.286  10.963  11.497  0.00  0.00    +0.000 A 
ENDBRANCH   9  13
ENDBRANCH   8   9
ENDBRANCH   7   8
ENDBRANCH   1   7
BRANCH   5  16
ATOM     16  C   UNL     1      44.568   2.143   8.974  0.00  0.00    +0.000 C 
BRANCH  16  17
ATOM     17  C   UNL     1      46.029   2.091   8.538  0.00  0.00    +0.000 C 
ATOM     18  C   UNL     1      46.418   2.611   7.133  0.00  0.00    +0.000 C 
ATOM     19  C   UNL     1      47.253   1.328   7.020  0.00  0.00    +0.000 C 
ATOM     20  N   UNL     1      46.395   0.725   8.058  0.00  0.00    +0.000 NA
ATOM     21  H   UNL     1      46.893   0.152   8.738  0.00  0.00    +0.000 HD
ENDBRANCH  16  17
ENDBRANCH   5  16
TORSDOF 6
ENDMDL
