MODEL 1
REMARK VINA RESULT:    -8.594      0.000      0.000
REMARK INTER + INTRA:         -11.673
REMARK INTER:                 -11.106
REMARK INTRA:                  -0.567
REMARK UNBOUND:                -0.567
REMARK  Name = 
REMARK  5 active torsions:
REMARK  status: ('A' for Active; 'I' for Inactive)
REMARK    1  A    between atoms: C_2  and  C_3
REMARK    2  A    between atoms: C_7  and  N_8
REMARK    3  A    between atoms: N_8  and  C_9
REMARK    4  A    between atoms: C_9  and  C_10
REMARK    5  A    between atoms: C_12  and  C_13
REMARK                            x       y       z     vdW  Elec       q    Type
REMARK                         _______ _______ _______ _____ _____    ______ ____
ROOT
ATOM      1  C   UNL     1      43.509   4.993  10.873  0.00  0.00    +0.000 A 
ATOM      2  C   UNL     1      44.336   4.573   9.831  0.00  0.00    +0.000 A 
ATOM      3  C   UNL     1      44.638   3.211   9.670  0.00  0.00    +0.000 A 
ATOM      4  C   UNL     1      44.057   2.323  10.583  0.00  0.00    +0.000 A 
ATOM      5  C   UNL     1      43.224   2.815  11.576  0.00  0.00    +0.000 A 
ATOM      6  N   UNL     1      42.933   4.122  11.736  0.00  0.00    +0.000 NA
ENDROOT
BRANCH   3   7
ATOM      7  C   UNL     1      45.533   2.742   8.585  0.00  0.00    +0.000 A 
ATOM      8  C   UNL     1      46.052   3.626   7.618  0.00  0.00    +0.000 A 
ATOM      9  C   UNL     1      46.904   3.183   6.599  0.00  0.00    +0.000 A 
ATOM     10  C   UNL     1      47.265   1.843   6.530  0.00  0.00    +0.000 A 
ATOM     11  C   UNL     1      46.765   0.959   7.474  0.00  0.00    +0.000 A 
ATOM     12  F   UNL     1      47.112  -0.334   7.417  0.00  0.00    +0.000 F 
ATOM     13  C   UNL     1      45.907   1.391   8.483  0.00  0.00    +0.000 A 
ENDBRANCH   3   7
BRANCH   1  14
ATOM     14  C   UNL     1      43.213   6.471  11.057  0.00  0.00    +0.000 C 
BRANCH  14  15
ATOM     15  N   UNL     1      43.838   6.986  12.274  0.00  0.00    +0.000 N 
ATOM     16  H   UNL     1      43.201   7.035  13.066  0.00  0.00    +0.000 HD
BRANCH  15  21
ATOM     17  C   UNL     1      46.881   5.222  13.507  0.00  0.00    +0.000 A 
ATOM     18  C   UNL     1      47.838   6.031  12.909  0.00  0.00    +0.000 A 
ATOM     19  N   UNL     1      47.531   7.127  12.187  0.00  0.00    +0.000 NA
ATOM     20  C   UNL     1      46.212   7.412  12.048  0.00  0.00    +0.000 A 
ATOM     21  C   UNL     1      45.155   6.675  12.599  0.00  0.00    +0.000 A 
ATOM     22  C   UNL     1      45.532   5.550  13.338  0.00  0.00    +0.000 A 
BRANCH  17  24
ATOM     23  N   UNL     1      47.602   3.145  14.869  0.00  0.00    +0.000 NA
ATOM     24  C   UNL     1      47.277   4.072  14.259  0.00  0.00    +0.000 C 
ENDBRANCH  17  24
ENDBRANCH  15  21
ENDBRANCH  14  15
ENDBRANCH   1  14
TORSDOF 5
ENDMDL
MODEL 2
REMARK VINA RESULT:    -8.309      1.207      2.282
REMARK INTER + INTRA:         -11.304
REMARK INTER:                 -10.607
REMARK INTRA:                  -0.697
REMARK UNBOUND:                -0.567
REMARK  Name = 
REMARK  5 active torsions:
REMARK  status: ('A' for Active; 'I' for Inactive)
REMARK    1  A    between atoms: C_2  and  C_3
REMARK    2  A    between atoms: C_7  and  N_8
REMARK    3  A    between atoms: N_8  and  C_9
REMARK    4  A    between atoms: C_9  and  C_10
REMARK    5  A    between atoms: C_12  and  C_13
REMARK                            x       y       z     vdW  Elec       q    Type
REMARK                         _______ _______ _______ _____ _____    ______ ____
ROOT
ATOM      1  C   UNL     1      43.858   5.122  11.101  0.00  0.00    +0.000 A 
ATOM      2  C   UNL     1      44.620   4.682  10.018  0.00  0.00    +0.000 A 
ATOM      3  C   UNL     1      44.729   3.311   9.737  0.00  0.00    +0.000 A 
ATOM      4  C   UNL     1      44.028   2.437  10.577  0.00  0.00    +0.000 A 
ATOM      5  C   UNL     1      43.270   2.953  11.617  0.00  0.00    +0.000 A 
ATOM      6  N   UNL     1      43.165   4.269  11.892  0.00  0.00    +0.000 NA
ENDROOT
BRANCH   3   7
ATOM      7  C   UNL     1      45.551   2.817   8.607  0.00  0.00    +0.000 A 
ATOM      8  C   UNL     1      46.011   3.681   7.593  0.00  0.00    +0.000 A 
ATOM      9  C   UNL     1      46.795   3.214   6.530  0.00  0.00    +0.000 A 
ATOM     10  C   UNL     1      47.145   1.871   6.463  0.00  0.00    +0.000 A 
ATOM     11  C   UNL     1      46.702   1.007   7.453  0.00  0.00    +0.000 A 
ATOM     12  F   UNL     1      47.038  -0.289   7.398  0.00  0.00    +0.000 F 
ATOM     13  C   UNL     1      45.911   1.462   8.506  0.00  0.00    +0.000 A 
ENDBRANCH   3   7
BRANCH   1  14
ATOM     14  C   UNL     1      43.771   6.605  11.414  0.00  0.00    +0.000 C 
BRANCH  14  15
ATOM     15  N   UNL     1      44.547   6.938  12.608  0.00  0.00    +0.000 N 
ATOM     16  H   UNL     1      44.097   6.653  13.474  0.00  0.00    +0.000 HD
BRANCH  15  21
ATOM     17  C   UNL     1      48.164   7.776  12.280  0.00  0.00    +0.000 A 
ATOM     18  C   UNL     1      48.685   6.690  12.971  0.00  0.00    +0.000 A 
ATOM     19  N   UNL     1      47.921   5.700  13.475  0.00  0.00    +0.000 NA
ATOM     20  C   UNL     1      46.581   5.815  13.290  0.00  0.00    +0.000 A 
ATOM     21  C   UNL     1      45.936   6.859  12.614  0.00  0.00    +0.000 A 
ATOM     22  C   UNL     1      46.778   7.856  12.112  0.00  0.00    +0.000 A 
BRANCH  17  24
ATOM     23  N   UNL     1      49.740   9.610  11.365  0.00  0.00    +0.000 NA
ATOM     24  C   UNL     1      49.033   8.792  11.773  0.00  0.00    +0.000 C 
ENDBRANCH  17  24
ENDBRANCH  15  21
ENDBRANCH  14  15
ENDBRANCH   1  14
TORSDOF 5
ENDMDL
MODEL 3
REMARK VINA RESULT:    -7.917      3.611      6.550
REMARK INTER + INTRA:         -10.798
REMARK INTER:                 -10.174
REMARK INTRA:                  -0.624
REMARK UNBOUND:                -0.567
REMARK  Name = 
REMARK  5 active torsions:
REMARK  status: ('A' for Active; 'I' for Inactive)
REMARK    1  A    between atoms: C_2  and  C_3
REMARK    2  A    between atoms: C_7  and  N_8
REMARK    3  A    between atoms: N_8  and  C_9
REMARK    4  A    between atoms: C_9  and  C_10
REMARK    5  A    between atoms: C_12  and  C_13
REMARK                            x       y       z     vdW  Elec       q    Type
REMARK                         _______ _______ _______ _____ _____    ______ ____
ROOT
ATOM      1  C   UNL     1      44.928   4.322  11.931  0.00  0.00    +0.000 A 
ATOM      2  C   UNL     1      45.374   5.624  11.700  0.00  0.00    +0.000 A 
ATOM      3  C   UNL     1      46.433   6.155  12.453  0.00  0.00    +0.000 A 
ATOM      4  C   UNL     1      47.012   5.314  13.410  0.00  0.00    +0.000 A 
ATOM      5  C   UNL     1      46.530   4.023  13.562  0.00  0.00    +0.000 A 
ATOM      6  N   UNL     1      45.512   3.509  12.843  0.00  0.00    +0.000 NA
ENDROOT
BRANCH   3   7
ATOM      7  C   UNL     1      46.909   7.543  12.242  0.00  0.00    +0.000 A 
ATOM      8  C   UNL     1      48.259   7.829  11.956  0.00  0.00    +0.000 A 
ATOM      9  C   UNL     1      48.705   9.141  11.749  0.00  0.00    +0.000 A 
ATOM     10  C   UNL     1      47.805  10.198  11.815  0.00  0.00    +0.000 A 
ATOM     11  C   UNL     1      46.473   9.935  12.095  0.00  0.00    +0.000 A 
ATOM     12  F   UNL     1      45.598  10.948  12.157  0.00  0.00    +0.000 F 
ATOM     13  C   UNL     1      46.025   8.634  12.314  0.00  0.00    +0.000 A 
ENDBRANCH   3   7
BRANCH   1  14
ATOM     14  C   UNL     1      43.762   3.766  11.133  0.00  0.00    +0.000 C 
BRANCH  14  15
ATOM     15  N   UNL     1      43.894   4.091   9.714  0.00  0.00    +0.000 N 
ATOM     16  H   UNL     1      43.586   5.033   9.484  0.00  0.00    +0.000 HD
BRANCH  15  21
ATOM     17  C   UNL     1      46.285   1.869   7.912  0.00  0.00    +0.000 A 
ATOM     18  C   UNL     1      46.959   2.845   7.189  0.00  0.00    +0.000 A 
ATOM     19  N   UNL     1      46.703   4.163   7.310  0.00  0.00    +0.000 NA
ATOM     20  C   UNL     1      45.720   4.512   8.178  0.00  0.00    +0.000 A 
ATOM     21  C   UNL     1      44.969   3.626   8.961  0.00  0.00    +0.000 A 
ATOM     22  C   UNL     1      45.279   2.272   8.796  0.00  0.00    +0.000 A 
BRANCH  17  24
ATOM     23  N   UNL     1      46.873  -0.629   7.595  0.00  0.00    +0.000 NA
ATOM     24  C   UNL     1      46.608   0.488   7.734  0.00  0.00    +0.000 C 
ENDBRANCH  17  24
ENDBRANCH  15  21
ENDBRANCH  14  15
ENDBRANCH   1  14
TORSDOF 5
ENDMDL
MODEL 4
REMARK VINA RESULT:    -7.833      2.024      2.609
REMARK INTER + INTRA:         -10.688
REMARK INTER:                 -10.001
REMARK INTRA:                  -0.688
REMARK UNBOUND:                -0.567
REMARK  Name = 
REMARK  5 active torsions:
REMARK  status: ('A' for Active; 'I' for Inactive)
REMARK    1  A    between atoms: C_2  and  C_3
REMARK    2  A    between atoms: C_7  and  N_8
REMARK    3  A    between atoms: N_8  and  C_9
REMARK    4  A    between atoms: C_9  and  C_10
REMARK    5  A    between atoms: C_12  and  C_13
REMARK                            x       y       z     vdW  Elec       q    Type
REMARK                         _______ _______ _______ _____ _____    ______ ____
ROOT
ATOM      1  C   UNL     1      43.797   5.008  10.977  0.00  0.00    +0.000 A 
ATOM      2  C   UNL     1      44.559   4.585   9.887  0.00  0.00    +0.000 A 
ATOM      3  C   UNL     1      44.742   3.215   9.639  0.00  0.00    +0.000 A 
ATOM      4  C   UNL     1      44.113   2.324  10.516  0.00  0.00    +0.000 A 
ATOM      5  C   UNL     1      43.349   2.822  11.561  0.00  0.00    +0.000 A 
ATOM      6  N   UNL     1      43.172   4.137  11.805  0.00  0.00    +0.000 NA
ENDROOT
BRANCH   3   7
ATOM      7  C   UNL     1      45.568   2.741   8.503  0.00  0.00    +0.000 A 
ATOM      8  C   UNL     1      46.081   1.429   8.456  0.00  0.00    +0.000 A 
ATOM      9  C   UNL     1      46.854   0.981   7.377  0.00  0.00    +0.000 A 
ATOM     10  C   UNL     1      47.124   1.834   6.314  0.00  0.00    +0.000 A 
ATOM     11  C   UNL     1      46.626   3.128   6.343  0.00  0.00    +0.000 A 
ATOM     12  F   UNL     1      46.878   3.956   5.320  0.00  0.00    +0.000 F 
ATOM     13  C   UNL     1      45.867   3.584   7.418  0.00  0.00    +0.000 A 
ENDBRANCH   3   7
BRANCH   1  14
ATOM     14  C   UNL     1      43.629   6.491  11.255  0.00  0.00    +0.000 C 
BRANCH  14  15
ATOM     15  N   UNL     1      44.347   6.885  12.465  0.00  0.00    +0.000 N 
ATOM     16  H   UNL     1      44.430   6.135  13.148  0.00  0.00    +0.000 HD
BRANCH  15  21
ATOM     17  C   UNL     1      47.769   8.284  11.985  0.00  0.00    +0.000 A 
ATOM     18  C   UNL     1      47.444   9.632  12.041  0.00  0.00    +0.000 A 
ATOM     19  N   UNL     1      46.195  10.082  12.277  0.00  0.00    +0.000 NA
ATOM     20  C   UNL     1      45.234   9.139  12.448  0.00  0.00    +0.000 A 
ATOM     21  C   UNL     1      45.434   7.753  12.413  0.00  0.00    +0.000 A 
ATOM     22  C   UNL     1      46.748   7.344  12.166  0.00  0.00    +0.000 A 
BRANCH  17  24
ATOM     23  N   UNL     1      50.205   7.552  11.522  0.00  0.00    +0.000 NA
ATOM     24  C   UNL     1      49.115   7.876  11.730  0.00  0.00    +0.000 C 
ENDBRANCH  17  24
ENDBRANCH  15  21
ENDBRANCH  14  15
ENDBRANCH   1  14
TORSDOF 5
ENDMDL
MODEL 5
REMARK VINA RESULT:    -7.806      3.453      6.633
REMARK INTER + INTRA:         -10.654
REMARK INTER:                 -10.030
REMARK INTRA:                  -0.624
REMARK UNBOUND:                -0.567
REMARK  Name = 
REMARK  5 active torsions:
REMARK  status: ('A' for Active; 'I' for Inactive)
REMARK    1  A    between atoms: C_2  and  C_3
REMARK    2  A    between atoms: C_7  and  N_8
REMARK    3  A    between atoms: N_8  and  C_9
REMARK    4  A    between atoms: C_9  and  C_10
REMARK    5  A    between atoms: C_12  and  C_13
REMARK                            x       y       z     vdW  Elec       q    Type
REMARK                         _______ _______ _______ _____ _____    ______ ____
ROOT
ATOM      1  C   UNL     1      44.867   5.010  11.303  0.00  0.00    +0.000 A 
ATOM      2  C   UNL     1      45.710   6.112  11.154  0.00  0.00    +0.000 A 
ATOM      3  C   UNL     1      46.691   6.390  12.120  0.00  0.00    +0.000 A 
ATOM      4  C   UNL     1      46.780   5.507  13.202  0.00  0.00    +0.000 A 
ATOM      5  C   UNL     1      45.923   4.419  13.266  0.00  0.00    +0.000 A 
ATOM      6  N   UNL     1      44.979   4.149  12.342  0.00  0.00    +0.000 NA
ENDROOT
BRANCH   3   7
ATOM      7  C   UNL     1      47.583   7.568  11.996  0.00  0.00    +0.000 A 
ATOM      8  C   UNL     1      47.099   8.883  12.146  0.00  0.00    +0.000 A 
ATOM      9  C   UNL     1      47.945   9.994  12.037  0.00  0.00    +0.000 A 
ATOM     10  C   UNL     1      49.300   9.813  11.784  0.00  0.00    +0.000 A 
ATOM     11  C   UNL     1      49.793   8.526  11.634  0.00  0.00    +0.000 A 
ATOM     12  F   UNL     1      51.098   8.342  11.393  0.00  0.00    +0.000 F 
ATOM     13  C   UNL     1      48.954   7.417  11.729  0.00  0.00    +0.000 A 
ENDBRANCH   3   7
BRANCH   1  14
ATOM     14  C   UNL     1      43.790   4.734  10.269  0.00  0.00    +0.000 C 
BRANCH  14  15
ATOM     15  N   UNL     1      44.364   4.618   8.929  0.00  0.00    +0.000 N 
ATOM     16  H   UNL     1      44.814   5.472   8.608  0.00  0.00    +0.000 HD
BRANCH  15  21
ATOM     17  C   UNL     1      46.648   2.186   7.267  0.00  0.00    +0.000 A 
ATOM     18  C   UNL     1      46.268   1.046   7.964  0.00  0.00    +0.000 A 
ATOM     19  N   UNL     1      45.286   1.038   8.888  0.00  0.00    +0.000 NA
ATOM     20  C   UNL     1      44.674   2.224   9.131  0.00  0.00    +0.000 A 
ATOM     21  C   UNL     1      44.965   3.439   8.498  0.00  0.00    +0.000 A 
ATOM     22  C   UNL     1      45.991   3.388   7.549  0.00  0.00    +0.000 A 
BRANCH  17  24
ATOM     23  N   UNL     1      48.545   2.074   5.514  0.00  0.00    +0.000 NA
ATOM     24  C   UNL     1      47.699   2.124   6.301  0.00  0.00    +0.000 C 
ENDBRANCH  17  24
ENDBRANCH  15  21
ENDBRANCH  14  15
ENDBRANCH   1  14
TORSDOF 5
ENDMDL
MODEL 6
REMARK VINA RESULT:    -7.684      1.629      2.153
REMARK INTER + INTRA:         -10.497
REMARK INTER:                  -9.883
REMARK INTRA:                  -0.614
REMARK UNBOUND:                -0.567
REMARK  Name = 
REMARK  5 active torsions:
REMARK  status: ('A' for Active; 'I' for Inactive)
REMARK    1  A    between atoms: C_2  and  C_3
REMARK    2  A    between atoms: C_7  and  N_8
REMARK    3  A    between atoms: N_8  and  C_9
REMARK    4  A    between atoms: C_9  and  C_10
REMARK    5  A    between atoms: C_12  and  C_13
REMARK                            x       y       z     vdW  Elec       q    Type
REMARK                         _______ _______ _______ _____ _____    ______ ____
ROOT
ATOM      1  C   UNL     1      44.639   4.894  11.352  0.00  0.00    +0.000 A 
ATOM      2  C   UNL     1      45.318   4.466  10.210  0.00  0.00    +0.000 A 
ATOM      3  C   UNL     1      45.028   3.217   9.638  0.00  0.00    +0.000 A 
ATOM      4  C   UNL     1      44.028   2.456  10.256  0.00  0.00    +0.000 A 
ATOM      5  C   UNL     1      43.380   2.962  11.372  0.00  0.00    +0.000 A 
ATOM      6  N   UNL     1      43.657   4.159  11.926  0.00  0.00    +0.000 NA
ENDROOT
BRANCH   3   7
ATOM      7  C   UNL     1      45.752   2.730   8.440  0.00  0.00    +0.000 A 
ATOM      8  C   UNL     1      46.225   1.406   8.346  0.00  0.00    +0.000 A 
ATOM      9  C   UNL     1      46.902   0.946   7.209  0.00  0.00    +0.000 A 
ATOM     10  C   UNL     1      47.113   1.801   6.134  0.00  0.00    +0.000 A 
ATOM     11  C   UNL     1      46.654   3.107   6.208  0.00  0.00    +0.000 A 
ATOM     12  F   UNL     1      46.851   3.936   5.175  0.00  0.00    +0.000 F 
ATOM     13  C   UNL     1      45.991   3.574   7.341  0.00  0.00    +0.000 A 
ENDBRANCH   3   7
BRANCH   1  14
ATOM     14  C   UNL     1      44.981   6.233  11.980  0.00  0.00    +0.000 C 
BRANCH  14  15
ATOM     15  N   UNL     1      46.427   6.395  12.120  0.00  0.00    +0.000 N 
ATOM     16  H   UNL     1      46.805   7.152  11.555  0.00  0.00    +0.000 HD
BRANCH  15  21
ATOM     17  C   UNL     1      47.448   5.002  15.424  0.00  0.00    +0.000 A 
ATOM     18  C   UNL     1      48.611   5.739  15.601  0.00  0.00    +0.000 A 
ATOM     19  N   UNL     1      49.028   6.682  14.732  0.00  0.00    +0.000 NA
ATOM     20  C   UNL     1      48.254   6.880  13.636  0.00  0.00    +0.000 A 
ATOM     21  C   UNL     1      47.063   6.203  13.344  0.00  0.00    +0.000 A 
ATOM     22  C   UNL     1      46.678   5.238  14.280  0.00  0.00    +0.000 A 
BRANCH  17  24
ATOM     23  N   UNL     1      46.748   3.220  17.162  0.00  0.00    +0.000 NA
ATOM     24  C   UNL     1      47.065   4.016  16.386  0.00  0.00    +0.000 C 
ENDBRANCH  17  24
ENDBRANCH  15  21
ENDBRANCH  14  15
ENDBRANCH   1  14
TORSDOF 5
ENDMDL
MODEL 7
REMARK VINA RESULT:    -7.008      2.208      3.396
REMARK INTER + INTRA:          -9.622
REMARK INTER:                  -9.012
REMARK INTRA:                  -0.611
REMARK UNBOUND:                -0.567
REMARK  Name = 
REMARK  5 active torsions:
REMARK  status: ('A' for Active; 'I' for Inactive)
REMARK    1  A    between atoms: C_2  and  C_3
REMARK    2  A    between atoms: C_7  and  N_8
REMARK    3  A    between atoms: N_8  and  C_9
REMARK    4  A    between atoms: C_9  and  C_10
REMARK    5  A    between atoms: C_12  and  C_13
REMARK                            x       y       z     vdW  Elec       q    Type
REMARK                         _______ _______ _______ _____ _____    ______ ____
ROOT
ATOM      1  C   UNL     1      44.673   6.348  11.554  0.00  0.00    +0.000 A 
ATOM      2  C   UNL     1      45.302   5.597  10.559  0.00  0.00    +0.000 A 
ATOM      3  C   UNL     1      44.705   4.423  10.072  0.00  0.00    +0.000 A 
ATOM      4  C   UNL     1      43.464   4.073  10.618  0.00  0.00    +0.000 A 
ATOM      5  C   UNL     1      42.891   4.885  11.584  0.00  0.00    +0.000 A 
ATOM      6  N   UNL     1      43.462   6.012  12.056  0.00  0.00    +0.000 NA
ENDROOT
BRANCH   3   7
ATOM      7  C   UNL     1      45.364   3.597   9.034  0.00  0.00    +0.000 A 
ATOM      8  C   UNL     1      45.509   2.202   9.179  0.00  0.00    +0.000 A 
ATOM      9  C   UNL     1      46.125   1.421   8.192  0.00  0.00    +0.000 A 
ATOM     10  C   UNL     1      46.603   2.018   7.031  0.00  0.00    +0.000 A 
ATOM     11  C   UNL     1      46.467   3.389   6.872  0.00  0.00    +0.000 A 
ATOM     12  F   UNL     1      46.921   3.972   5.755  0.00  0.00    +0.000 F 
ATOM     13  C   UNL     1      45.867   4.173   7.855  0.00  0.00    +0.000 A 
ENDBRANCH   3   7
BRANCH   1  14
ATOM     14  C   UNL     1      45.341   7.600  12.095  0.00  0.00    +0.000 C 
BRANCH  14  15
ATOM     15  N   UNL     1      46.130   7.302  13.288  0.00  0.00    +0.000 N 
ATOM     16  H   UNL     1      45.761   6.526  13.834  0.00  0.00    +0.000 HD
BRANCH  15  21
ATOM     17  C   UNL     1      49.618   8.384  12.538  0.00  0.00    +0.000 A 
ATOM     18  C   UNL     1      50.256   7.749  13.595  0.00  0.00    +0.000 A 
ATOM     19  N   UNL     1      49.613   6.961  14.480  0.00  0.00    +0.000 NA
ATOM     20  C   UNL     1      48.275   6.820  14.306  0.00  0.00    +0.000 A 
ATOM     21  C   UNL     1      47.518   7.408  13.284  0.00  0.00    +0.000 A 
ATOM     22  C   UNL     1      48.236   8.213  12.395  0.00  0.00    +0.000 A 
BRANCH  17  24
ATOM     23  N   UNL     1      50.957   9.877  10.907  0.00  0.00    +0.000 NA
ATOM     24  C   UNL     1      50.361   9.207  11.636  0.00  0.00    +0.000 C 
ENDBRANCH  17  24
ENDBRANCH  15  21
ENDBRANCH  14  15
ENDBRANCH   1  14
TORSDOF 5
ENDMDL
MODEL 8
REMARK VINA RESULT:    -6.704      2.801      4.899
REMARK INTER + INTRA:          -9.230
REMARK INTER:                  -8.530
REMARK INTRA:                  -0.700
REMARK UNBOUND:                -0.567
REMARK  Name = 
REMARK  5 active torsions:
REMARK  status: ('A' for Active; 'I' for Inactive)
REMARK    1  A    between atoms: C_2  and  C_3
REMARK    2  A    between atoms: C_7  and  N_8
REMARK    3  A    between atoms: N_8  and  C_9
REMARK    4  A    between atoms: C_9  and  C_10
REMARK    5  A    between atoms: C_12  and  C_13
REMARK                            x       y       z     vdW  Elec       q    Type
REMARK                         _______ _______ _______ _____ _____    ______ ____
ROOT
ATOM      1  C   UNL     1      47.677   7.581  12.948  0.00  0.00    +0.000 A 
ATOM      2  C   UNL     1      47.205   6.514  12.181  0.00  0.00    +0.000 A 
ATOM      3  C   UNL     1      45.879   6.503  11.721  0.00  0.00    +0.000 A 
ATOM      4  C   UNL     1      45.086   7.608  12.053  0.00  0.00    +0.000 A 
ATOM      5  C   UNL     1      45.635   8.642  12.796  0.00  0.00    +0.000 A 
ATOM      6  N   UNL     1      46.908   8.656  13.242  0.00  0.00    +0.000 NA
ENDROOT
BRANCH   3   7
ATOM      7  C   UNL     1      45.348   5.371  10.926  0.00  0.00    +0.000 A 
ATOM      8  C   UNL     1      45.634   5.231   9.553  0.00  0.00    +0.000 A 
ATOM      9  C   UNL     1      45.137   4.156   8.805  0.00  0.00    +0.000 A 
ATOM     10  C   UNL     1      44.350   3.188   9.418  0.00  0.00    +0.000 A 
ATOM     11  C   UNL     1      44.060   3.309  10.768  0.00  0.00    +0.000 A 
ATOM     12  F   UNL     1      43.305   2.380  11.367  0.00  0.00    +0.000 F 
ATOM     13  C   UNL     1      44.539   4.383  11.515  0.00  0.00    +0.000 A 
ENDBRANCH   3   7
BRANCH   1  14
ATOM     14  C   UNL     1      49.104   7.570  13.466  0.00  0.00    +0.000 C 
BRANCH  14  15
ATOM     15  N   UNL     1      49.141   7.765  14.914  0.00  0.00    +0.000 N 
ATOM     16  H   UNL     1      48.527   8.509  15.237  0.00  0.00    +0.000 HD
BRANCH  15  21
ATOM     17  C   UNL     1      48.463   4.656  16.857  0.00  0.00    +0.000 A 
ATOM     18  C   UNL     1      49.754   4.418  17.310  0.00  0.00    +0.000 A 
ATOM     19  N   UNL     1      50.790   5.242  17.055  0.00  0.00    +0.000 NA
ATOM     20  C   UNL     1      50.521   6.339  16.302  0.00  0.00    +0.000 A 
ATOM     21  C   UNL     1      49.266   6.688  15.787  0.00  0.00    +0.000 A 
ATOM     22  C   UNL     1      48.229   5.798  16.083  0.00  0.00    +0.000 A 
BRANCH  17  24
ATOM     23  N   UNL     1      46.554   3.001  17.407  0.00  0.00    +0.000 NA
ATOM     24  C   UNL     1      47.410   3.739  17.163  0.00  0.00    +0.000 C 
ENDBRANCH  17  24
ENDBRANCH  15  21
ENDBRANCH  14  15
ENDBRANCH   1  14
TORSDOF 5
ENDMDL
MODEL 9
REMARK VINA RESULT:    -6.603      2.726      4.803
REMARK INTER + INTRA:          -9.099
REMARK INTER:                  -8.655
REMARK INTRA:                  -0.444
REMARK UNBOUND:                -0.567
REMARK  Name = 
REMARK  5 active torsions:
REMARK  status: ('A' for Active; 'I' for Inactive)
REMARK    1  A    between atoms: C_2  and  C_3
REMARK    2  A    between atoms: C_7  and  N_8
REMARK    3  A    between atoms: N_8  and  C_9
REMARK    4  A    between atoms: C_9  and  C_10
REMARK    5  A    between atoms: C_12  and  C_13
REMARK                            x       y       z     vdW  Elec       q    Type
REMARK                         _______ _______ _______ _____ _____    ______ ____
ROOT
ATOM      1  C   UNL     1      47.291   7.092  13.086  0.00  0.00    +0.000 A 
ATOM      2  C   UNL     1      46.927   6.042  12.241  0.00  0.00    +0.000 A 
ATOM      3  C   UNL     1      45.762   6.130  11.462  0.00  0.00    +0.000 A 
ATOM      4  C   UNL     1      45.019   7.312  11.567  0.00  0.00    +0.000 A 
ATOM      5  C   UNL     1      45.461   8.321  12.409  0.00  0.00    +0.000 A 
ATOM      6  N   UNL     1      46.578   8.240  13.161  0.00  0.00    +0.000 NA
ENDROOT
BRANCH   3   7
ATOM      7  C   UNL     1      45.341   5.019  10.575  0.00  0.00    +0.000 A 
ATOM      8  C   UNL     1      44.533   3.964  11.043  0.00  0.00    +0.000 A 
ATOM      9  C   UNL     1      44.130   2.919  10.201  0.00  0.00    +0.000 A 
ATOM     10  C   UNL     1      44.520   2.912   8.867  0.00  0.00    +0.000 A 
ATOM     11  C   UNL     1      45.315   3.943   8.390  0.00  0.00    +0.000 A 
ATOM     12  F   UNL     1      45.692   3.946   7.105  0.00  0.00    +0.000 F 
ATOM     13  C   UNL     1      45.730   4.979   9.225  0.00  0.00    +0.000 A 
ENDBRANCH   3   7
BRANCH   1  14
ATOM     14  C   UNL     1      48.536   6.975  13.946  0.00  0.00    +0.000 C 
BRANCH  14  15
ATOM     15  N   UNL     1      48.197   6.983  15.368  0.00  0.00    +0.000 N 
ATOM     16  H   UNL     1      47.516   7.697  15.617  0.00  0.00    +0.000 HD
BRANCH  15  21
ATOM     17  C   UNL     1      48.193   4.504  18.152  0.00  0.00    +0.000 A 
ATOM     18  C   UNL     1      47.566   3.458  17.488  0.00  0.00    +0.000 A 
ATOM     19  N   UNL     1      47.207   3.517  16.190  0.00  0.00    +0.000 NA
ATOM     20  C   UNL     1      47.475   4.677  15.539  0.00  0.00    +0.000 A 
ATOM     21  C   UNL     1      48.099   5.801  16.096  0.00  0.00    +0.000 A 
ATOM     22  C   UNL     1      48.450   5.683  17.444  0.00  0.00    +0.000 A 
BRANCH  17  24
ATOM     23  N   UNL     1      48.835   4.277  20.647  0.00  0.00    +0.000 NA
ATOM     24  C   UNL     1      48.546   4.375  19.532  0.00  0.00    +0.000 C 
ENDBRANCH  17  24
ENDBRANCH  15  21
ENDBRANCH  14  15
ENDBRANCH   1  14
TORSDOF 5
ENDMDL
