MODEL 1
REMARK VINA RESULT:    -7.461      0.000      0.000
REMARK INTER + INTRA:         -10.023
REMARK INTER:                  -9.424
REMARK INTRA:                  -0.599
REMARK UNBOUND:                -0.599
REMARK  Name = 
REMARK  5 active torsions:
REMARK  status: ('A' for Active; 'I' for Inactive)
REMARK    1  A    between atoms: N_1  and  C_2
REMARK    2  A    between atoms: C_2  and  C_3
REMARK    3  A    between atoms: C_6  and  C_7
REMARK    4  A    between atoms: C_7  and  N_8
REMARK    5  A    between atoms: C_13  and  C_14
REMARK                            x       y       z     vdW  Elec       q    Type
REMARK                         _______ _______ _______ _____ _____    ______ ____
ROOT
ATOM      1  N   UNL     1      44.461   4.767  10.293  0.00  0.00    +0.000 N 
ATOM      2  C   UNL     1      43.674   3.763  10.817  0.00  0.00    +0.000 A 
ATOM      3  C   UNL     1      44.122   2.562  10.314  0.00  0.00    +0.000 A 
ATOM      4  C   UNL     1      45.063   2.862   9.309  0.00  0.00    +0.000 A 
ATOM      5  C   UNL     1      45.769   2.075   8.391  0.00  0.00    +0.000 A 
ATOM      6  C   UNL     1      46.560   2.724   7.449  0.00  0.00    +0.000 A 
ATOM      7  C   UNL     1      46.665   4.115   7.525  0.00  0.00    +0.000 A 
ATOM      8  N   UNL     1      46.048   4.926   8.438  0.00  0.00    +0.000 NA
ATOM      9  C   UNL     1      45.246   4.244   9.285  0.00  0.00    +0.000 A 
ENDROOT
BRANCH   6  10
ATOM     10  C   UNL     1      47.258   1.988   6.366  0.00  0.00    +0.000 C 
ATOM     11  N   UNL     1      47.952   2.722   5.430  0.00  0.00    +0.000 N 
ATOM     12  O   UNL     1      47.241   0.774   6.305  0.00  0.00    +0.000 OA
ATOM     13  H   UNL     1      48.066   3.722   5.428  0.00  0.00    +0.000 HD
ATOM     14  H   UNL     1      48.456   2.198   4.723  0.00  0.00    +0.000 HD
ENDBRANCH   6  10
BRANCH   1  15
ATOM     15  C   UNL     1      44.478   6.148  10.774  0.00  0.00    +0.000 C 
BRANCH  15  19
ATOM     16  C   UNL     1      47.444   8.045  12.471  0.00  0.00    +0.000 C 
ATOM     17  C   UNL     1      47.496   6.639  11.856  0.00  0.00    +0.000 C 
ATOM     18  C   UNL     1      46.411   5.730  12.429  0.00  0.00    +0.000 C 
ATOM     19  C   UNL     1      44.989   6.298  12.234  0.00  0.00    +0.000 C 
ATOM     20  C   UNL     1      44.919   7.750  12.752  0.00  0.00    +0.000 C 
ATOM     21  C   UNL     1      46.046   8.644  12.237  0.00  0.00    +0.000 C 
BRANCH  16  22
ATOM     22  C   UNL     1      47.823   8.037  13.968  0.00  0.00    +0.000 C 
BRANCH  22  23
ATOM     23  N   UNL     1      47.357   9.244  14.641  0.00  0.00    +0.000 NA
ATOM     24  H   UNL     1      46.382   9.419  14.401  0.00  0.00    +0.000 HD
ATOM     25  H   UNL     1      47.887  10.046  14.305  0.00  0.00    +0.000 HD
ENDBRANCH  22  23
ENDBRANCH  16  22
ENDBRANCH  15  19
ENDBRANCH   1  15
TORSDOF 5
ENDMDL
MODEL 2
REMARK VINA RESULT:    -6.041      3.024      6.835
REMARK INTER + INTRA:          -8.229
REMARK INTER:                  -7.658
REMARK INTRA:                  -0.571
REMARK UNBOUND:                -0.599
REMARK  Name = 
REMARK  5 active torsions:
REMARK  status: ('A' for Active; 'I' for Inactive)
REMARK    1  A    between atoms: N_1  and  C_2
REMARK    2  A    between atoms: C_2  and  C_3
REMARK    3  A    between atoms: C_6  and  C_7
REMARK    4  A    between atoms: C_7  and  N_8
REMARK    5  A    between atoms: C_13  and  C_14
REMARK                            x       y       z     vdW  Elec       q    Type
REMARK                         _______ _______ _______ _____ _____    ______ ____
ROOT
ATOM      1  N   UNL     1      44.523   3.617  10.780  0.00  0.00    +0.000 N 
ATOM      2  C   UNL     1      43.245   3.367  11.234  0.00  0.00    +0.000 A 
ATOM      3  C   UNL     1      42.637   4.576  11.487  0.00  0.00    +0.000 A 
ATOM      4  C   UNL     1      43.632   5.568  11.380  0.00  0.00    +0.000 A 
ATOM      5  C   UNL     1      43.642   6.947  11.624  0.00  0.00    +0.000 A 
ATOM      6  C   UNL     1      44.854   7.620  11.512  0.00  0.00    +0.000 A 
ATOM      7  C   UNL     1      45.971   6.896  11.089  0.00  0.00    +0.000 A 
ATOM      8  N   UNL     1      46.004   5.564  10.779  0.00  0.00    +0.000 NA
ATOM      9  C   UNL     1      44.814   4.954  10.966  0.00  0.00    +0.000 A 
ENDROOT
BRANCH   6  10
ATOM     10  C   UNL     1      44.991   9.056  11.856  0.00  0.00    +0.000 C 
ATOM     11  N   UNL     1      44.542   9.986  10.944  0.00  0.00    +0.000 N 
ATOM     12  O   UNL     1      45.466   9.416  12.916  0.00  0.00    +0.000 OA
ATOM     13  H   UNL     1      44.089   9.784  10.068  0.00  0.00    +0.000 HD
ATOM     14  H   UNL     1      44.607  10.960  11.218  0.00  0.00    +0.000 HD
ENDBRANCH   6  10
BRANCH   1  15
ATOM     15  C   UNL     1      45.397   2.620  10.161  0.00  0.00    +0.000 C 
BRANCH  15  19
ATOM     16  C   UNL     1      47.472   2.928   6.864  0.00  0.00    +0.000 C 
ATOM     17  C   UNL     1      46.686   4.053   7.553  0.00  0.00    +0.000 C 
ATOM     18  C   UNL     1      45.233   3.657   7.806  0.00  0.00    +0.000 C 
ATOM     19  C   UNL     1      45.101   2.375   8.656  0.00  0.00    +0.000 C 
ATOM     20  C   UNL     1      45.957   1.242   8.049  0.00  0.00    +0.000 C 
ATOM     21  C   UNL     1      47.392   1.658   7.728  0.00  0.00    +0.000 C 
BRANCH  16  22
ATOM     22  C   UNL     1      46.977   2.675   5.422  0.00  0.00    +0.000 C 
BRANCH  22  23
ATOM     23  N   UNL     1      48.033   2.111   4.590  0.00  0.00    +0.000 NA
ATOM     24  H   UNL     1      47.681   1.951   3.647  0.00  0.00    +0.000 HD
ATOM     25  H   UNL     1      48.305   1.200   4.957  0.00  0.00    +0.000 HD
ENDBRANCH  22  23
ENDBRANCH  16  22
ENDBRANCH  15  19
ENDBRANCH   1  15
TORSDOF 5
ENDMDL
MODEL 3
REMARK VINA RESULT:    -5.959      4.336      6.152
REMARK INTER + INTRA:          -8.126
REMARK INTER:                  -7.699
REMARK INTRA:                  -0.427
REMARK UNBOUND:                -0.599
REMARK  Name = 
REMARK  5 active torsions:
REMARK  status: ('A' for Active; 'I' for Inactive)
REMARK    1  A    between atoms: N_1  and  C_2
REMARK    2  A    between atoms: C_2  and  C_3
REMARK    3  A    between atoms: C_6  and  C_7
REMARK    4  A    between atoms: C_7  and  N_8
REMARK    5  A    between atoms: C_13  and  C_14
REMARK                            x       y       z     vdW  Elec       q    Type
REMARK                         _______ _______ _______ _____ _____    ______ ____
ROOT
ATOM      1  N   UNL     1      47.381   5.296  14.576  0.00  0.00    +0.000 N 
ATOM      2  C   UNL     1      47.973   6.463  14.138  0.00  0.00    +0.000 A 
ATOM      3  C   UNL     1      47.375   6.827  12.953  0.00  0.00    +0.000 A 
ATOM      4  C   UNL     1      46.550   5.754  12.561  0.00  0.00    +0.000 A 
ATOM      5  C   UNL     1      45.786   5.501  11.415  0.00  0.00    +0.000 A 
ATOM      6  C   UNL     1      45.159   4.264  11.310  0.00  0.00    +0.000 A 
ATOM      7  C   UNL     1      45.265   3.379  12.386  0.00  0.00    +0.000 A 
ATOM      8  N   UNL     1      45.946   3.600  13.552  0.00  0.00    +0.000 NA
ATOM      9  C   UNL     1      46.584   4.791  13.569  0.00  0.00    +0.000 A 
ENDROOT
BRANCH   6  10
ATOM     10  C   UNL     1      44.420   3.857  10.090  0.00  0.00    +0.000 C 
ATOM     11  N   UNL     1      44.444   4.706   9.006  0.00  0.00    +0.000 N 
ATOM     12  O   UNL     1      43.823   2.799  10.028  0.00  0.00    +0.000 OA
ATOM     13  H   UNL     1      44.951   5.574   8.946  0.00  0.00    +0.000 HD
ATOM     14  H   UNL     1      43.968   4.389   8.169  0.00  0.00    +0.000 HD
ENDBRANCH   6  10
BRANCH   1  15
ATOM     15  C   UNL     1      47.549   4.729  15.913  0.00  0.00    +0.000 C 
BRANCH  15  19
ATOM     16  C   UNL     1      48.621   4.705  19.671  0.00  0.00    +0.000 C 
ATOM     17  C   UNL     1      47.623   5.670  19.015  0.00  0.00    +0.000 C 
ATOM     18  C   UNL     1      48.223   6.360  17.792  0.00  0.00    +0.000 C 
ATOM     19  C   UNL     1      48.714   5.363  16.723  0.00  0.00    +0.000 C 
ATOM     20  C   UNL     1      49.647   4.312  17.362  0.00  0.00    +0.000 C 
ATOM     21  C   UNL     1      49.079   3.671  18.628  0.00  0.00    +0.000 C 
BRANCH  16  22
ATOM     22  C   UNL     1      49.816   5.449  20.306  0.00  0.00    +0.000 C 
BRANCH  22  23
ATOM     23  N   UNL     1      50.812   4.516  20.819  0.00  0.00    +0.000 NA
ATOM     24  H   UNL     1      50.355   3.789  21.367  0.00  0.00    +0.000 HD
ATOM     25  H   UNL     1      51.441   5.006  21.454  0.00  0.00    +0.000 HD
ENDBRANCH  22  23
ENDBRANCH  16  22
ENDBRANCH  15  19
ENDBRANCH   1  15
TORSDOF 5
ENDMDL
MODEL 4
REMARK VINA RESULT:    -5.887      4.701      8.367
REMARK INTER + INTRA:          -8.035
REMARK INTER:                  -7.590
REMARK INTRA:                  -0.445
REMARK UNBOUND:                -0.599
REMARK  Name = 
REMARK  5 active torsions:
REMARK  status: ('A' for Active; 'I' for Inactive)
REMARK    1  A    between atoms: N_1  and  C_2
REMARK    2  A    between atoms: C_2  and  C_3
REMARK    3  A    between atoms: C_6  and  C_7
REMARK    4  A    between atoms: C_7  and  N_8
REMARK    5  A    between atoms: C_13  and  C_14
REMARK                            x       y       z     vdW  Elec       q    Type
REMARK                         _______ _______ _______ _____ _____    ______ ____
ROOT
ATOM      1  N   UNL     1      48.130   6.631  14.334  0.00  0.00    +0.000 N 
ATOM      2  C   UNL     1      48.586   7.915  14.548  0.00  0.00    +0.000 A 
ATOM      3  C   UNL     1      49.247   7.940  15.755  0.00  0.00    +0.000 A 
ATOM      4  C   UNL     1      49.010   6.699  16.379  0.00  0.00    +0.000 A 
ATOM      5  C   UNL     1      49.330   6.184  17.642  0.00  0.00    +0.000 A 
ATOM      6  C   UNL     1      48.840   4.925  17.975  0.00  0.00    +0.000 A 
ATOM      7  C   UNL     1      48.126   4.219  17.004  0.00  0.00    +0.000 A 
ATOM      8  N   UNL     1      47.840   4.648  15.737  0.00  0.00    +0.000 NA
ATOM      9  C   UNL     1      48.287   5.899  15.494  0.00  0.00    +0.000 A 
ENDROOT
BRANCH   6  10
ATOM     10  C   UNL     1      49.029   4.340  19.325  0.00  0.00    +0.000 C 
ATOM     11  N   UNL     1      48.333   3.192  19.635  0.00  0.00    +0.000 N 
ATOM     12  O   UNL     1      49.786   4.837  20.137  0.00  0.00    +0.000 OA
ATOM     13  H   UNL     1      47.727   2.683  19.014  0.00  0.00    +0.000 HD
ATOM     14  H   UNL     1      48.508   2.786  20.547  0.00  0.00    +0.000 HD
ENDBRANCH   6  10
BRANCH   1  15
ATOM     15  C   UNL     1      47.610   6.133  13.061  0.00  0.00    +0.000 C 
BRANCH  15  19
ATOM     16  C   UNL     1      44.956   4.323  10.837  0.00  0.00    +0.000 C 
ATOM     17  C   UNL     1      45.709   5.614  10.486  0.00  0.00    +0.000 C 
ATOM     18  C   UNL     1      45.568   6.668  11.582  0.00  0.00    +0.000 C 
ATOM     19  C   UNL     1      46.061   6.172  12.957  0.00  0.00    +0.000 C 
ATOM     20  C   UNL     1      45.398   4.822  13.306  0.00  0.00    +0.000 C 
ATOM     21  C   UNL     1      45.475   3.788  12.183  0.00  0.00    +0.000 C 
BRANCH  16  22
ATOM     22  C   UNL     1      43.425   4.531  10.853  0.00  0.00    +0.000 C 
BRANCH  22  23
ATOM     23  N   UNL     1      42.738   3.383  11.433  0.00  0.00    +0.000 NA
ATOM     24  H   UNL     1      41.829   3.265  10.989  0.00  0.00    +0.000 HD
ATOM     25  H   UNL     1      42.558   3.559  12.420  0.00  0.00    +0.000 HD
ENDBRANCH  22  23
ENDBRANCH  16  22
ENDBRANCH  15  19
ENDBRANCH   1  15
TORSDOF 5
ENDMDL
MODEL 5
REMARK VINA RESULT:    -5.794      2.230      2.927
REMARK INTER + INTRA:          -7.917
REMARK INTER:                  -8.914
REMARK INTRA:                   0.997
REMARK UNBOUND:                -0.599
REMARK  Name = 
REMARK  5 active torsions:
REMARK  status: ('A' for Active; 'I' for Inactive)
REMARK    1  A    between atoms: N_1  and  C_2
REMARK    2  A    between atoms: C_2  and  C_3
REMARK    3  A    between atoms: C_6  and  C_7
REMARK    4  A    between atoms: C_7  and  N_8
REMARK    5  A    between atoms: C_13  and  C_14
REMARK                            x       y       z     vdW  Elec       q    Type
REMARK                         _______ _______ _______ _____ _____    ______ ____
ROOT
ATOM      1  N   UNL     1      44.406   4.760  10.184  0.00  0.00    +0.000 N 
ATOM      2  C   UNL     1      45.202   5.846   9.887  0.00  0.00    +0.000 A 
ATOM      3  C   UNL     1      46.033   5.496   8.847  0.00  0.00    +0.000 A 
ATOM      4  C   UNL     1      45.881   4.109   8.647  0.00  0.00    +0.000 A 
ATOM      5  C   UNL     1      46.526   3.183   7.817  0.00  0.00    +0.000 A 
ATOM      6  C   UNL     1      46.186   1.842   7.952  0.00  0.00    +0.000 A 
ATOM      7  C   UNL     1      45.170   1.507   8.849  0.00  0.00    +0.000 A 
ATOM      8  N   UNL     1      44.466   2.376   9.637  0.00  0.00    +0.000 NA
ATOM      9  C   UNL     1      44.882   3.654   9.507  0.00  0.00    +0.000 A 
ENDROOT
BRANCH   6  10
ATOM     10  C   UNL     1      46.890   0.773   7.201  0.00  0.00    +0.000 C 
ATOM     11  N   UNL     1      46.770  -0.522   7.654  0.00  0.00    +0.000 N 
ATOM     12  O   UNL     1      47.540   1.016   6.202  0.00  0.00    +0.000 OA
ATOM     13  H   UNL     1      46.214  -0.826   8.436  0.00  0.00    +0.000 HD
ATOM     14  H   UNL     1      47.223  -1.241   7.102  0.00  0.00    +0.000 HD
ENDBRANCH   6  10
BRANCH   1  15
ATOM     15  C   UNL     1      43.224   4.804  11.044  0.00  0.00    +0.000 C 
BRANCH  15  19
ATOM     16  C   UNL     1      46.503   4.467  13.143  0.00  0.00    +0.000 C 
ATOM     17  C   UNL     1      45.681   3.315  12.548  0.00  0.00    +0.000 C 
ATOM     18  C   UNL     1      44.213   3.393  12.962  0.00  0.00    +0.000 C 
ATOM     19  C   UNL     1      43.549   4.727  12.562  0.00  0.00    +0.000 C 
ATOM     20  C   UNL     1      44.398   5.917  13.059  0.00  0.00    +0.000 C 
ATOM     21  C   UNL     1      45.882   5.805  12.708  0.00  0.00    +0.000 C 
BRANCH  16  22
ATOM     22  C   UNL     1      46.622   4.361  14.680  0.00  0.00    +0.000 C 
BRANCH  22  23
ATOM     23  N   UNL     1      47.529   3.288  15.071  0.00  0.00    +0.000 NA
ATOM     24  H   UNL     1      47.058   2.656  15.716  0.00  0.00    +0.000 HD
ATOM     25  H   UNL     1      48.322   3.681  15.576  0.00  0.00    +0.000 HD
ENDBRANCH  22  23
ENDBRANCH  16  22
ENDBRANCH  15  19
ENDBRANCH   1  15
TORSDOF 5
ENDMDL
MODEL 6
REMARK VINA RESULT:    -5.685      4.223      6.066
REMARK INTER + INTRA:          -7.779
REMARK INTER:                  -7.254
REMARK INTRA:                  -0.525
REMARK UNBOUND:                -0.599
REMARK  Name = 
REMARK  5 active torsions:
REMARK  status: ('A' for Active; 'I' for Inactive)
REMARK    1  A    between atoms: N_1  and  C_2
REMARK    2  A    between atoms: C_2  and  C_3
REMARK    3  A    between atoms: C_6  and  C_7
REMARK    4  A    between atoms: C_7  and  N_8
REMARK    5  A    between atoms: C_13  and  C_14
REMARK                            x       y       z     vdW  Elec       q    Type
REMARK                         _______ _______ _______ _____ _____    ______ ____
ROOT
ATOM      1  N   UNL     1      47.752   6.165  14.113  0.00  0.00    +0.000 N 
ATOM      2  C   UNL     1      47.518   7.405  13.557  0.00  0.00    +0.000 A 
ATOM      3  C   UNL     1      46.393   7.315  12.769  0.00  0.00    +0.000 A 
ATOM      4  C   UNL     1      46.059   5.949  12.683  0.00  0.00    +0.000 A 
ATOM      5  C   UNL     1      45.094   5.241  11.954  0.00  0.00    +0.000 A 
ATOM      6  C   UNL     1      45.109   3.853  12.030  0.00  0.00    +0.000 A 
ATOM      7  C   UNL     1      46.033   3.251  12.888  0.00  0.00    +0.000 A 
ATOM      8  N   UNL     1      46.954   3.895  13.668  0.00  0.00    +0.000 NA
ATOM      9  C   UNL     1      46.932   5.236  13.504  0.00  0.00    +0.000 A 
ENDROOT
BRANCH   6  10
ATOM     10  C   UNL     1      44.204   3.010  11.211  0.00  0.00    +0.000 C 
ATOM     11  N   UNL     1      44.730   2.383  10.104  0.00  0.00    +0.000 N 
ATOM     12  O   UNL     1      43.035   2.853  11.508  0.00  0.00    +0.000 OA
ATOM     13  H   UNL     1      45.692   2.411   9.810  0.00  0.00    +0.000 HD
ATOM     14  H   UNL     1      44.104   1.779   9.583  0.00  0.00    +0.000 HD
ENDBRANCH   6  10
BRANCH   1  15
ATOM     15  C   UNL     1      48.690   5.905  15.205  0.00  0.00    +0.000 C 
BRANCH  15  19
ATOM     16  C   UNL     1      49.686   4.552  18.733  0.00  0.00    +0.000 C 
ATOM     17  C   UNL     1      48.938   3.777  17.639  0.00  0.00    +0.000 C 
ATOM     18  C   UNL     1      47.704   4.533  17.153  0.00  0.00    +0.000 C 
ATOM     19  C   UNL     1      48.037   5.940  16.615  0.00  0.00    +0.000 C 
ATOM     20  C   UNL     1      48.876   6.722  17.649  0.00  0.00    +0.000 C 
ATOM     21  C   UNL     1      50.071   5.939  18.192  0.00  0.00    +0.000 C 
BRANCH  16  22
ATOM     22  C   UNL     1      48.865   4.651  20.038  0.00  0.00    +0.000 C 
BRANCH  22  23
ATOM     23  N   UNL     1      48.384   3.343  20.465  0.00  0.00    +0.000 NA
ATOM     24  H   UNL     1      48.092   2.800  19.654  0.00  0.00    +0.000 HD
ATOM     25  H   UNL     1      47.558   3.459  21.050  0.00  0.00    +0.000 HD
ENDBRANCH  22  23
ENDBRANCH  16  22
ENDBRANCH  15  19
ENDBRANCH   1  15
TORSDOF 5
ENDMDL
MODEL 7
REMARK VINA RESULT:    -5.412      4.578      6.396
REMARK INTER + INTRA:          -7.434
REMARK INTER:                  -7.029
REMARK INTRA:                  -0.405
REMARK UNBOUND:                -0.599
REMARK  Name = 
REMARK  5 active torsions:
REMARK  status: ('A' for Active; 'I' for Inactive)
REMARK    1  A    between atoms: N_1  and  C_2
REMARK    2  A    between atoms: C_2  and  C_3
REMARK    3  A    between atoms: C_6  and  C_7
REMARK    4  A    between atoms: C_7  and  N_8
REMARK    5  A    between atoms: C_13  and  C_14
REMARK                            x       y       z     vdW  Elec       q    Type
REMARK                         _______ _______ _______ _____ _____    ______ ____
ROOT
ATOM      1  N   UNL     1      46.503   4.558  13.544  0.00  0.00    +0.000 N 
ATOM      2  C   UNL     1      45.737   3.561  12.978  0.00  0.00    +0.000 A 
ATOM      3  C   UNL     1      45.008   4.112  11.948  0.00  0.00    +0.000 A 
ATOM      4  C   UNL     1      45.180   5.509  12.024  0.00  0.00    +0.000 A 
ATOM      5  C   UNL     1      44.618   6.584  11.326  0.00  0.00    +0.000 A 
ATOM      6  C   UNL     1      44.945   7.871  11.737  0.00  0.00    +0.000 A 
ATOM      7  C   UNL     1      45.873   8.016  12.771  0.00  0.00    +0.000 A 
ATOM      8  N   UNL     1      46.499   7.003  13.446  0.00  0.00    +0.000 NA
ATOM      9  C   UNL     1      46.094   5.778  13.043  0.00  0.00    +0.000 A 
ENDROOT
BRANCH   6  10
ATOM     10  C   UNL     1      44.317   9.074  11.136  0.00  0.00    +0.000 C 
ATOM     11  N   UNL     1      43.080   8.931  10.547  0.00  0.00    +0.000 N 
ATOM     12  O   UNL     1      44.858  10.162  11.172  0.00  0.00    +0.000 OA
ATOM     13  H   UNL     1      42.535   8.086  10.515  0.00  0.00    +0.000 HD
ATOM     14  H   UNL     1      42.651   9.773  10.180  0.00  0.00    +0.000 HD
ENDBRANCH   6  10
BRANCH   1  15
ATOM     15  C   UNL     1      47.599   4.333  14.486  0.00  0.00    +0.000 C 
BRANCH  15  19
ATOM     16  C   UNL     1      49.369   3.844  17.935  0.00  0.00    +0.000 C 
ATOM     17  C   UNL     1      48.464   2.828  17.225  0.00  0.00    +0.000 C 
ATOM     18  C   UNL     1      47.113   3.434  16.853  0.00  0.00    +0.000 C 
ATOM     19  C   UNL     1      47.243   4.684  15.957  0.00  0.00    +0.000 C 
ATOM     20  C   UNL     1      48.224   5.694  16.591  0.00  0.00    +0.000 C 
ATOM     21  C   UNL     1      49.550   5.075  17.030  0.00  0.00    +0.000 C 
BRANCH  16  22
ATOM     22  C   UNL     1      48.824   4.231  19.328  0.00  0.00    +0.000 C 
BRANCH  22  23
ATOM     23  N   UNL     1      48.332   3.064  20.050  0.00  0.00    +0.000 NA
ATOM     24  H   UNL     1      48.963   2.842  20.819  0.00  0.00    +0.000 HD
ATOM     25  H   UNL     1      48.334   2.256  19.430  0.00  0.00    +0.000 HD
ENDBRANCH  22  23
ENDBRANCH  16  22
ENDBRANCH  15  19
ENDBRANCH   1  15
TORSDOF 5
ENDMDL
MODEL 8
REMARK VINA RESULT:    -5.250      3.242      5.045
REMARK INTER + INTRA:          -7.229
REMARK INTER:                  -6.703
REMARK INTRA:                  -0.526
REMARK UNBOUND:                -0.599
REMARK  Name = 
REMARK  5 active torsions:
REMARK  status: ('A' for Active; 'I' for Inactive)
REMARK    1  A    between atoms: N_1  and  C_2
REMARK    2  A    between atoms: C_2  and  C_3
REMARK    3  A    between atoms: C_6  and  C_7
REMARK    4  A    between atoms: C_7  and  N_8
REMARK    5  A    between atoms: C_13  and  C_14
REMARK                            x       y       z     vdW  Elec       q    Type
REMARK                         _______ _______ _______ _____ _____    ______ ____
ROOT
ATOM      1  N   UNL     1      47.566   6.262  13.968  0.00  0.00    +0.000 N 
ATOM      2  C   UNL     1      47.696   5.482  15.097  0.00  0.00    +0.000 A 
ATOM      3  C   UNL     1      47.174   4.238  14.823  0.00  0.00    +0.000 A 
ATOM      4  C   UNL     1      46.530   4.330  13.572  0.00  0.00    +0.000 A 
ATOM      5  C   UNL     1      45.745   3.438  12.830  0.00  0.00    +0.000 A 
ATOM      6  C   UNL     1      45.169   3.902  11.653  0.00  0.00    +0.000 A 
ATOM      7  C   UNL     1      45.470   5.203  11.241  0.00  0.00    +0.000 A 
ATOM      8  N   UNL     1      46.278   6.093  11.894  0.00  0.00    +0.000 NA
ATOM      9  C   UNL     1      46.757   5.607  13.060  0.00  0.00    +0.000 A 
ENDROOT
BRANCH   6  10
ATOM     10  C   UNL     1      44.233   3.073  10.855  0.00  0.00    +0.000 C 
ATOM     11  N   UNL     1      44.763   2.259   9.877  0.00  0.00    +0.000 N 
ATOM     12  O   UNL     1      43.035   3.086  11.059  0.00  0.00    +0.000 OA
ATOM     13  H   UNL     1      45.741   2.143   9.671  0.00  0.00    +0.000 HD
ATOM     14  H   UNL     1      44.110   1.670   9.373  0.00  0.00    +0.000 HD
ENDBRANCH   6  10
BRANCH   1  15
ATOM     15  C   UNL     1      48.225   7.551  13.765  0.00  0.00    +0.000 C 
BRANCH  15  19
ATOM     16  C   UNL     1      50.624  10.118  12.053  0.00  0.00    +0.000 C 
ATOM     17  C   UNL     1      49.422   9.419  11.400  0.00  0.00    +0.000 C 
ATOM     18  C   UNL     1      49.499   7.902  11.550  0.00  0.00    +0.000 C 
ATOM     19  C   UNL     1      49.587   7.450  13.023  0.00  0.00    +0.000 C 
ATOM     20  C   UNL     1      50.725   8.203  13.745  0.00  0.00    +0.000 C 
ATOM     21  C   UNL     1      50.692   9.717  13.537  0.00  0.00    +0.000 C 
BRANCH  16  22
ATOM     22  C   UNL     1      51.945   9.812  11.313  0.00  0.00    +0.000 C 
BRANCH  22  23
ATOM     23  N   UNL     1      51.906  10.289   9.936  0.00  0.00    +0.000 NA
ATOM     24  H   UNL     1      52.850  10.502   9.617  0.00  0.00    +0.000 HD
ATOM     25  H   UNL     1      51.381  11.162   9.894  0.00  0.00    +0.000 HD
ENDBRANCH  22  23
ENDBRANCH  16  22
ENDBRANCH  15  19
ENDBRANCH   1  15
TORSDOF 5
ENDMDL
MODEL 9
REMARK VINA RESULT:    -5.186      4.334      7.522
REMARK INTER + INTRA:          -7.149
REMARK INTER:                  -6.700
REMARK INTRA:                  -0.448
REMARK UNBOUND:                -0.599
REMARK  Name = 
REMARK  5 active torsions:
REMARK  status: ('A' for Active; 'I' for Inactive)
REMARK    1  A    between atoms: N_1  and  C_2
REMARK    2  A    between atoms: C_2  and  C_3
REMARK    3  A    between atoms: C_6  and  C_7
REMARK    4  A    between atoms: C_7  and  N_8
REMARK    5  A    between atoms: C_13  and  C_14
REMARK                            x       y       z     vdW  Elec       q    Type
REMARK                         _______ _______ _______ _____ _____    ______ ____
ROOT
ATOM      1  N   UNL     1      46.779   8.104  12.820  0.00  0.00    +0.000 N 
ATOM      2  C   UNL     1      46.838   9.232  12.028  0.00  0.00    +0.000 A 
ATOM      3  C   UNL     1      48.152   9.635  11.953  0.00  0.00    +0.000 A 
ATOM      4  C   UNL     1      48.874   8.859  12.882  0.00  0.00    +0.000 A 
ATOM      5  C   UNL     1      50.203   8.881  13.323  0.00  0.00    +0.000 A 
ATOM      6  C   UNL     1      50.562   8.017  14.352  0.00  0.00    +0.000 A 
ATOM      7  C   UNL     1      49.598   7.126  14.830  0.00  0.00    +0.000 A 
ATOM      8  N   UNL     1      48.306   7.020  14.394  0.00  0.00    +0.000 NA
ATOM      9  C   UNL     1      48.000   7.925  13.439  0.00  0.00    +0.000 A 
ENDROOT
BRANCH   6  10
ATOM     10  C   UNL     1      51.913   8.041  14.965  0.00  0.00    +0.000 C 
ATOM     11  N   UNL     1      52.970   7.566  14.219  0.00  0.00    +0.000 N 
ATOM     12  O   UNL     1      52.100   8.483  16.082  0.00  0.00    +0.000 OA
ATOM     13  H   UNL     1      52.921   7.232  13.271  0.00  0.00    +0.000 HD
ATOM     14  H   UNL     1      53.889   7.632  14.641  0.00  0.00    +0.000 HD
ENDBRANCH   6  10
BRANCH   1  15
ATOM     15  C   UNL     1      45.614   7.227  12.934  0.00  0.00    +0.000 C 
BRANCH  15  19
ATOM     16  C   UNL     1      43.311   4.399  11.532  0.00  0.00    +0.000 C 
ATOM     17  C   UNL     1      43.653   4.646  13.009  0.00  0.00    +0.000 C 
ATOM     18  C   UNL     1      45.161   4.707  13.238  0.00  0.00    +0.000 C 
ATOM     19  C   UNL     1      45.853   5.793  12.387  0.00  0.00    +0.000 C 
ATOM     20  C   UNL     1      45.457   5.640  10.902  0.00  0.00    +0.000 C 
ATOM     21  C   UNL     1      43.951   5.506  10.676  0.00  0.00    +0.000 C 
BRANCH  16  22
ATOM     22  C   UNL     1      43.740   2.990  11.065  0.00  0.00    +0.000 C 
BRANCH  22  23
ATOM     23  N   UNL     1      43.007   1.949  11.774  0.00  0.00    +0.000 NA
ATOM     24  H   UNL     1      43.556   1.617  12.566  0.00  0.00    +0.000 HD
ATOM     25  H   UNL     1      42.873   1.148  11.158  0.00  0.00    +0.000 HD
ENDBRANCH  22  23
ENDBRANCH  16  22
ENDBRANCH  15  19
ENDBRANCH   1  15
TORSDOF 5
ENDMDL
