MODEL 1
REMARK VINA RESULT:    -8.309      0.000      0.000
REMARK INTER + INTRA:         -10.723
REMARK INTER:                 -10.252
REMARK INTRA:                  -0.471
REMARK UNBOUND:                -0.471
REMARK  Name = 
REMARK  4 active torsions:
REMARK  status: ('A' for Active; 'I' for Inactive)
REMARK    1  A    between atoms: C_2  and  C_4
REMARK    2  A    between atoms: C_7  and  N_8
REMARK    3  A    between atoms: N_8  and  C_9
REMARK    4  A    between atoms: C_9  and  C_10
REMARK                            x       y       z     vdW  Elec       q    Type
REMARK                         _______ _______ _______ _____ _____    ______ ____
ROOT
ATOM      1  C   UNL     1      46.642   2.645   7.468  0.00  0.00    +0.000 A 
ATOM      2  C   UNL     1      46.299   3.997   7.585  0.00  0.00    +0.000 A 
ATOM      3  C   UNL     1      45.311   4.401   8.494  0.00  0.00    +0.000 A 
ATOM      4  C   UNL     1      44.682   3.469   9.321  0.00  0.00    +0.000 A 
ATOM      5  C   UNL     1      45.028   2.116   9.187  0.00  0.00    +0.000 A 
ATOM      6  C   UNL     1      45.987   1.701   8.259  0.00  0.00    +0.000 A 
ENDROOT
BRANCH   1   8
ATOM      7  N   UNL     1      47.890   2.949   5.399  0.00  0.00    +0.000 N 
ATOM      8  C   UNL     1      47.665   2.167   6.500  0.00  0.00    +0.000 C 
ATOM      9  O   UNL     1      48.308   1.149   6.693  0.00  0.00    +0.000 OA
ATOM     10  H   UNL     1      48.663   2.670   4.807  0.00  0.00    +0.000 HD
ATOM     11  H   UNL     1      47.582   3.908   5.348  0.00  0.00    +0.000 HD
ENDBRANCH   1   8
BRANCH   4  12
ATOM     12  N   UNL     1      43.709   3.798  10.281  0.00  0.00    +0.000 N 
ATOM     13  H   UNL     1      43.122   2.996  10.497  0.00  0.00    +0.000 HD
BRANCH  12  14
ATOM     14  C   UNL     1      43.836   4.839  11.316  0.00  0.00    +0.000 C 
ATOM     15  C   UNL     1      42.503   5.224  11.954  0.00  0.00    +0.000 C 
ATOM     16  C   UNL     1      43.232   6.218  11.113  0.00  0.00    +0.000 C 
BRANCH  14  17
ATOM     17  C   UNL     1      45.025   4.700  12.245  0.00  0.00    +0.000 A 
ATOM     18  C   UNL     1      45.742   5.776  12.747  0.00  0.00    +0.000 A 
ATOM     19  N   UNL     1      46.780   5.691  13.609  0.00  0.00    +0.000 NA
ATOM     20  C   UNL     1      47.113   4.450  13.985  0.00  0.00    +0.000 A 
ATOM     21  N   UNL     1      46.522   3.321  13.571  0.00  0.00    +0.000 NA
ATOM     22  C   UNL     1      45.493   3.482  12.710  0.00  0.00    +0.000 A 
ENDBRANCH  14  17
ENDBRANCH  12  14
ENDBRANCH   4  12
TORSDOF 4
ENDMDL
MODEL 2
REMARK VINA RESULT:    -7.969      1.083      1.215
REMARK INTER + INTRA:         -10.303
REMARK INTER:                 -10.204
REMARK INTRA:                  -0.099
REMARK UNBOUND:                -0.471
REMARK  Name = 
REMARK  4 active torsions:
REMARK  status: ('A' for Active; 'I' for Inactive)
REMARK    1  A    between atoms: C_2  and  C_4
REMARK    2  A    between atoms: C_7  and  N_8
REMARK    3  A    between atoms: N_8  and  C_9
REMARK    4  A    between atoms: C_9  and  C_10
REMARK                            x       y       z     vdW  Elec       q    Type
REMARK                         _______ _______ _______ _____ _____    ______ ____
ROOT
ATOM      1  C   UNL     1      46.529   2.524   7.713  0.00  0.00    +0.000 A 
ATOM      2  C   UNL     1      46.453   3.918   7.607  0.00  0.00    +0.000 A 
ATOM      3  C   UNL     1      45.548   4.639   8.400  0.00  0.00    +0.000 A 
ATOM      4  C   UNL     1      44.739   3.986   9.329  0.00  0.00    +0.000 A 
ATOM      5  C   UNL     1      44.819   2.587   9.419  0.00  0.00    +0.000 A 
ATOM      6  C   UNL     1      45.693   1.858   8.609  0.00  0.00    +0.000 A 
ENDROOT
BRANCH   1   8
ATOM      7  N   UNL     1      48.567   2.348   6.392  0.00  0.00    +0.000 N 
ATOM      8  C   UNL     1      47.454   1.714   6.876  0.00  0.00    +0.000 C 
ATOM      9  O   UNL     1      47.260   0.530   6.662  0.00  0.00    +0.000 OA
ATOM     10  H   UNL     1      49.241   1.761   5.917  0.00  0.00    +0.000 HD
ATOM     11  H   UNL     1      48.891   3.228   6.765  0.00  0.00    +0.000 HD
ENDBRANCH   1   8
BRANCH   4  12
ATOM     12  N   UNL     1      43.835   4.640  10.184  0.00  0.00    +0.000 N 
ATOM     13  H   UNL     1      42.881   4.560   9.839  0.00  0.00    +0.000 HD
BRANCH  12  14
ATOM     14  C   UNL     1      44.013   4.848  11.632  0.00  0.00    +0.000 C 
ATOM     15  C   UNL     1      43.330   3.781  12.485  0.00  0.00    +0.000 C 
ATOM     16  C   UNL     1      42.828   5.186  12.521  0.00  0.00    +0.000 C 
BRANCH  14  17
ATOM     17  C   UNL     1      45.394   5.294  12.068  0.00  0.00    +0.000 A 
ATOM     18  C   UNL     1      45.997   6.467  11.641  0.00  0.00    +0.000 A 
ATOM     19  N   UNL     1      47.208   6.914  12.041  0.00  0.00    +0.000 NA
ATOM     20  C   UNL     1      47.846   6.133  12.922  0.00  0.00    +0.000 A 
ATOM     21  N   UNL     1      47.394   4.970  13.408  0.00  0.00    +0.000 NA
ATOM     22  C   UNL     1      46.178   4.585  12.963  0.00  0.00    +0.000 A 
ENDBRANCH  14  17
ENDBRANCH  12  14
ENDBRANCH   4  12
TORSDOF 4
ENDMDL
MODEL 3
REMARK VINA RESULT:    -5.935      3.361      6.413
REMARK INTER + INTRA:          -7.794
REMARK INTER:                  -7.449
REMARK INTRA:                  -0.345
REMARK UNBOUND:                -0.471
REMARK  Name = 
REMARK  4 active torsions:
REMARK  status: ('A' for Active; 'I' for Inactive)
REMARK    1  A    between atoms: C_2  and  C_4
REMARK    2  A    between atoms: C_7  and  N_8
REMARK    3  A    between atoms: N_8  and  C_9
REMARK    4  A    between atoms: C_9  and  C_10
REMARK                            x       y       z     vdW  Elec       q    Type
REMARK                         _______ _______ _______ _____ _____    ______ ____
ROOT
ATOM      1  C   UNL     1      47.508   8.107  13.459  0.00  0.00    +0.000 A 
ATOM      2  C   UNL     1      46.273   8.742  13.278  0.00  0.00    +0.000 A 
ATOM      3  C   UNL     1      45.306   8.181  12.431  0.00  0.00    +0.000 A 
ATOM      4  C   UNL     1      45.543   6.966  11.789  0.00  0.00    +0.000 A 
ATOM      5  C   UNL     1      46.788   6.344  11.972  0.00  0.00    +0.000 A 
ATOM      6  C   UNL     1      47.770   6.914  12.787  0.00  0.00    +0.000 A 
ENDROOT
BRANCH   1   8
ATOM      7  N   UNL     1      48.199   9.660  15.203  0.00  0.00    +0.000 N 
ATOM      8  C   UNL     1      48.574   8.676  14.327  0.00  0.00    +0.000 C 
ATOM      9  O   UNL     1      49.720   8.263  14.295  0.00  0.00    +0.000 OA
ATOM     10  H   UNL     1      48.908   9.961  15.861  0.00  0.00    +0.000 HD
ATOM     11  H   UNL     1      47.234   9.829  15.443  0.00  0.00    +0.000 HD
ENDBRANCH   1   8
BRANCH   4  12
ATOM     12  N   UNL     1      44.613   6.322  10.955  0.00  0.00    +0.000 N 
ATOM     13  H   UNL     1      44.512   6.815  10.070  0.00  0.00    +0.000 HD
BRANCH  12  14
ATOM     14  C   UNL     1      44.295   4.884  10.965  0.00  0.00    +0.000 C 
ATOM     15  C   UNL     1      42.841   4.587  11.330  0.00  0.00    +0.000 C 
ATOM     16  C   UNL     1      43.934   4.175  12.260  0.00  0.00    +0.000 C 
BRANCH  14  17
ATOM     17  C   UNL     1      44.898   4.069   9.839  0.00  0.00    +0.000 A 
ATOM     18  C   UNL     1      44.924   2.682   9.817  0.00  0.00    +0.000 A 
ATOM     19  N   UNL     1      45.416   1.925   8.812  0.00  0.00    +0.000 NA
ATOM     20  C   UNL     1      45.911   2.605   7.770  0.00  0.00    +0.000 A 
ATOM     21  N   UNL     1      45.967   3.940   7.661  0.00  0.00    +0.000 NA
ATOM     22  C   UNL     1      45.457   4.632   8.704  0.00  0.00    +0.000 A 
ENDBRANCH  14  17
ENDBRANCH  12  14
ENDBRANCH   4  12
TORSDOF 4
ENDMDL
MODEL 4
REMARK VINA RESULT:    -5.694      3.442      6.857
REMARK INTER + INTRA:          -7.496
REMARK INTER:                  -7.212
REMARK INTRA:                  -0.283
REMARK UNBOUND:                -0.471
REMARK  Name = 
REMARK  4 active torsions:
REMARK  status: ('A' for Active; 'I' for Inactive)
REMARK    1  A    between atoms: C_2  and  C_4
REMARK    2  A    between atoms: C_7  and  N_8
REMARK    3  A    between atoms: N_8  and  C_9
REMARK    4  A    between atoms: C_9  and  C_10
REMARK                            x       y       z     vdW  Elec       q    Type
REMARK                         _______ _______ _______ _____ _____    ______ ____
ROOT
ATOM      1  C   UNL     1      47.929   4.959  16.096  0.00  0.00    +0.000 A 
ATOM      2  C   UNL     1      48.370   6.169  15.547  0.00  0.00    +0.000 A 
ATOM      3  C   UNL     1      48.028   6.517  14.233  0.00  0.00    +0.000 A 
ATOM      4  C   UNL     1      47.214   5.683  13.466  0.00  0.00    +0.000 A 
ATOM      5  C   UNL     1      46.785   4.469  14.025  0.00  0.00    +0.000 A 
ATOM      6  C   UNL     1      47.150   4.099  15.322  0.00  0.00    +0.000 A 
ENDROOT
BRANCH   1   8
ATOM      7  N   UNL     1      47.407   3.706  18.118  0.00  0.00    +0.000 N 
ATOM      8  C   UNL     1      48.287   4.536  17.476  0.00  0.00    +0.000 C 
ATOM      9  O   UNL     1      49.334   4.873  18.002  0.00  0.00    +0.000 OA
ATOM     10  H   UNL     1      47.713   3.339  19.010  0.00  0.00    +0.000 HD
ATOM     11  H   UNL     1      46.685   3.201  17.625  0.00  0.00    +0.000 HD
ENDBRANCH   1   8
BRANCH   4  12
ATOM     12  N   UNL     1      46.798   5.977  12.156  0.00  0.00    +0.000 N 
ATOM     13  H   UNL     1      47.551   5.823  11.489  0.00  0.00    +0.000 HD
BRANCH  12  14
ATOM     14  C   UNL     1      45.418   5.885  11.647  0.00  0.00    +0.000 C 
ATOM     15  C   UNL     1      44.718   7.239  11.548  0.00  0.00    +0.000 C 
ATOM     16  C   UNL     1      44.235   6.230  12.536  0.00  0.00    +0.000 C 
BRANCH  14  17
ATOM     17  C   UNL     1      45.203   4.917  10.502  0.00  0.00    +0.000 A 
ATOM     18  C   UNL     1      45.653   5.139   9.208  0.00  0.00    +0.000 A 
ATOM     19  N   UNL     1      45.515   4.279   8.175  0.00  0.00    +0.000 NA
ATOM     20  C   UNL     1      44.888   3.132   8.461  0.00  0.00    +0.000 A 
ATOM     21  N   UNL     1      44.388   2.790   9.657  0.00  0.00    +0.000 NA
ATOM     22  C   UNL     1      44.562   3.697  10.643  0.00  0.00    +0.000 A 
ENDBRANCH  14  17
ENDBRANCH  12  14
ENDBRANCH   4  12
TORSDOF 4
ENDMDL
MODEL 5
REMARK VINA RESULT:    -5.569      3.373      5.354
REMARK INTER + INTRA:          -7.341
REMARK INTER:                  -7.156
REMARK INTRA:                  -0.186
REMARK UNBOUND:                -0.471
REMARK  Name = 
REMARK  4 active torsions:
REMARK  status: ('A' for Active; 'I' for Inactive)
REMARK    1  A    between atoms: C_2  and  C_4
REMARK    2  A    between atoms: C_7  and  N_8
REMARK    3  A    between atoms: N_8  and  C_9
REMARK    4  A    between atoms: C_9  and  C_10
REMARK                            x       y       z     vdW  Elec       q    Type
REMARK                         _______ _______ _______ _____ _____    ______ ____
ROOT
ATOM      1  C   UNL     1      44.646   4.026  11.537  0.00  0.00    +0.000 A 
ATOM      2  C   UNL     1      44.498   5.299  10.975  0.00  0.00    +0.000 A 
ATOM      3  C   UNL     1      45.127   6.408  11.560  0.00  0.00    +0.000 A 
ATOM      4  C   UNL     1      45.937   6.254  12.685  0.00  0.00    +0.000 A 
ATOM      5  C   UNL     1      46.070   4.974  13.244  0.00  0.00    +0.000 A 
ATOM      6  C   UNL     1      45.419   3.869  12.688  0.00  0.00    +0.000 A 
ENDROOT
BRANCH   1   8
ATOM      7  N   UNL     1      44.558   2.259   9.864  0.00  0.00    +0.000 N 
ATOM      8  C   UNL     1      43.978   2.824  10.968  0.00  0.00    +0.000 C 
ATOM      9  O   UNL     1      42.986   2.335  11.480  0.00  0.00    +0.000 OA
ATOM     10  H   UNL     1      44.158   1.382   9.553  0.00  0.00    +0.000 HD
ATOM     11  H   UNL     1      45.505   2.468   9.586  0.00  0.00    +0.000 HD
ENDBRANCH   1   8
BRANCH   4  12
ATOM     12  N   UNL     1      46.629   7.309  13.307  0.00  0.00    +0.000 N 
ATOM     13  H   UNL     1      46.238   7.512  14.224  0.00  0.00    +0.000 HD
BRANCH  12  14
ATOM     14  C   UNL     1      48.039   7.667  13.080  0.00  0.00    +0.000 C 
ATOM     15  C   UNL     1      48.218   9.029  12.411  0.00  0.00    +0.000 C 
ATOM     16  C   UNL     1      48.596   7.789  11.672  0.00  0.00    +0.000 C 
BRANCH  14  17
ATOM     17  C   UNL     1      48.993   7.327  14.208  0.00  0.00    +0.000 A 
ATOM     18  C   UNL     1      48.669   6.495  15.269  0.00  0.00    +0.000 A 
ATOM     19  N   UNL     1      49.508   6.138  16.267  0.00  0.00    +0.000 NA
ATOM     20  C   UNL     1      50.742   6.652  16.191  0.00  0.00    +0.000 A 
ATOM     21  N   UNL     1      51.188   7.479  15.237  0.00  0.00    +0.000 NA
ATOM     22  C   UNL     1      50.296   7.793  14.272  0.00  0.00    +0.000 A 
ENDBRANCH  14  17
ENDBRANCH  12  14
ENDBRANCH   4  12
TORSDOF 4
ENDMDL
MODEL 6
REMARK VINA RESULT:    -5.414      2.568      4.446
REMARK INTER + INTRA:          -7.151
REMARK INTER:                  -7.178
REMARK INTRA:                   0.027
REMARK UNBOUND:                -0.471
REMARK  Name = 
REMARK  4 active torsions:
REMARK  status: ('A' for Active; 'I' for Inactive)
REMARK    1  A    between atoms: C_2  and  C_4
REMARK    2  A    between atoms: C_7  and  N_8
REMARK    3  A    between atoms: N_8  and  C_9
REMARK    4  A    between atoms: C_9  and  C_10
REMARK                            x       y       z     vdW  Elec       q    Type
REMARK                         _______ _______ _______ _____ _____    ______ ____
ROOT
ATOM      1  C   UNL     1      45.034   3.863  10.180  0.00  0.00    +0.000 A 
ATOM      2  C   UNL     1      44.941   3.334  11.472  0.00  0.00    +0.000 A 
ATOM      3  C   UNL     1      45.340   4.097  12.580  0.00  0.00    +0.000 A 
ATOM      4  C   UNL     1      45.799   5.403  12.415  0.00  0.00    +0.000 A 
ATOM      5  C   UNL     1      45.896   5.919  11.113  0.00  0.00    +0.000 A 
ATOM      6  C   UNL     1      45.533   5.154  10.001  0.00  0.00    +0.000 A 
ENDROOT
BRANCH   1   8
ATOM      7  N   UNL     1      44.562   1.725   9.115  0.00  0.00    +0.000 N 
ATOM      8  C   UNL     1      44.647   3.084   8.973  0.00  0.00    +0.000 C 
ATOM      9  O   UNL     1      44.375   3.626   7.916  0.00  0.00    +0.000 OA
ATOM     10  H   UNL     1      44.193   1.218   8.320  0.00  0.00    +0.000 HD
ATOM     11  H   UNL     1      44.514   1.279  10.019  0.00  0.00    +0.000 HD
ENDBRANCH   1   8
BRANCH   4  12
ATOM     12  N   UNL     1      46.183   6.243  13.475  0.00  0.00    +0.000 N 
ATOM     13  H   UNL     1      45.398   6.431  14.095  0.00  0.00    +0.000 HD
BRANCH  12  14
ATOM     14  C   UNL     1      47.535   6.343  14.050  0.00  0.00    +0.000 C 
ATOM     15  C   UNL     1      48.081   7.770  14.068  0.00  0.00    +0.000 C 
ATOM     16  C   UNL     1      48.720   6.747  13.189  0.00  0.00    +0.000 C 
BRANCH  14  17
ATOM     17  C   UNL     1      47.791   5.496  15.280  0.00  0.00    +0.000 A 
ATOM     18  C   UNL     1      48.673   5.849  16.292  0.00  0.00    +0.000 A 
ATOM     19  N   UNL     1      48.893   5.139  17.420  0.00  0.00    +0.000 NA
ATOM     20  C   UNL     1      48.186   4.008  17.534  0.00  0.00    +0.000 A 
ATOM     21  N   UNL     1      47.313   3.536  16.633  0.00  0.00    +0.000 NA
ATOM     22  C   UNL     1      47.143   4.297  15.530  0.00  0.00    +0.000 A 
ENDBRANCH  14  17
ENDBRANCH  12  14
ENDBRANCH   4  12
TORSDOF 4
ENDMDL
MODEL 7
REMARK VINA RESULT:    -5.354      1.884      2.634
REMARK INTER + INTRA:          -7.077
REMARK INTER:                  -7.098
REMARK INTRA:                   0.021
REMARK UNBOUND:                -0.471
REMARK  Name = 
REMARK  4 active torsions:
REMARK  status: ('A' for Active; 'I' for Inactive)
REMARK    1  A    between atoms: C_2  and  C_4
REMARK    2  A    between atoms: C_7  and  N_8
REMARK    3  A    between atoms: N_8  and  C_9
REMARK    4  A    between atoms: C_9  and  C_10
REMARK                            x       y       z     vdW  Elec       q    Type
REMARK                         _______ _______ _______ _____ _____    ______ ____
ROOT
ATOM      1  C   UNL     1      46.532   2.279   7.617  0.00  0.00    +0.000 A 
ATOM      2  C   UNL     1      47.105   3.498   7.237  0.00  0.00    +0.000 A 
ATOM      3  C   UNL     1      46.710   4.691   7.859  0.00  0.00    +0.000 A 
ATOM      4  C   UNL     1      45.771   4.677   8.890  0.00  0.00    +0.000 A 
ATOM      5  C   UNL     1      45.198   3.449   9.256  0.00  0.00    +0.000 A 
ATOM      6  C   UNL     1      45.560   2.261   8.618  0.00  0.00    +0.000 A 
ENDROOT
BRANCH   1   8
ATOM      7  N   UNL     1      46.808  -0.138   7.737  0.00  0.00    +0.000 N 
ATOM      8  C   UNL     1      46.901   0.992   6.969  0.00  0.00    +0.000 C 
ATOM      9  O   UNL     1      47.229   0.932   5.796  0.00  0.00    +0.000 OA
ATOM     10  H   UNL     1      46.955  -1.015   7.255  0.00  0.00    +0.000 HD
ATOM     11  H   UNL     1      46.291  -0.159   8.603  0.00  0.00    +0.000 HD
ENDBRANCH   1   8
BRANCH   4  12
ATOM     12  N   UNL     1      45.350   5.823   9.587  0.00  0.00    +0.000 N 
ATOM     13  H   UNL     1      44.524   6.231   9.156  0.00  0.00    +0.000 HD
BRANCH  12  14
ATOM     14  C   UNL     1      45.562   6.088  11.021  0.00  0.00    +0.000 C 
ATOM     15  C   UNL     1      45.792   7.565  11.336  0.00  0.00    +0.000 C 
ATOM     16  C   UNL     1      46.903   6.588  11.531  0.00  0.00    +0.000 C 
BRANCH  14  17
ATOM     17  C   UNL     1      44.670   5.315  11.971  0.00  0.00    +0.000 A 
ATOM     18  C   UNL     1      45.004   4.082  12.513  0.00  0.00    +0.000 A 
ATOM     19  N   UNL     1      44.252   3.387  13.395  0.00  0.00    +0.000 NA
ATOM     20  C   UNL     1      43.098   3.966  13.748  0.00  0.00    +0.000 A 
ATOM     21  N   UNL     1      42.640   5.141  13.294  0.00  0.00    +0.000 NA
ATOM     22  C   UNL     1      43.444   5.781  12.416  0.00  0.00    +0.000 A 
ENDBRANCH  14  17
ENDBRANCH  12  14
ENDBRANCH   4  12
TORSDOF 4
ENDMDL
