MODEL 1
REMARK VINA RESULT:    -9.389      0.000      0.000
REMARK INTER + INTRA:         -12.620
REMARK INTER:                 -12.133
REMARK INTRA:                  -0.487
REMARK UNBOUND:                -0.487
REMARK  Name = 
REMARK  6 active torsions:
REMARK  status: ('A' for Active; 'I' for Inactive)
REMARK    1  A    between atoms: C_1  and  C_2
REMARK    2  A    between atoms: C_2  and  N_3
REMARK    3  A    between atoms: C_2  and  C_16
REMARK    4  A    between atoms: C_4  and  C_6
REMARK    5  A    between atoms: C_19  and  O_20
REMARK    6  A    between atoms: O_20  and  C_21
REMARK                            x       y       z     vdW  Elec       q    Type
REMARK                         _______ _______ _______ _____ _____    ______ ____
ROOT
ATOM      1  C   UNL     1      42.903   5.148  13.259  0.00  0.00    +0.000 C 
ATOM      2  C   UNL     1      44.220   4.414  12.978  0.00  0.00    +0.000 C 
ENDROOT
BRANCH   2   3
ATOM      3  C   UNL     1      44.544   4.288  11.501  0.00  0.00    +0.000 A 
ATOM      4  C   UNL     1      44.128   3.143  10.804  0.00  0.00    +0.000 A 
ATOM      5  C   UNL     1      44.402   2.999   9.443  0.00  0.00    +0.000 A 
ATOM      6  C   UNL     1      45.036   4.029   8.743  0.00  0.00    +0.000 A 
ATOM      7  C   UNL     1      45.527   5.130   9.435  0.00  0.00    +0.000 A 
ATOM      8  C   UNL     1      45.297   5.251  10.807  0.00  0.00    +0.000 A 
BRANCH   6   9
ATOM      9  O   UNL     1      45.245   4.022   7.381  0.00  0.00    +0.000 OA
BRANCH   9  10
ATOM     10  C   UNL     1      46.258   3.242   6.867  0.00  0.00    +0.000 A 
ATOM     11  C   UNL     1      46.913   3.498   5.663  0.00  0.00    +0.000 A 
ATOM     12  C   UNL     1      47.827   2.568   5.206  0.00  0.00    +0.000 A 
ATOM     13  N   UNL     1      48.182   1.468   5.900  0.00  0.00    +0.000 NA
ATOM     14  C   UNL     1      47.597   1.293   7.105  0.00  0.00    +0.000 A 
ATOM     15  C   UNL     1      46.640   2.145   7.629  0.00  0.00    +0.000 A 
ENDBRANCH   9  10
ENDBRANCH   6   9
ENDBRANCH   2   3
BRANCH   2  16
ATOM     16  N   UNL     1      45.326   5.070  13.643  0.00  0.00    +0.000 N 
ATOM     17  C   UNL     1      46.454   4.398  14.042  0.00  0.00    +0.000 C 
ATOM     18  O   UNL     1      46.650   3.220  13.774  0.00  0.00    +0.000 OA
ATOM     19  H   UNL     1      45.143   5.999  14.008  0.00  0.00    +0.000 HD
BRANCH  17  20
ATOM     20  C   UNL     1      47.441   5.199  14.773  0.00  0.00    +0.000 A 
ATOM     21  C   UNL     1      48.095   6.242  14.135  0.00  0.00    +0.000 A 
ATOM     22  S   UNL     1      49.213   7.057  15.134  0.00  0.00    +0.000 S 
ATOM     23  C   UNL     1      48.892   6.010  16.438  0.00  0.00    +0.000 A 
ATOM     24  N   UNL     1      49.563   6.133  17.614  0.00  0.00    +0.000 NA
ATOM     25  C   UNL     1      49.246   5.250  18.504  0.00  0.00    +0.000 A 
ATOM     26  N   UNL     1      48.309   4.266  18.327  0.00  0.00    +0.000 N 
ATOM     27  C   UNL     1      47.565   4.142  17.180  0.00  0.00    +0.000 A 
ATOM     28  O   UNL     1      46.656   3.316  17.093  0.00  0.00    +0.000 OA
ATOM     29  C   UNL     1      47.917   5.080  16.128  0.00  0.00    +0.000 A 
ATOM     30  H   UNL     1      48.087   3.627  19.076  0.00  0.00    +0.000 HD
ENDBRANCH  17  20
ENDBRANCH   2  16
TORSDOF 5
ENDMDL
MODEL 2
REMARK VINA RESULT:    -8.708      1.602      2.868
REMARK INTER + INTRA:         -11.741
REMARK INTER:                 -11.140
REMARK INTRA:                  -0.601
REMARK UNBOUND:                -0.487
REMARK  Name = 
REMARK  6 active torsions:
REMARK  status: ('A' for Active; 'I' for Inactive)
REMARK    1  A    between atoms: C_1  and  C_2
REMARK    2  A    between atoms: C_2  and  N_3
REMARK    3  A    between atoms: C_2  and  C_16
REMARK    4  A    between atoms: C_4  and  C_6
REMARK    5  A    between atoms: C_19  and  O_20
REMARK    6  A    between atoms: O_20  and  C_21
REMARK                            x       y       z     vdW  Elec       q    Type
REMARK                         _______ _______ _______ _____ _____    ______ ____
ROOT
ATOM      1  C   UNL     1      43.038   4.837  13.458  0.00  0.00    +0.000 C 
ATOM      2  C   UNL     1      44.390   4.274  13.007  0.00  0.00    +0.000 C 
ENDROOT
BRANCH   2   3
ATOM      3  C   UNL     1      44.557   4.223  11.499  0.00  0.00    +0.000 A 
ATOM      4  C   UNL     1      45.279   5.240  10.855  0.00  0.00    +0.000 A 
ATOM      5  C   UNL     1      45.458   5.219   9.472  0.00  0.00    +0.000 A 
ATOM      6  C   UNL     1      44.976   4.145   8.718  0.00  0.00    +0.000 A 
ATOM      7  C   UNL     1      44.189   3.175   9.329  0.00  0.00    +0.000 A 
ATOM      8  C   UNL     1      43.968   3.223  10.707  0.00  0.00    +0.000 A 
BRANCH   6   9
ATOM      9  O   UNL     1      45.204   3.984   7.369  0.00  0.00    +0.000 OA
BRANCH   9  10
ATOM     10  C   UNL     1      46.175   3.097   6.958  0.00  0.00    +0.000 A 
ATOM     11  C   UNL     1      46.574   1.978   7.686  0.00  0.00    +0.000 A 
ATOM     12  C   UNL     1      47.643   1.240   7.215  0.00  0.00    +0.000 A 
ATOM     13  N   UNL     1      48.268   1.494   6.048  0.00  0.00    +0.000 NA
ATOM     14  C   UNL     1      47.800   2.531   5.319  0.00  0.00    +0.000 A 
ATOM     15  C   UNL     1      46.764   3.354   5.726  0.00  0.00    +0.000 A 
ENDBRANCH   9  10
ENDBRANCH   6   9
ENDBRANCH   2   3
BRANCH   2  16
ATOM     16  N   UNL     1      45.482   5.043  13.569  0.00  0.00    +0.000 N 
ATOM     17  C   UNL     1      46.651   4.466  13.995  0.00  0.00    +0.000 C 
ATOM     18  O   UNL     1      46.898   3.277  13.836  0.00  0.00    +0.000 OA
ATOM     19  H   UNL     1      45.263   5.993  13.848  0.00  0.00    +0.000 HD
BRANCH  17  20
ATOM     20  C   UNL     1      47.617   5.380  14.613  0.00  0.00    +0.000 A 
ATOM     21  C   UNL     1      48.014   5.182  15.927  0.00  0.00    +0.000 A 
ATOM     22  S   UNL     1      49.134   6.344  16.481  0.00  0.00    +0.000 S 
ATOM     23  C   UNL     1      49.088   7.176  14.997  0.00  0.00    +0.000 A 
ATOM     24  N   UNL     1      49.803   8.318  14.813  0.00  0.00    +0.000 NA
ATOM     25  C   UNL     1      49.645   8.865  13.652  0.00  0.00    +0.000 A 
ATOM     26  N   UNL     1      48.850   8.364  12.655  0.00  0.00    +0.000 N 
ATOM     27  C   UNL     1      48.159   7.183  12.774  0.00  0.00    +0.000 A 
ATOM     28  O   UNL     1      47.541   6.705  11.823  0.00  0.00    +0.000 OA
ATOM     29  C   UNL     1      48.262   6.553  14.079  0.00  0.00    +0.000 A 
ATOM     30  H   UNL     1      48.797   8.825  11.759  0.00  0.00    +0.000 HD
ENDBRANCH  17  20
ENDBRANCH   2  16
TORSDOF 5
ENDMDL
MODEL 3
REMARK VINA RESULT:    -7.749      2.299      3.618
REMARK INTER + INTRA:         -10.501
REMARK INTER:                  -9.210
REMARK INTRA:                  -1.291
REMARK UNBOUND:                -0.487
REMARK  Name = 
REMARK  6 active torsions:
REMARK  status: ('A' for Active; 'I' for Inactive)
REMARK    1  A    between atoms: C_1  and  C_2
REMARK    2  A    between atoms: C_2  and  N_3
REMARK    3  A    between atoms: C_2  and  C_16
REMARK    4  A    between atoms: C_4  and  C_6
REMARK    5  A    between atoms: C_19  and  O_20
REMARK    6  A    between atoms: O_20  and  C_21
REMARK                            x       y       z     vdW  Elec       q    Type
REMARK                         _______ _______ _______ _____ _____    ______ ____
ROOT
ATOM      1  C   UNL     1      48.253   8.834  12.745  0.00  0.00    +0.000 C 
ATOM      2  C   UNL     1      47.382   7.936  13.631  0.00  0.00    +0.000 C 
ENDROOT
BRANCH   2   3
ATOM      3  C   UNL     1      46.446   7.033  12.849  0.00  0.00    +0.000 A 
ATOM      4  C   UNL     1      45.415   7.608  12.089  0.00  0.00    +0.000 A 
ATOM      5  C   UNL     1      44.542   6.808  11.352  0.00  0.00    +0.000 A 
ATOM      6  C   UNL     1      44.727   5.423  11.309  0.00  0.00    +0.000 A 
ATOM      7  C   UNL     1      45.689   4.833  12.121  0.00  0.00    +0.000 A 
ATOM      8  C   UNL     1      46.532   5.631  12.898  0.00  0.00    +0.000 A 
BRANCH   6   9
ATOM      9  O   UNL     1      43.987   4.569  10.522  0.00  0.00    +0.000 OA
BRANCH   9  10
ATOM     10  C   UNL     1      44.640   3.771   9.607  0.00  0.00    +0.000 A 
ATOM     11  C   UNL     1      44.619   2.378   9.623  0.00  0.00    +0.000 A 
ATOM     12  C   UNL     1      45.416   1.702   8.719  0.00  0.00    +0.000 A 
ATOM     13  N   UNL     1      46.150   2.315   7.769  0.00  0.00    +0.000 NA
ATOM     14  C   UNL     1      46.080   3.663   7.720  0.00  0.00    +0.000 A 
ATOM     15  C   UNL     1      45.344   4.430   8.607  0.00  0.00    +0.000 A 
ENDBRANCH   9  10
ENDBRANCH   6   9
ENDBRANCH   2   3
BRANCH   2  16
ATOM     16  N   UNL     1      48.203   7.117  14.498  0.00  0.00    +0.000 N 
ATOM     17  C   UNL     1      48.628   7.541  15.731  0.00  0.00    +0.000 C 
ATOM     18  O   UNL     1      48.263   8.597  16.230  0.00  0.00    +0.000 OA
ATOM     19  H   UNL     1      48.641   6.309  14.069  0.00  0.00    +0.000 HD
BRANCH  17  20
ATOM     20  C   UNL     1      49.519   6.618  16.443  0.00  0.00    +0.000 A 
ATOM     21  C   UNL     1      50.778   7.040  16.842  0.00  0.00    +0.000 A 
ATOM     22  S   UNL     1      51.677   5.834  17.647  0.00  0.00    +0.000 S 
ATOM     23  C   UNL     1      50.429   4.694  17.447  0.00  0.00    +0.000 A 
ATOM     24  N   UNL     1      50.575   3.414  17.882  0.00  0.00    +0.000 NA
ATOM     25  C   UNL     1      49.565   2.647  17.631  0.00  0.00    +0.000 A 
ATOM     26  N   UNL     1      48.417   3.050  16.999  0.00  0.00    +0.000 N 
ATOM     27  C   UNL     1      48.201   4.345  16.599  0.00  0.00    +0.000 A 
ATOM     28  O   UNL     1      47.118   4.698  16.133  0.00  0.00    +0.000 OA
ATOM     29  C   UNL     1      49.327   5.238  16.812  0.00  0.00    +0.000 A 
ATOM     30  H   UNL     1      47.652   2.406  16.864  0.00  0.00    +0.000 HD
ENDBRANCH  17  20
ENDBRANCH   2  16
TORSDOF 5
ENDMDL
MODEL 4
REMARK VINA RESULT:    -7.332      2.649      4.044
REMARK INTER + INTRA:          -9.962
REMARK INTER:                  -8.889
REMARK INTRA:                  -1.074
REMARK UNBOUND:                -0.487
REMARK  Name = 
REMARK  6 active torsions:
REMARK  status: ('A' for Active; 'I' for Inactive)
REMARK    1  A    between atoms: C_1  and  C_2
REMARK    2  A    between atoms: C_2  and  N_3
REMARK    3  A    between atoms: C_2  and  C_16
REMARK    4  A    between atoms: C_4  and  C_6
REMARK    5  A    between atoms: C_19  and  O_20
REMARK    6  A    between atoms: O_20  and  C_21
REMARK                            x       y       z     vdW  Elec       q    Type
REMARK                         _______ _______ _______ _____ _____    ______ ____
ROOT
ATOM      1  C   UNL     1      49.521   7.597  13.134  0.00  0.00    +0.000 C 
ATOM      2  C   UNL     1      48.087   7.871  13.603  0.00  0.00    +0.000 C 
ENDROOT
BRANCH   2   3
ATOM      3  C   UNL     1      47.042   7.034  12.889  0.00  0.00    +0.000 A 
ATOM      4  C   UNL     1      46.154   7.661  12.000  0.00  0.00    +0.000 A 
ATOM      5  C   UNL     1      45.186   6.921  11.320  0.00  0.00    +0.000 A 
ATOM      6  C   UNL     1      45.135   5.532  11.465  0.00  0.00    +0.000 A 
ATOM      7  C   UNL     1      45.952   4.909  12.403  0.00  0.00    +0.000 A 
ATOM      8  C   UNL     1      46.887   5.657  13.121  0.00  0.00    +0.000 A 
BRANCH   6   9
ATOM      9  O   UNL     1      44.291   4.710  10.751  0.00  0.00    +0.000 OA
BRANCH   9  10
ATOM     10  C   UNL     1      44.823   3.899   9.772  0.00  0.00    +0.000 A 
ATOM     11  C   UNL     1      44.709   2.510   9.756  0.00  0.00    +0.000 A 
ATOM     12  C   UNL     1      45.393   1.810   8.780  0.00  0.00    +0.000 A 
ATOM     13  N   UNL     1      46.097   2.400   7.794  0.00  0.00    +0.000 NA
ATOM     14  C   UNL     1      46.116   3.751   7.783  0.00  0.00    +0.000 A 
ATOM     15  C   UNL     1      45.498   4.539   8.740  0.00  0.00    +0.000 A 
ENDBRANCH   9  10
ENDBRANCH   6   9
ENDBRANCH   2   3
BRANCH   2  16
ATOM     16  N   UNL     1      47.961   7.653  15.030  0.00  0.00    +0.000 N 
ATOM     17  C   UNL     1      48.447   8.537  15.959  0.00  0.00    +0.000 C 
ATOM     18  O   UNL     1      48.930   9.620  15.652  0.00  0.00    +0.000 OA
ATOM     19  H   UNL     1      47.704   6.716  15.319  0.00  0.00    +0.000 HD
BRANCH  17  20
ATOM     20  C   UNL     1      48.307   8.123  17.359  0.00  0.00    +0.000 A 
ATOM     21  C   UNL     1      47.861   9.030  18.308  0.00  0.00    +0.000 A 
ATOM     22  S   UNL     1      47.768   8.377  19.882  0.00  0.00    +0.000 S 
ATOM     23  C   UNL     1      48.367   6.874  19.353  0.00  0.00    +0.000 A 
ATOM     24  N   UNL     1      48.577   5.857  20.230  0.00  0.00    +0.000 NA
ATOM     25  C   UNL     1      49.069   4.787  19.698  0.00  0.00    +0.000 A 
ATOM     26  N   UNL     1      49.355   4.638  18.366  0.00  0.00    +0.000 N 
ATOM     27  C   UNL     1      49.102   5.615  17.435  0.00  0.00    +0.000 A 
ATOM     28  O   UNL     1      49.269   5.411  16.233  0.00  0.00    +0.000 OA
ATOM     29  C   UNL     1      48.595   6.859  17.989  0.00  0.00    +0.000 A 
ATOM     30  H   UNL     1      49.709   3.762  18.011  0.00  0.00    +0.000 HD
ENDBRANCH  17  20
ENDBRANCH   2  16
TORSDOF 5
ENDMDL
MODEL 5
REMARK VINA RESULT:    -7.268      2.744      4.098
REMARK INTER + INTRA:          -9.879
REMARK INTER:                  -8.843
REMARK INTRA:                  -1.036
REMARK UNBOUND:                -0.487
REMARK  Name = 
REMARK  6 active torsions:
REMARK  status: ('A' for Active; 'I' for Inactive)
REMARK    1  A    between atoms: C_1  and  C_2
REMARK    2  A    between atoms: C_2  and  N_3
REMARK    3  A    between atoms: C_2  and  C_16
REMARK    4  A    between atoms: C_4  and  C_6
REMARK    5  A    between atoms: C_19  and  O_20
REMARK    6  A    between atoms: O_20  and  C_21
REMARK                            x       y       z     vdW  Elec       q    Type
REMARK                         _______ _______ _______ _____ _____    ______ ____
ROOT
ATOM      1  C   UNL     1      48.835   8.207  13.115  0.00  0.00    +0.000 C 
ATOM      2  C   UNL     1      47.739   7.440  13.864  0.00  0.00    +0.000 C 
ENDROOT
BRANCH   2   3
ATOM      3  C   UNL     1      46.753   6.737  12.949  0.00  0.00    +0.000 A 
ATOM      4  C   UNL     1      46.069   7.484  11.977  0.00  0.00    +0.000 A 
ATOM      5  C   UNL     1      45.162   6.868  11.114  0.00  0.00    +0.000 A 
ATOM      6  C   UNL     1      44.976   5.484  11.164  0.00  0.00    +0.000 A 
ATOM      7  C   UNL     1      45.582   4.745  12.174  0.00  0.00    +0.000 A 
ATOM      8  C   UNL     1      46.452   5.370  13.070  0.00  0.00    +0.000 A 
BRANCH   6   9
ATOM      9  O   UNL     1      44.189   4.778  10.280  0.00  0.00    +0.000 OA
BRANCH   9  10
ATOM     10  C   UNL     1      44.789   3.873   9.431  0.00  0.00    +0.000 A 
ATOM     11  C   UNL     1      44.640   2.490   9.524  0.00  0.00    +0.000 A 
ATOM     12  C   UNL     1      45.393   1.693   8.684  0.00  0.00    +0.000 A 
ATOM     13  N   UNL     1      46.203   2.181   7.723  0.00  0.00    +0.000 NA
ATOM     14  C   UNL     1      46.259   3.525   7.597  0.00  0.00    +0.000 A 
ATOM     15  C   UNL     1      45.576   4.406   8.418  0.00  0.00    +0.000 A 
ENDBRANCH   9  10
ENDBRANCH   6   9
ENDBRANCH   2   3
BRANCH   2  16
ATOM     16  N   UNL     1      48.316   6.464  14.764  0.00  0.00    +0.000 N 
ATOM     17  C   UNL     1      48.757   6.786  16.022  0.00  0.00    +0.000 C 
ATOM     18  O   UNL     1      48.601   7.896  16.513  0.00  0.00    +0.000 OA
ATOM     19  H   UNL     1      48.593   5.580  14.349  0.00  0.00    +0.000 HD
BRANCH  17  20
ATOM     20  C   UNL     1      49.388   5.693  16.769  0.00  0.00    +0.000 A 
ATOM     21  C   UNL     1      48.602   4.721  17.371  0.00  0.00    +0.000 A 
ATOM     22  S   UNL     1      49.504   3.536  18.203  0.00  0.00    +0.000 S 
ATOM     23  C   UNL     1      50.973   4.310  17.825  0.00  0.00    +0.000 A 
ATOM     24  N   UNL     1      52.157   3.824  18.282  0.00  0.00    +0.000 NA
ATOM     25  C   UNL     1      53.187   4.532  17.951  0.00  0.00    +0.000 A 
ATOM     26  N   UNL     1      53.140   5.671  17.191  0.00  0.00    +0.000 N 
ATOM     27  C   UNL     1      51.975   6.164  16.657  0.00  0.00    +0.000 A 
ATOM     28  O   UNL     1      51.980   7.126  15.890  0.00  0.00    +0.000 OA
ATOM     29  C   UNL     1      50.779   5.433  17.041  0.00  0.00    +0.000 A 
ATOM     30  H   UNL     1      53.988   6.159  16.942  0.00  0.00    +0.000 HD
ENDBRANCH  17  20
ENDBRANCH   2  16
TORSDOF 5
ENDMDL
MODEL 6
REMARK VINA RESULT:    -7.191      4.151      8.583
REMARK INTER + INTRA:          -9.780
REMARK INTER:                  -8.494
REMARK INTRA:                  -1.286
REMARK UNBOUND:                -0.487
REMARK  Name = 
REMARK  6 active torsions:
REMARK  status: ('A' for Active; 'I' for Inactive)
REMARK    1  A    between atoms: C_1  and  C_2
REMARK    2  A    between atoms: C_2  and  N_3
REMARK    3  A    between atoms: C_2  and  C_16
REMARK    4  A    between atoms: C_4  and  C_6
REMARK    5  A    between atoms: C_19  and  O_20
REMARK    6  A    between atoms: O_20  and  C_21
REMARK                            x       y       z     vdW  Elec       q    Type
REMARK                         _______ _______ _______ _____ _____    ______ ____
ROOT
ATOM      1  C   UNL     1      48.135   9.141  15.033  0.00  0.00    +0.000 C 
ATOM      2  C   UNL     1      48.482   7.758  14.471  0.00  0.00    +0.000 C 
ENDROOT
BRANCH   2   3
ATOM      3  C   UNL     1      49.074   6.812  15.500  0.00  0.00    +0.000 A 
ATOM      4  C   UNL     1      50.433   6.925  15.831  0.00  0.00    +0.000 A 
ATOM      5  C   UNL     1      51.008   6.077  16.779  0.00  0.00    +0.000 A 
ATOM      6  C   UNL     1      50.217   5.149  17.462  0.00  0.00    +0.000 A 
ATOM      7  C   UNL     1      48.890   4.970  17.086  0.00  0.00    +0.000 A 
ATOM      8  C   UNL     1      48.327   5.785  16.102  0.00  0.00    +0.000 A 
BRANCH   6   9
ATOM      9  O   UNL     1      50.672   4.353  18.489  0.00  0.00    +0.000 OA
BRANCH   9  10
ATOM     10  C   UNL     1      51.458   3.262  18.188  0.00  0.00    +0.000 A 
ATOM     11  C   UNL     1      51.018   2.150  17.472  0.00  0.00    +0.000 A 
ATOM     12  C   UNL     1      51.874   1.074  17.345  0.00  0.00    +0.000 A 
ATOM     13  N   UNL     1      53.142   1.072  17.804  0.00  0.00    +0.000 NA
ATOM     14  C   UNL     1      53.571   2.198  18.415  0.00  0.00    +0.000 A 
ATOM     15  C   UNL     1      52.775   3.311  18.628  0.00  0.00    +0.000 A 
ENDBRANCH   9  10
ENDBRANCH   6   9
ENDBRANCH   2   3
BRANCH   2  16
ATOM     16  N   UNL     1      47.314   7.134  13.883  0.00  0.00    +0.000 N 
ATOM     17  C   UNL     1      47.095   7.101  12.530  0.00  0.00    +0.000 C 
ATOM     18  O   UNL     1      47.917   7.504  11.717  0.00  0.00    +0.000 OA
ATOM     19  H   UNL     1      46.552   6.922  14.518  0.00  0.00    +0.000 HD
BRANCH  17  20
ATOM     20  C   UNL     1      45.824   6.501  12.110  0.00  0.00    +0.000 A 
ATOM     21  C   UNL     1      44.852   7.289  11.512  0.00  0.00    +0.000 A 
ATOM     22  S   UNL     1      43.438   6.427  11.099  0.00  0.00    +0.000 S 
ATOM     23  C   UNL     1      44.062   4.983  11.750  0.00  0.00    +0.000 A 
ATOM     24  N   UNL     1      43.322   3.843  11.760  0.00  0.00    +0.000 NA
ATOM     25  C   UNL     1      43.905   2.834  12.318  0.00  0.00    +0.000 A 
ATOM     26  N   UNL     1      45.166   2.859  12.853  0.00  0.00    +0.000 N 
ATOM     27  C   UNL     1      45.973   3.969  12.811  0.00  0.00    +0.000 A 
ATOM     28  O   UNL     1      47.139   3.928  13.202  0.00  0.00    +0.000 OA
ATOM     29  C   UNL     1      45.346   5.148  12.238  0.00  0.00    +0.000 A 
ATOM     30  H   UNL     1      45.575   2.023  13.247  0.00  0.00    +0.000 HD
ENDBRANCH  17  20
ENDBRANCH   2  16
TORSDOF 5
ENDMDL
MODEL 7
REMARK VINA RESULT:    -6.993      4.280      6.029
REMARK INTER + INTRA:          -9.524
REMARK INTER:                  -8.506
REMARK INTRA:                  -1.018
REMARK UNBOUND:                -0.487
REMARK  Name = 
REMARK  6 active torsions:
REMARK  status: ('A' for Active; 'I' for Inactive)
REMARK    1  A    between atoms: C_1  and  C_2
REMARK    2  A    between atoms: C_2  and  N_3
REMARK    3  A    between atoms: C_2  and  C_16
REMARK    4  A    between atoms: C_4  and  C_6
REMARK    5  A    between atoms: C_19  and  O_20
REMARK    6  A    between atoms: O_20  and  C_21
REMARK                            x       y       z     vdW  Elec       q    Type
REMARK                         _______ _______ _______ _____ _____    ______ ____
ROOT
ATOM      1  C   UNL     1      44.522   4.345  13.237  0.00  0.00    +0.000 C 
ATOM      2  C   UNL     1      45.824   5.150  13.138  0.00  0.00    +0.000 C 
ENDROOT
BRANCH   2   3
ATOM      3  C   UNL     1      45.622   6.581  12.675  0.00  0.00    +0.000 A 
ATOM      4  C   UNL     1      44.631   6.858  11.721  0.00  0.00    +0.000 A 
ATOM      5  C   UNL     1      44.413   8.164  11.279  0.00  0.00    +0.000 A 
ATOM      6  C   UNL     1      45.137   9.222  11.835  0.00  0.00    +0.000 A 
ATOM      7  C   UNL     1      46.177   8.954  12.718  0.00  0.00    +0.000 A 
ATOM      8  C   UNL     1      46.428   7.641  13.123  0.00  0.00    +0.000 A 
BRANCH   6   9
ATOM      9  O   UNL     1      44.911  10.550  11.544  0.00  0.00    +0.000 OA
BRANCH   9  10
ATOM     10  C   UNL     1      43.747  10.901  10.895  0.00  0.00    +0.000 A 
ATOM     11  C   UNL     1      42.532  11.137  11.535  0.00  0.00    +0.000 A 
ATOM     12  C   UNL     1      41.415  11.363  10.753  0.00  0.00    +0.000 A 
ATOM     13  N   UNL     1      41.452  11.450   9.408  0.00  0.00    +0.000 NA
ATOM     14  C   UNL     1      42.661  11.307   8.821  0.00  0.00    +0.000 A 
ATOM     15  C   UNL     1      43.828  11.036   9.515  0.00  0.00    +0.000 A 
ENDBRANCH   9  10
ENDBRANCH   6   9
ENDBRANCH   2   3
BRANCH   2  16
ATOM     16  N   UNL     1      46.517   5.166  14.409  0.00  0.00    +0.000 N 
ATOM     17  C   UNL     1      47.213   4.084  14.886  0.00  0.00    +0.000 C 
ATOM     18  O   UNL     1      47.385   3.066  14.228  0.00  0.00    +0.000 OA
ATOM     19  H   UNL     1      46.281   5.925  15.039  0.00  0.00    +0.000 HD
BRANCH  17  20
ATOM     20  C   UNL     1      47.787   4.244  16.226  0.00  0.00    +0.000 A 
ATOM     21  C   UNL     1      47.435   3.365  17.240  0.00  0.00    +0.000 A 
ATOM     22  S   UNL     1      48.190   3.707  18.731  0.00  0.00    +0.000 S 
ATOM     23  C   UNL     1      48.977   5.070  18.081  0.00  0.00    +0.000 A 
ATOM     24  N   UNL     1      49.766   5.858  18.859  0.00  0.00    +0.000 NA
ATOM     25  C   UNL     1      50.270   6.878  18.245  0.00  0.00    +0.000 A 
ATOM     26  N   UNL     1      50.067   7.172  16.922  0.00  0.00    +0.000 N 
ATOM     27  C   UNL     1      49.330   6.371  16.085  0.00  0.00    +0.000 A 
ATOM     28  O   UNL     1      49.257   6.604  14.879  0.00  0.00    +0.000 OA
ATOM     29  C   UNL     1      48.699   5.237  16.737  0.00  0.00    +0.000 A 
ATOM     30  H   UNL     1      50.518   7.969  16.497  0.00  0.00    +0.000 HD
ENDBRANCH  17  20
ENDBRANCH   2  16
TORSDOF 5
ENDMDL
MODEL 8
REMARK VINA RESULT:    -6.907      4.297      5.411
REMARK INTER + INTRA:          -9.413
REMARK INTER:                  -8.307
REMARK INTRA:                  -1.105
REMARK UNBOUND:                -0.487
REMARK  Name = 
REMARK  6 active torsions:
REMARK  status: ('A' for Active; 'I' for Inactive)
REMARK    1  A    between atoms: C_1  and  C_2
REMARK    2  A    between atoms: C_2  and  N_3
REMARK    3  A    between atoms: C_2  and  C_16
REMARK    4  A    between atoms: C_4  and  C_6
REMARK    5  A    between atoms: C_19  and  O_20
REMARK    6  A    between atoms: O_20  and  C_21
REMARK                            x       y       z     vdW  Elec       q    Type
REMARK                         _______ _______ _______ _____ _____    ______ ____
ROOT
ATOM      1  C   UNL     1      44.745   9.980  12.105  0.00  0.00    +0.000 C 
ATOM      2  C   UNL     1      45.738   8.872  12.477  0.00  0.00    +0.000 C 
ENDROOT
BRANCH   2   3
ATOM      3  C   UNL     1      45.317   7.493  12.004  0.00  0.00    +0.000 A 
ATOM      4  C   UNL     1      44.051   7.325  11.424  0.00  0.00    +0.000 A 
ATOM      5  C   UNL     1      43.635   6.073  10.970  0.00  0.00    +0.000 A 
ATOM      6  C   UNL     1      44.507   4.982  11.028  0.00  0.00    +0.000 A 
ATOM      7  C   UNL     1      45.730   5.113  11.676  0.00  0.00    +0.000 A 
ATOM      8  C   UNL     1      46.126   6.356  12.174  0.00  0.00    +0.000 A 
BRANCH   6   9
ATOM      9  O   UNL     1      44.225   3.739  10.504  0.00  0.00    +0.000 OA
BRANCH   9  10
ATOM     10  C   UNL     1      44.939   3.302   9.409  0.00  0.00    +0.000 A 
ATOM     11  C   UNL     1      45.224   1.964   9.141  0.00  0.00    +0.000 A 
ATOM     12  C   UNL     1      46.051   1.674   8.072  0.00  0.00    +0.000 A 
ATOM     13  N   UNL     1      46.530   2.607   7.226  0.00  0.00    +0.000 NA
ATOM     14  C   UNL     1      46.164   3.887   7.458  0.00  0.00    +0.000 A 
ATOM     15  C   UNL     1      45.375   4.282   8.525  0.00  0.00    +0.000 A 
ENDBRANCH   9  10
ENDBRANCH   6   9
ENDBRANCH   2   3
BRANCH   2  16
ATOM     16  N   UNL     1      47.055   9.163  11.951  0.00  0.00    +0.000 N 
ATOM     17  C   UNL     1      48.044   9.740  12.707  0.00  0.00    +0.000 C 
ATOM     18  O   UNL     1      47.919   9.956  13.905  0.00  0.00    +0.000 OA
ATOM     19  H   UNL     1      47.151   9.135  10.941  0.00  0.00    +0.000 HD
BRANCH  17  20
ATOM     20  C   UNL     1      49.290  10.039  11.994  0.00  0.00    +0.000 A 
ATOM     21  C   UNL     1      49.619  11.353  11.696  0.00  0.00    +0.000 A 
ATOM     22  S   UNL     1      51.097  11.511  10.858  0.00  0.00    +0.000 S 
ATOM     23  C   UNL     1      51.322   9.824  10.825  0.00  0.00    +0.000 A 
ATOM     24  N   UNL     1      52.398   9.274  10.203  0.00  0.00    +0.000 NA
ATOM     25  C   UNL     1      52.422   7.982  10.223  0.00  0.00    +0.000 A 
ATOM     26  N   UNL     1      51.476   7.192  10.823  0.00  0.00    +0.000 N 
ATOM     27  C   UNL     1      50.407   7.705  11.515  0.00  0.00    +0.000 A 
ATOM     28  O   UNL     1      49.636   6.972  12.134  0.00  0.00    +0.000 OA
ATOM     29  C   UNL     1      50.305   9.153  11.480  0.00  0.00    +0.000 A 
ATOM     30  H   UNL     1      51.574   6.188  10.829  0.00  0.00    +0.000 HD
ENDBRANCH  17  20
ENDBRANCH   2  16
TORSDOF 5
ENDMDL
MODEL 9
REMARK VINA RESULT:    -6.770      3.132      4.870
REMARK INTER + INTRA:          -9.236
REMARK INTER:                  -8.775
REMARK INTRA:                  -0.461
REMARK UNBOUND:                -0.487
REMARK  Name = 
REMARK  6 active torsions:
REMARK  status: ('A' for Active; 'I' for Inactive)
REMARK    1  A    between atoms: C_1  and  C_2
REMARK    2  A    between atoms: C_2  and  N_3
REMARK    3  A    between atoms: C_2  and  C_16
REMARK    4  A    between atoms: C_4  and  C_6
REMARK    5  A    between atoms: C_19  and  O_20
REMARK    6  A    between atoms: O_20  and  C_21
REMARK                            x       y       z     vdW  Elec       q    Type
REMARK                         _______ _______ _______ _____ _____    ______ ____
ROOT
ATOM      1  C   UNL     1      49.679   9.182  13.779  0.00  0.00    +0.000 C 
ATOM      2  C   UNL     1      48.314   8.801  14.363  0.00  0.00    +0.000 C 
ENDROOT
BRANCH   2   3
ATOM      3  C   UNL     1      47.353   8.223  13.340  0.00  0.00    +0.000 A 
ATOM      4  C   UNL     1      47.779   7.164  12.523  0.00  0.00    +0.000 A 
ATOM      5  C   UNL     1      46.919   6.603  11.578  0.00  0.00    +0.000 A 
ATOM      6  C   UNL     1      45.597   7.046  11.483  0.00  0.00    +0.000 A 
ATOM      7  C   UNL     1      45.186   8.148  12.227  0.00  0.00    +0.000 A 
ATOM      8  C   UNL     1      46.063   8.741  13.137  0.00  0.00    +0.000 A 
BRANCH   6   9
ATOM      9  O   UNL     1      44.648   6.477  10.662  0.00  0.00    +0.000 OA
BRANCH   9  10
ATOM     10  C   UNL     1      44.176   5.218  10.963  0.00  0.00    +0.000 A 
ATOM     11  C   UNL     1      43.593   4.867  12.179  0.00  0.00    +0.000 A 
ATOM     12  C   UNL     1      43.273   3.540  12.392  0.00  0.00    +0.000 A 
ATOM     13  N   UNL     1      43.417   2.580  11.457  0.00  0.00    +0.000 NA
ATOM     14  C   UNL     1      43.901   2.966  10.256  0.00  0.00    +0.000 A 
ATOM     15  C   UNL     1      44.289   4.262   9.961  0.00  0.00    +0.000 A 
ENDBRANCH   9  10
ENDBRANCH   6   9
ENDBRANCH   2   3
BRANCH   2  16
ATOM     16  N   UNL     1      48.464   7.854  15.448  0.00  0.00    +0.000 N 
ATOM     17  C   UNL     1      49.565   7.047  15.579  0.00  0.00    +0.000 C 
ATOM     18  O   UNL     1      50.544   7.140  14.849  0.00  0.00    +0.000 OA
ATOM     19  H   UNL     1      47.626   7.646  15.980  0.00  0.00    +0.000 HD
BRANCH  17  20
ATOM     20  C   UNL     1      49.518   6.089  16.689  0.00  0.00    +0.000 A 
ATOM     21  C   UNL     1      50.434   6.186  17.726  0.00  0.00    +0.000 A 
ATOM     22  S   UNL     1      50.236   4.986  18.923  0.00  0.00    +0.000 S 
ATOM     23  C   UNL     1      48.948   4.270  18.069  0.00  0.00    +0.000 A 
ATOM     24  N   UNL     1      48.340   3.147  18.534  0.00  0.00    +0.000 NA
ATOM     25  C   UNL     1      47.405   2.691  17.768  0.00  0.00    +0.000 A 
ATOM     26  N   UNL     1      47.013   3.266  16.587  0.00  0.00    +0.000 N 
ATOM     27  C   UNL     1      47.556   4.434  16.110  0.00  0.00    +0.000 A 
ATOM     28  O   UNL     1      47.109   4.982  15.103  0.00  0.00    +0.000 OA
ATOM     29  C   UNL     1      48.649   4.961  16.909  0.00  0.00    +0.000 A 
ATOM     30  H   UNL     1      46.252   2.875  16.052  0.00  0.00    +0.000 HD
ENDBRANCH  17  20
ENDBRANCH   2  16
TORSDOF 5
ENDMDL
