MODEL 1
REMARK VINA RESULT:    -6.984      0.000      0.000
REMARK INTER + INTRA:         -11.158
REMARK INTER:                 -10.250
REMARK INTRA:                  -0.909
REMARK UNBOUND:                -0.909
REMARK  Name = 
REMARK  9 active torsions:
REMARK  status: ('A' for Active; 'I' for Inactive)
REMARK    1  A    between atoms: C_1  and  C_2
REMARK    2  A    between atoms: C_2  and  N_3
REMARK    3  A    between atoms: C_2  and  C_19
REMARK    4  A    between atoms: N_3  and  C_4
REMARK    5  A    between atoms: C_4  and  C_5
REMARK    6  A    between atoms: C_8  and  C_9
REMARK    7  A    between atoms: C_9  and  O_10
REMARK    8  A    between atoms: O_10  and  C_11
REMARK    9  A    between atoms: C_11  and  C_12
REMARK                            x       y       z     vdW  Elec       q    Type
REMARK                         _______ _______ _______ _____ _____    ______ ____
ROOT
ATOM      1  N   UNL     1      45.883   7.877  12.437  0.00  0.00    +0.000 NA
ATOM      2  H   UNL     1      46.598   7.406  13.004  0.00  0.00    +0.000 HD
ENDROOT
BRANCH   1   4
ATOM      3  C   UNL     1      44.896  10.077  11.902  0.00  0.00    +0.000 C 
ATOM      4  C   UNL     1      46.012   9.324  12.658  0.00  0.00    +0.000 C 
BRANCH   4   5
ATOM      5  C   UNL     1      47.382   9.832  12.176  0.00  0.00    +0.000 A 
ATOM      6  C   UNL     1      47.547  11.084  11.587  0.00  0.00    +0.000 A 
ATOM      7  S   UNL     1      49.076  11.313  10.860  0.00  0.00    +0.000 S 
ATOM      8  C   UNL     1      49.613   9.789  11.394  0.00  0.00    +0.000 A 
ATOM      9  N   UNL     1      50.842   9.302  11.046  0.00  0.00    +0.000 NA
ATOM     10  C   UNL     1      51.089   8.126  11.523  0.00  0.00    +0.000 A 
ATOM     11  N   UNL     1      50.258   7.428  12.357  0.00  0.00    +0.000 N 
ATOM     12  C   UNL     1      49.141   8.002  12.912  0.00  0.00    +0.000 A 
ATOM     13  O   UNL     1      48.693   7.615  13.989  0.00  0.00    +0.000 OA
ATOM     14  C   UNL     1      48.676   9.183  12.213  0.00  0.00    +0.000 A 
ATOM     15  H   UNL     1      50.601   6.602  12.831  0.00  0.00    +0.000 HD
ENDBRANCH   4   5
ENDBRANCH   1   4
BRANCH   1  16
ATOM     16  C   UNL     1      44.572   7.300  12.770  0.00  0.00    +0.000 C 
BRANCH  16  17
ATOM     17  C   UNL     1      44.638   5.760  12.963  0.00  0.00    +0.000 C 
ATOM     18  C   UNL     1      43.294   5.038  12.777  0.00  0.00    +0.000 C 
ATOM     19  C   UNL     1      42.833   4.998  11.322  0.00  0.00    +0.000 C 
ATOM     20  C   UNL     1      43.885   4.411  10.364  0.00  0.00    +0.000 C 
ATOM     21  C   UNL     1      45.268   5.042  10.574  0.00  0.00    +0.000 C 
ATOM     22  C   UNL     1      45.690   5.108  12.042  0.00  0.00    +0.000 C 
BRANCH  20  23
ATOM     23  C   UNL     1      43.966   2.878  10.451  0.00  0.00    +0.000 C 
BRANCH  23  24
ATOM     24  O   UNL     1      45.235   2.473   9.949  0.00  0.00    +0.000 OA
BRANCH  24  25
ATOM     25  C   UNL     1      45.132   1.650   8.798  0.00  0.00    +0.000 C 
BRANCH  25  26
ATOM     26  C   UNL     1      46.302   1.944   7.914  0.00  0.00    +0.000 C 
ATOM     27  C   UNL     1      47.149   0.921   7.321  0.00  0.00    +0.000 C 
ATOM     28  N   UNL     1      48.105   1.563   6.581  0.00  0.00    +0.000 NA
ATOM     29  C   UNL     1      47.828   2.821   6.750  0.00  0.00    +0.000 C 
ATOM     30  N   UNL     1      46.746   3.121   7.564  0.00  0.00    +0.000 NA
ENDBRANCH  25  26
ENDBRANCH  24  25
ENDBRANCH  23  24
ENDBRANCH  20  23
ENDBRANCH  16  17
ENDBRANCH   1  16
TORSDOF 8
ENDMDL
MODEL 2
REMARK VINA RESULT:    -6.789      4.610      5.751
REMARK INTER + INTRA:         -10.873
REMARK INTER:                 -10.164
REMARK INTRA:                  -0.709
REMARK UNBOUND:                -0.909
REMARK  Name = 
REMARK  9 active torsions:
REMARK  status: ('A' for Active; 'I' for Inactive)
REMARK    1  A    between atoms: C_1  and  C_2
REMARK    2  A    between atoms: C_2  and  N_3
REMARK    3  A    between atoms: C_2  and  C_19
REMARK    4  A    between atoms: N_3  and  C_4
REMARK    5  A    between atoms: C_4  and  C_5
REMARK    6  A    between atoms: C_8  and  C_9
REMARK    7  A    between atoms: C_9  and  O_10
REMARK    8  A    between atoms: O_10  and  C_11
REMARK    9  A    between atoms: C_11  and  C_12
REMARK                            x       y       z     vdW  Elec       q    Type
REMARK                         _______ _______ _______ _____ _____    ______ ____
ROOT
ATOM      1  N   UNL     1      48.317   5.865  15.478  0.00  0.00    +0.000 NA
ATOM      2  H   UNL     1      47.420   5.369  15.408  0.00  0.00    +0.000 HD
ENDROOT
BRANCH   1   4
ATOM      3  C   UNL     1      48.920   7.735  16.975  0.00  0.00    +0.000 C 
ATOM      4  C   UNL     1      48.511   6.249  16.883  0.00  0.00    +0.000 C 
BRANCH   4   5
ATOM      5  C   UNL     1      49.597   5.383  17.544  0.00  0.00    +0.000 A 
ATOM      6  C   UNL     1      50.582   5.923  18.368  0.00  0.00    +0.000 A 
ATOM      7  S   UNL     1      51.849   4.838  18.739  0.00  0.00    +0.000 S 
ATOM      8  C   UNL     1      51.078   3.574  17.901  0.00  0.00    +0.000 A 
ATOM      9  N   UNL     1      51.668   2.350  17.752  0.00  0.00    +0.000 NA
ATOM     10  C   UNL     1      50.956   1.508  17.078  0.00  0.00    +0.000 A 
ATOM     11  N   UNL     1      49.696   1.752  16.601  0.00  0.00    +0.000 N 
ATOM     12  C   UNL     1      48.994   2.879  16.953  0.00  0.00    +0.000 A 
ATOM     13  O   UNL     1      47.766   2.885  16.970  0.00  0.00    +0.000 OA
ATOM     14  C   UNL     1      49.823   3.955  17.457  0.00  0.00    +0.000 A 
ATOM     15  H   UNL     1      49.136   0.986  16.247  0.00  0.00    +0.000 HD
ENDBRANCH   4   5
ENDBRANCH   1   4
BRANCH   1  16
ATOM     16  C   UNL     1      48.311   6.975  14.514  0.00  0.00    +0.000 C 
BRANCH  16  17
ATOM     17  C   UNL     1      48.029   6.493  13.063  0.00  0.00    +0.000 C 
ATOM     18  C   UNL     1      47.180   5.215  12.973  0.00  0.00    +0.000 C 
ATOM     19  C   UNL     1      45.720   5.439  13.354  0.00  0.00    +0.000 C 
ATOM     20  C   UNL     1      45.050   6.576  12.562  0.00  0.00    +0.000 C 
ATOM     21  C   UNL     1      45.905   7.850  12.551  0.00  0.00    +0.000 C 
ATOM     22  C   UNL     1      47.372   7.594  12.207  0.00  0.00    +0.000 C 
BRANCH  20  23
ATOM     23  C   UNL     1      44.681   6.154  11.130  0.00  0.00    +0.000 C 
BRANCH  23  24
ATOM     24  O   UNL     1      44.520   4.740  11.114  0.00  0.00    +0.000 OA
BRANCH  24  25
ATOM     25  C   UNL     1      43.826   4.281   9.965  0.00  0.00    +0.000 C 
BRANCH  25  26
ATOM     26  C   UNL     1      44.830   3.702   9.019  0.00  0.00    +0.000 C 
ATOM     27  C   UNL     1      45.242   2.307   9.026  0.00  0.00    +0.000 C 
ATOM     28  N   UNL     1      46.164   2.150   8.027  0.00  0.00    +0.000 NA
ATOM     29  C   UNL     1      46.267   3.341   7.518  0.00  0.00    +0.000 C 
ATOM     30  N   UNL     1      45.488   4.336   8.088  0.00  0.00    +0.000 NA
ENDBRANCH  25  26
ENDBRANCH  24  25
ENDBRANCH  23  24
ENDBRANCH  20  23
ENDBRANCH  16  17
ENDBRANCH   1  16
TORSDOF 8
ENDMDL
MODEL 3
REMARK VINA RESULT:    -6.489      4.418      5.750
REMARK INTER + INTRA:         -10.432
REMARK INTER:                  -9.402
REMARK INTRA:                  -1.030
REMARK UNBOUND:                -0.909
REMARK  Name = 
REMARK  9 active torsions:
REMARK  status: ('A' for Active; 'I' for Inactive)
REMARK    1  A    between atoms: C_1  and  C_2
REMARK    2  A    between atoms: C_2  and  N_3
REMARK    3  A    between atoms: C_2  and  C_19
REMARK    4  A    between atoms: N_3  and  C_4
REMARK    5  A    between atoms: C_4  and  C_5
REMARK    6  A    between atoms: C_8  and  C_9
REMARK    7  A    between atoms: C_9  and  O_10
REMARK    8  A    between atoms: O_10  and  C_11
REMARK    9  A    between atoms: C_11  and  C_12
REMARK                            x       y       z     vdW  Elec       q    Type
REMARK                         _______ _______ _______ _____ _____    ______ ____
ROOT
ATOM      1  N   UNL     1      49.759   6.596  14.971  0.00  0.00    +0.000 NA
ATOM      2  H   UNL     1      49.553   5.626  15.239  0.00  0.00    +0.000 HD
ENDROOT
BRANCH   1   4
ATOM      3  C   UNL     1      51.771   6.603  16.403  0.00  0.00    +0.000 C 
ATOM      4  C   UNL     1      50.401   7.254  16.118  0.00  0.00    +0.000 C 
BRANCH   4   5
ATOM      5  C   UNL     1      49.519   7.149  17.375  0.00  0.00    +0.000 A 
ATOM      6  C   UNL     1      48.934   8.264  17.970  0.00  0.00    +0.000 A 
ATOM      7  S   UNL     1      48.259   7.956  19.509  0.00  0.00    +0.000 S 
ATOM      8  C   UNL     1      48.629   6.299  19.394  0.00  0.00    +0.000 A 
ATOM      9  N   UNL     1      48.387   5.439  20.429  0.00  0.00    +0.000 NA
ATOM     10  C   UNL     1      48.739   4.220  20.184  0.00  0.00    +0.000 A 
ATOM     11  N   UNL     1      49.243   3.774  18.992  0.00  0.00    +0.000 N 
ATOM     12  C   UNL     1      49.259   4.566  17.870  0.00  0.00    +0.000 A 
ATOM     13  O   UNL     1      49.219   4.078  16.744  0.00  0.00    +0.000 OA
ATOM     14  C   UNL     1      49.146   5.983  18.150  0.00  0.00    +0.000 A 
ATOM     15  H   UNL     1      49.319   2.779  18.821  0.00  0.00    +0.000 HD
ENDBRANCH   4   5
ENDBRANCH   1   4
BRANCH   1  16
ATOM     16  C   UNL     1      48.516   7.222  14.497  0.00  0.00    +0.000 C 
BRANCH  16  17
ATOM     17  C   UNL     1      48.163   6.800  13.043  0.00  0.00    +0.000 C 
ATOM     18  C   UNL     1      47.435   5.451  12.932  0.00  0.00    +0.000 C 
ATOM     19  C   UNL     1      45.995   5.505  13.438  0.00  0.00    +0.000 C 
ATOM     20  C   UNL     1      45.158   6.614  12.777  0.00  0.00    +0.000 C 
ATOM     21  C   UNL     1      45.884   7.965  12.786  0.00  0.00    +0.000 C 
ATOM     22  C   UNL     1      47.336   7.879  12.315  0.00  0.00    +0.000 C 
BRANCH  20  23
ATOM     23  C   UNL     1      44.714   6.243  11.352  0.00  0.00    +0.000 C 
BRANCH  23  24
ATOM     24  O   UNL     1      44.425   4.849  11.329  0.00  0.00    +0.000 OA
BRANCH  24  25
ATOM     25  C   UNL     1      43.696   4.460  10.175  0.00  0.00    +0.000 C 
BRANCH  25  26
ATOM     26  C   UNL     1      44.651   3.816   9.221  0.00  0.00    +0.000 C 
ATOM     27  C   UNL     1      45.035   2.414   9.278  0.00  0.00    +0.000 C 
ATOM     28  N   UNL     1      45.915   2.191   8.253  0.00  0.00    +0.000 NA
ATOM     29  C   UNL     1      46.022   3.355   7.685  0.00  0.00    +0.000 C 
ATOM     30  N   UNL     1      45.286   4.392   8.236  0.00  0.00    +0.000 NA
ENDBRANCH  25  26
ENDBRANCH  24  25
ENDBRANCH  23  24
ENDBRANCH  20  23
ENDBRANCH  16  17
ENDBRANCH   1  16
TORSDOF 8
ENDMDL
MODEL 4
REMARK VINA RESULT:    -6.339      1.856      2.339
REMARK INTER + INTRA:         -10.212
REMARK INTER:                  -9.133
REMARK INTRA:                  -1.079
REMARK UNBOUND:                -0.909
REMARK  Name = 
REMARK  9 active torsions:
REMARK  status: ('A' for Active; 'I' for Inactive)
REMARK    1  A    between atoms: C_1  and  C_2
REMARK    2  A    between atoms: C_2  and  N_3
REMARK    3  A    between atoms: C_2  and  C_19
REMARK    4  A    between atoms: N_3  and  C_4
REMARK    5  A    between atoms: C_4  and  C_5
REMARK    6  A    between atoms: C_8  and  C_9
REMARK    7  A    between atoms: C_9  and  O_10
REMARK    8  A    between atoms: O_10  and  C_11
REMARK    9  A    between atoms: C_11  and  C_12
REMARK                            x       y       z     vdW  Elec       q    Type
REMARK                         _______ _______ _______ _____ _____    ______ ____
ROOT
ATOM      1  N   UNL     1      46.779   7.603  12.538  0.00  0.00    +0.000 NA
ATOM      2  H   UNL     1      47.665   7.232  12.174  0.00  0.00    +0.000 HD
ENDROOT
BRANCH   1   4
ATOM      3  C   UNL     1      47.245  10.024  12.406  0.00  0.00    +0.000 C 
ATOM      4  C   UNL     1      47.084   8.800  13.333  0.00  0.00    +0.000 C 
BRANCH   4   5
ATOM      5  C   UNL     1      48.377   8.605  14.144  0.00  0.00    +0.000 A 
ATOM      6  C   UNL     1      48.403   8.679  15.535  0.00  0.00    +0.000 A 
ATOM      7  S   UNL     1      49.977   8.736  16.197  0.00  0.00    +0.000 S 
ATOM      8  C   UNL     1      50.685   8.558  14.660  0.00  0.00    +0.000 A 
ATOM      9  N   UNL     1      52.040   8.604  14.487  0.00  0.00    +0.000 NA
ATOM     10  C   UNL     1      52.411   8.466  13.257  0.00  0.00    +0.000 A 
ATOM     11  N   UNL     1      51.568   8.225  12.206  0.00  0.00    +0.000 N 
ATOM     12  C   UNL     1      50.241   7.930  12.395  0.00  0.00    +0.000 A 
ATOM     13  O   UNL     1      49.617   7.248  11.586  0.00  0.00    +0.000 OA
ATOM     14  C   UNL     1      49.726   8.338  13.686  0.00  0.00    +0.000 A 
ATOM     15  H   UNL     1      51.951   7.947  11.310  0.00  0.00    +0.000 HD
ENDBRANCH   4   5
ENDBRANCH   1   4
BRANCH   1  16
ATOM     16  C   UNL     1      46.084   6.525  13.258  0.00  0.00    +0.000 C 
BRANCH  16  17
ATOM     17  C   UNL     1      44.745   6.130  12.577  0.00  0.00    +0.000 C 
ATOM     18  C   UNL     1      44.722   6.336  11.054  0.00  0.00    +0.000 C 
ATOM     19  C   UNL     1      45.588   5.329  10.301  0.00  0.00    +0.000 C 
ATOM     20  C   UNL     1      45.257   3.864  10.642  0.00  0.00    +0.000 C 
ATOM     21  C   UNL     1      45.183   3.631  12.157  0.00  0.00    +0.000 C 
ATOM     22  C   UNL     1      44.344   4.675  12.893  0.00  0.00    +0.000 C 
BRANCH  20  23
ATOM     23  C   UNL     1      43.972   3.378   9.951  0.00  0.00    +0.000 C 
BRANCH  23  24
ATOM     24  O   UNL     1      44.341   2.729   8.739  0.00  0.00    +0.000 OA
BRANCH  24  25
ATOM     25  C   UNL     1      45.491   1.911   8.883  0.00  0.00    +0.000 C 
BRANCH  25  26
ATOM     26  C   UNL     1      46.343   2.093   7.668  0.00  0.00    +0.000 C 
ATOM     27  C   UNL     1      47.407   1.181   7.277  0.00  0.00    +0.000 C 
ATOM     28  N   UNL     1      47.957   1.668   6.123  0.00  0.00    +0.000 NA
ATOM     29  C   UNL     1      47.278   2.751   5.894  0.00  0.00    +0.000 C 
ATOM     30  N   UNL     1      46.285   3.073   6.808  0.00  0.00    +0.000 NA
ENDBRANCH  25  26
ENDBRANCH  24  25
ENDBRANCH  23  24
ENDBRANCH  20  23
ENDBRANCH  16  17
ENDBRANCH   1  16
TORSDOF 8
ENDMDL
MODEL 5
REMARK VINA RESULT:    -6.319      3.737      7.821
REMARK INTER + INTRA:         -10.183
REMARK INTER:                  -8.698
REMARK INTRA:                  -1.485
REMARK UNBOUND:                -0.909
REMARK  Name = 
REMARK  9 active torsions:
REMARK  status: ('A' for Active; 'I' for Inactive)
REMARK    1  A    between atoms: C_1  and  C_2
REMARK    2  A    between atoms: C_2  and  N_3
REMARK    3  A    between atoms: C_2  and  C_19
REMARK    4  A    between atoms: N_3  and  C_4
REMARK    5  A    between atoms: C_4  and  C_5
REMARK    6  A    between atoms: C_8  and  C_9
REMARK    7  A    between atoms: C_9  and  O_10
REMARK    8  A    between atoms: O_10  and  C_11
REMARK    9  A    between atoms: C_11  and  C_12
REMARK                            x       y       z     vdW  Elec       q    Type
REMARK                         _______ _______ _______ _____ _____    ______ ____
ROOT
ATOM      1  N   UNL     1      47.228   6.657  11.525  0.00  0.00    +0.000 NA
ATOM      2  H   UNL     1      47.500   6.150  10.674  0.00  0.00    +0.000 HD
ENDROOT
BRANCH   1   4
ATOM      3  C   UNL     1      45.538   8.224  12.413  0.00  0.00    +0.000 C 
ATOM      4  C   UNL     1      45.873   7.188  11.319  0.00  0.00    +0.000 C 
BRANCH   4   5
ATOM      5  C   UNL     1      44.830   6.057  11.356  0.00  0.00    +0.000 A 
ATOM      6  C   UNL     1      43.794   6.029  12.288  0.00  0.00    +0.000 A 
ATOM      7  S   UNL     1      42.948   4.545  12.341  0.00  0.00    +0.000 S 
ATOM      8  C   UNL     1      43.863   3.921  11.049  0.00  0.00    +0.000 A 
ATOM      9  N   UNL     1      43.706   2.632  10.619  0.00  0.00    +0.000 NA
ATOM     10  C   UNL     1      44.487   2.314   9.639  0.00  0.00    +0.000 A 
ATOM     11  N   UNL     1      45.353   3.171   9.015  0.00  0.00    +0.000 N 
ATOM     12  C   UNL     1      45.343   4.521   9.267  0.00  0.00    +0.000 A 
ATOM     13  O   UNL     1      45.709   5.331   8.420  0.00  0.00    +0.000 OA
ATOM     14  C   UNL     1      44.709   4.880  10.520  0.00  0.00    +0.000 A 
ATOM     15  H   UNL     1      45.790   2.897   8.143  0.00  0.00    +0.000 HD
ENDBRANCH   4   5
ENDBRANCH   1   4
BRANCH   1  16
ATOM     16  C   UNL     1      48.262   7.659  11.820  0.00  0.00    +0.000 C 
BRANCH  16  17
ATOM     17  C   UNL     1      49.331   7.126  12.814  0.00  0.00    +0.000 C 
ATOM     18  C   UNL     1      50.208   8.217  13.449  0.00  0.00    +0.000 C 
ATOM     19  C   UNL     1      49.457   9.072  14.466  0.00  0.00    +0.000 C 
ATOM     20  C   UNL     1      48.763   8.246  15.563  0.00  0.00    +0.000 C 
ATOM     21  C   UNL     1      47.943   7.089  14.979  0.00  0.00    +0.000 C 
ATOM     22  C   UNL     1      48.703   6.272  13.934  0.00  0.00    +0.000 C 
BRANCH  20  23
ATOM     23  C   UNL     1      49.751   7.734  16.624  0.00  0.00    +0.000 C 
BRANCH  23  24
ATOM     24  O   UNL     1      49.000   7.166  17.691  0.00  0.00    +0.000 OA
BRANCH  24  25
ATOM     25  C   UNL     1      49.532   5.929  18.139  0.00  0.00    +0.000 C 
BRANCH  25  26
ATOM     26  C   UNL     1      48.689   4.831  17.575  0.00  0.00    +0.000 C 
ATOM     27  C   UNL     1      47.272   4.667  17.859  0.00  0.00    +0.000 C 
ATOM     28  N   UNL     1      46.843   3.564  17.171  0.00  0.00    +0.000 NA
ATOM     29  C   UNL     1      47.916   3.145  16.570  0.00  0.00    +0.000 C 
ATOM     30  N   UNL     1      49.079   3.868  16.785  0.00  0.00    +0.000 NA
ENDBRANCH  25  26
ENDBRANCH  24  25
ENDBRANCH  23  24
ENDBRANCH  20  23
ENDBRANCH  16  17
ENDBRANCH   1  16
TORSDOF 8
ENDMDL
MODEL 6
REMARK VINA RESULT:    -5.964      4.477      6.797
REMARK INTER + INTRA:          -9.661
REMARK INTER:                  -8.485
REMARK INTRA:                  -1.177
REMARK UNBOUND:                -0.909
REMARK  Name = 
REMARK  9 active torsions:
REMARK  status: ('A' for Active; 'I' for Inactive)
REMARK    1  A    between atoms: C_1  and  C_2
REMARK    2  A    between atoms: C_2  and  N_3
REMARK    3  A    between atoms: C_2  and  C_19
REMARK    4  A    between atoms: N_3  and  C_4
REMARK    5  A    between atoms: C_4  and  C_5
REMARK    6  A    between atoms: C_8  and  C_9
REMARK    7  A    between atoms: C_9  and  O_10
REMARK    8  A    between atoms: O_10  and  C_11
REMARK    9  A    between atoms: C_11  and  C_12
REMARK                            x       y       z     vdW  Elec       q    Type
REMARK                         _______ _______ _______ _____ _____    ______ ____
ROOT
ATOM      1  N   UNL     1      51.394   7.194  15.195  0.00  0.00    +0.000 NA
ATOM      2  H   UNL     1      51.163   6.264  14.825  0.00  0.00    +0.000 HD
ENDROOT
BRANCH   1   4
ATOM      3  C   UNL     1      52.191   7.824  17.446  0.00  0.00    +0.000 C 
ATOM      4  C   UNL     1      51.038   7.214  16.620  0.00  0.00    +0.000 C 
BRANCH   4   5
ATOM      5  C   UNL     1      50.745   5.793  17.133  0.00  0.00    +0.000 A 
ATOM      6  C   UNL     1      51.751   4.849  17.326  0.00  0.00    +0.000 A 
ATOM      7  S   UNL     1      51.172   3.265  17.602  0.00  0.00    +0.000 S 
ATOM      8  C   UNL     1      49.556   3.798  17.579  0.00  0.00    +0.000 A 
ATOM      9  N   UNL     1      48.512   2.921  17.680  0.00  0.00    +0.000 NA
ATOM     10  C   UNL     1      47.352   3.488  17.632  0.00  0.00    +0.000 A 
ATOM     11  N   UNL     1      47.141   4.838  17.557  0.00  0.00    +0.000 N 
ATOM     12  C   UNL     1      48.165   5.741  17.706  0.00  0.00    +0.000 A 
ATOM     13  O   UNL     1      47.961   6.873  18.136  0.00  0.00    +0.000 OA
ATOM     14  C   UNL     1      49.482   5.177  17.484  0.00  0.00    +0.000 A 
ATOM     15  H   UNL     1      46.211   5.210  17.710  0.00  0.00    +0.000 HD
ENDBRANCH   4   5
ENDBRANCH   1   4
BRANCH   1  16
ATOM     16  C   UNL     1      50.728   8.206  14.362  0.00  0.00    +0.000 C 
BRANCH  16  17
ATOM     17  C   UNL     1      49.195   8.260  14.615  0.00  0.00    +0.000 C 
ATOM     18  C   UNL     1      48.469   9.394  13.874  0.00  0.00    +0.000 C 
ATOM     19  C   UNL     1      48.374   9.161  12.369  0.00  0.00    +0.000 C 
ATOM     20  C   UNL     1      47.750   7.803  12.000  0.00  0.00    +0.000 C 
ATOM     21  C   UNL     1      48.387   6.647  12.782  0.00  0.00    +0.000 C 
ATOM     22  C   UNL     1      48.508   6.921  14.281  0.00  0.00    +0.000 C 
BRANCH  20  23
ATOM     23  C   UNL     1      46.222   7.798  12.165  0.00  0.00    +0.000 C 
BRANCH  23  24
ATOM     24  O   UNL     1      45.799   6.448  12.325  0.00  0.00    +0.000 OA
BRANCH  24  25
ATOM     25  C   UNL     1      45.373   5.858  11.107  0.00  0.00    +0.000 C 
BRANCH  25  26
ATOM     26  C   UNL     1      44.603   4.620  11.437  0.00  0.00    +0.000 C 
ATOM     27  C   UNL     1      44.627   3.971  12.739  0.00  0.00    +0.000 C 
ATOM     28  N   UNL     1      43.806   2.878  12.665  0.00  0.00    +0.000 NA
ATOM     29  C   UNL     1      43.375   2.904  11.440  0.00  0.00    +0.000 C 
ATOM     30  N   UNL     1      43.834   3.935  10.634  0.00  0.00    +0.000 NA
ENDBRANCH  25  26
ENDBRANCH  24  25
ENDBRANCH  23  24
ENDBRANCH  20  23
ENDBRANCH  16  17
ENDBRANCH   1  16
TORSDOF 8
ENDMDL
MODEL 7
REMARK VINA RESULT:    -5.950      4.114      8.006
REMARK INTER + INTRA:          -9.641
REMARK INTER:                  -8.343
REMARK INTRA:                  -1.299
REMARK UNBOUND:                -0.909
REMARK  Name = 
REMARK  9 active torsions:
REMARK  status: ('A' for Active; 'I' for Inactive)
REMARK    1  A    between atoms: C_1  and  C_2
REMARK    2  A    between atoms: C_2  and  N_3
REMARK    3  A    between atoms: C_2  and  C_19
REMARK    4  A    between atoms: N_3  and  C_4
REMARK    5  A    between atoms: C_4  and  C_5
REMARK    6  A    between atoms: C_8  and  C_9
REMARK    7  A    between atoms: C_9  and  O_10
REMARK    8  A    between atoms: O_10  and  C_11
REMARK    9  A    between atoms: C_11  and  C_12
REMARK                            x       y       z     vdW  Elec       q    Type
REMARK                         _______ _______ _______ _____ _____    ______ ____
ROOT
ATOM      1  N   UNL     1      47.554   6.829  11.943  0.00  0.00    +0.000 NA
ATOM      2  H   UNL     1      48.311   6.589  11.292  0.00  0.00    +0.000 HD
ENDROOT
BRANCH   1   4
ATOM      3  C   UNL     1      45.274   7.776  12.013  0.00  0.00    +0.000 C 
ATOM      4  C   UNL     1      46.336   7.058  11.153  0.00  0.00    +0.000 C 
BRANCH   4   5
ATOM      5  C   UNL     1      45.757   5.728  10.639  0.00  0.00    +0.000 A 
ATOM      6  C   UNL     1      45.769   5.381   9.290  0.00  0.00    +0.000 A 
ATOM      7  S   UNL     1      44.811   4.017   8.916  0.00  0.00    +0.000 S 
ATOM      8  C   UNL     1      44.427   3.774  10.556  0.00  0.00    +0.000 A 
ATOM      9  N   UNL     1      43.559   2.794  10.949  0.00  0.00    +0.000 NA
ATOM     10  C   UNL     1      43.366   2.754  12.226  0.00  0.00    +0.000 A 
ATOM     11  N   UNL     1      44.003   3.549  13.141  0.00  0.00    +0.000 N 
ATOM     12  C   UNL     1      45.053   4.360  12.789  0.00  0.00    +0.000 A 
ATOM     13  O   UNL     1      45.922   4.668  13.601  0.00  0.00    +0.000 OA
ATOM     14  C   UNL     1      45.122   4.650  11.371  0.00  0.00    +0.000 A 
ATOM     15  H   UNL     1      43.936   3.331  14.128  0.00  0.00    +0.000 HD
ENDBRANCH   4   5
ENDBRANCH   1   4
BRANCH   1  16
ATOM     16  C   UNL     1      47.993   7.962  12.771  0.00  0.00    +0.000 C 
BRANCH  16  17
ATOM     17  C   UNL     1      47.744   7.716  14.285  0.00  0.00    +0.000 C 
ATOM     18  C   UNL     1      48.641   6.634  14.908  0.00  0.00    +0.000 C 
ATOM     19  C   UNL     1      50.095   7.074  15.055  0.00  0.00    +0.000 C 
ATOM     20  C   UNL     1      50.257   8.401  15.818  0.00  0.00    +0.000 C 
ATOM     21  C   UNL     1      49.315   9.489  15.286  0.00  0.00    +0.000 C 
ATOM     22  C   UNL     1      47.874   9.012  15.109  0.00  0.00    +0.000 C 
BRANCH  20  23
ATOM     23  C   UNL     1      50.087   8.227  17.337  0.00  0.00    +0.000 C 
BRANCH  23  24
ATOM     24  O   UNL     1      50.719   7.010  17.716  0.00  0.00    +0.000 OA
BRANCH  24  25
ATOM     25  C   UNL     1      49.940   6.248  18.625  0.00  0.00    +0.000 C 
BRANCH  25  26
ATOM     26  C   UNL     1      49.677   4.913  18.003  0.00  0.00    +0.000 C 
ATOM     27  C   UNL     1      50.721   4.014  17.536  0.00  0.00    +0.000 C 
ATOM     28  N   UNL     1      50.104   2.900  17.035  0.00  0.00    +0.000 NA
ATOM     29  C   UNL     1      48.840   3.154  17.194  0.00  0.00    +0.000 C 
ATOM     30  N   UNL     1      48.512   4.373  17.768  0.00  0.00    +0.000 NA
ENDBRANCH  25  26
ENDBRANCH  24  25
ENDBRANCH  23  24
ENDBRANCH  20  23
ENDBRANCH  16  17
ENDBRANCH   1  16
TORSDOF 8
ENDMDL
MODEL 8
REMARK VINA RESULT:    -5.866      4.566      5.798
REMARK INTER + INTRA:          -9.518
REMARK INTER:                  -8.998
REMARK INTRA:                  -0.520
REMARK UNBOUND:                -0.909
REMARK  Name = 
REMARK  9 active torsions:
REMARK  status: ('A' for Active; 'I' for Inactive)
REMARK    1  A    between atoms: C_1  and  C_2
REMARK    2  A    between atoms: C_2  and  N_3
REMARK    3  A    between atoms: C_2  and  C_19
REMARK    4  A    between atoms: N_3  and  C_4
REMARK    5  A    between atoms: C_4  and  C_5
REMARK    6  A    between atoms: C_8  and  C_9
REMARK    7  A    between atoms: C_9  and  O_10
REMARK    8  A    between atoms: O_10  and  C_11
REMARK    9  A    between atoms: C_11  and  C_12
REMARK                            x       y       z     vdW  Elec       q    Type
REMARK                         _______ _______ _______ _____ _____    ______ ____
ROOT
ATOM      1  N   UNL     1      49.261   6.531  14.778  0.00  0.00    +0.000 NA
ATOM      2  H   UNL     1      48.985   5.559  14.962  0.00  0.00    +0.000 HD
ENDROOT
BRANCH   1   4
ATOM      3  C   UNL     1      51.283   7.147  16.055  0.00  0.00    +0.000 C 
ATOM      4  C   UNL     1      49.740   7.110  16.041  0.00  0.00    +0.000 C 
BRANCH   4   5
ATOM      5  C   UNL     1      49.242   6.291  17.244  0.00  0.00    +0.000 A 
ATOM      6  C   UNL     1      49.062   4.910  17.183  0.00  0.00    +0.000 A 
ATOM      7  S   UNL     1      48.222   4.259  18.520  0.00  0.00    +0.000 S 
ATOM      8  C   UNL     1      48.158   5.779  19.283  0.00  0.00    +0.000 A 
ATOM      9  N   UNL     1      47.492   5.959  20.464  0.00  0.00    +0.000 NA
ATOM     10  C   UNL     1      47.530   7.175  20.900  0.00  0.00    +0.000 A 
ATOM     11  N   UNL     1      48.216   8.200  20.307  0.00  0.00    +0.000 N 
ATOM     12  C   UNL     1      49.086   7.984  19.268  0.00  0.00    +0.000 A 
ATOM     13  O   UNL     1      50.040   8.732  19.068  0.00  0.00    +0.000 OA
ATOM     14  C   UNL     1      48.875   6.728  18.576  0.00  0.00    +0.000 A 
ATOM     15  H   UNL     1      48.346   9.072  20.807  0.00  0.00    +0.000 HD
ENDBRANCH   4   5
ENDBRANCH   1   4
BRANCH   1  16
ATOM     16  C   UNL     1      48.126   7.227  14.154  0.00  0.00    +0.000 C 
BRANCH  16  17
ATOM     17  C   UNL     1      47.707   6.576  12.805  0.00  0.00    +0.000 C 
ATOM     18  C   UNL     1      47.041   5.198  12.945  0.00  0.00    +0.000 C 
ATOM     19  C   UNL     1      45.634   5.271  13.531  0.00  0.00    +0.000 C 
ATOM     20  C   UNL     1      44.705   6.234  12.770  0.00  0.00    +0.000 C 
ATOM     21  C   UNL     1      45.364   7.598  12.530  0.00  0.00    +0.000 C 
ATOM     22  C   UNL     1      46.787   7.499  11.981  0.00  0.00    +0.000 C 
BRANCH  20  23
ATOM     23  C   UNL     1      44.196   5.634  11.449  0.00  0.00    +0.000 C 
BRANCH  23  24
ATOM     24  O   UNL     1      44.616   4.275  11.389  0.00  0.00    +0.000 OA
BRANCH  24  25
ATOM     25  C   UNL     1      43.957   3.541  10.370  0.00  0.00    +0.000 C 
BRANCH  25  26
ATOM     26  C   UNL     1      44.903   3.393   9.221  0.00  0.00    +0.000 C 
ATOM     27  C   UNL     1      45.481   2.125   8.803  0.00  0.00    +0.000 C 
ATOM     28  N   UNL     1      46.288   2.380   7.728  0.00  0.00    +0.000 NA
ATOM     29  C   UNL     1      46.183   3.665   7.566  0.00  0.00    +0.000 C 
ATOM     30  N   UNL     1      45.361   4.344   8.453  0.00  0.00    +0.000 NA
ENDBRANCH  25  26
ENDBRANCH  24  25
ENDBRANCH  23  24
ENDBRANCH  20  23
ENDBRANCH  16  17
ENDBRANCH   1  16
TORSDOF 8
ENDMDL
MODEL 9
REMARK VINA RESULT:    -5.852      4.606      8.026
REMARK INTER + INTRA:          -9.497
REMARK INTER:                  -8.165
REMARK INTRA:                  -1.332
REMARK UNBOUND:                -0.909
REMARK  Name = 
REMARK  9 active torsions:
REMARK  status: ('A' for Active; 'I' for Inactive)
REMARK    1  A    between atoms: C_1  and  C_2
REMARK    2  A    between atoms: C_2  and  N_3
REMARK    3  A    between atoms: C_2  and  C_19
REMARK    4  A    between atoms: N_3  and  C_4
REMARK    5  A    between atoms: C_4  and  C_5
REMARK    6  A    between atoms: C_8  and  C_9
REMARK    7  A    between atoms: C_9  and  O_10
REMARK    8  A    between atoms: O_10  and  C_11
REMARK    9  A    between atoms: C_11  and  C_12
REMARK                            x       y       z     vdW  Elec       q    Type
REMARK                         _______ _______ _______ _____ _____    ______ ____
ROOT
ATOM      1  N   UNL     1      47.753   8.201  13.745  0.00  0.00    +0.000 NA
ATOM      2  H   UNL     1      46.854   8.039  14.216  0.00  0.00    +0.000 HD
ENDROOT
BRANCH   1   4
ATOM      3  C   UNL     1      48.336   7.507  11.447  0.00  0.00    +0.000 C 
ATOM      4  C   UNL     1      48.027   7.040  12.886  0.00  0.00    +0.000 C 
BRANCH   4   5
ATOM      5  C   UNL     1      46.824   6.082  12.859  0.00  0.00    +0.000 A 
ATOM      6  C   UNL     1      46.906   4.770  13.321  0.00  0.00    +0.000 A 
ATOM      7  S   UNL     1      45.553   3.806  12.917  0.00  0.00    +0.000 S 
ATOM      8  C   UNL     1      44.760   5.131  12.203  0.00  0.00    +0.000 A 
ATOM      9  N   UNL     1      43.555   4.988  11.573  0.00  0.00    +0.000 NA
ATOM     10  C   UNL     1      43.097   6.088  11.074  0.00  0.00    +0.000 A 
ATOM     11  N   UNL     1      43.692   7.314  11.199  0.00  0.00    +0.000 N 
ATOM     12  C   UNL     1      44.764   7.517  12.033  0.00  0.00    +0.000 A 
ATOM     13  O   UNL     1      44.982   8.616  12.537  0.00  0.00    +0.000 OA
ATOM     14  C   UNL     1      45.472   6.304  12.385  0.00  0.00    +0.000 A 
ATOM     15  H   UNL     1      43.180   8.150  10.941  0.00  0.00    +0.000 HD
ENDBRANCH   4   5
ENDBRANCH   1   4
BRANCH   1  16
ATOM     16  C   UNL     1      48.770   8.486  14.767  0.00  0.00    +0.000 C 
BRANCH  16  17
ATOM     17  C   UNL     1      49.579   7.219  15.161  0.00  0.00    +0.000 C 
ATOM     18  C   UNL     1      51.051   7.489  15.515  0.00  0.00    +0.000 C 
ATOM     19  C   UNL     1      51.222   8.210  16.849  0.00  0.00    +0.000 C 
ATOM     20  C   UNL     1      50.518   7.501  18.020  0.00  0.00    +0.000 C 
ATOM     21  C   UNL     1      49.068   7.132  17.680  0.00  0.00    +0.000 C 
ATOM     22  C   UNL     1      48.917   6.449  16.322  0.00  0.00    +0.000 C 
BRANCH  20  23
ATOM     23  C   UNL     1      51.294   6.268  18.510  0.00  0.00    +0.000 C 
BRANCH  23  24
ATOM     24  O   UNL     1      50.350   5.289  18.931  0.00  0.00    +0.000 OA
BRANCH  24  25
ATOM     25  C   UNL     1      50.855   3.966  18.842  0.00  0.00    +0.000 C 
BRANCH  25  26
ATOM     26  C   UNL     1      50.023   3.220  17.848  0.00  0.00    +0.000 C 
ATOM     27  C   UNL     1      50.542   2.183  16.970  0.00  0.00    +0.000 C 
ATOM     28  N   UNL     1      49.497   1.732  16.210  0.00  0.00    +0.000 NA
ATOM     29  C   UNL     1      48.494   2.453  16.613  0.00  0.00    +0.000 C 
ATOM     30  N   UNL     1      48.752   3.389  17.603  0.00  0.00    +0.000 NA
ENDBRANCH  25  26
ENDBRANCH  24  25
ENDBRANCH  23  24
ENDBRANCH  20  23
ENDBRANCH  16  17
ENDBRANCH   1  16
TORSDOF 8
ENDMDL
