MODEL 1
REMARK VINA RESULT:    -7.988      0.000      0.000
REMARK INTER + INTRA:         -11.431
REMARK INTER:                 -10.790
REMARK INTRA:                  -0.641
REMARK UNBOUND:                -0.641
REMARK  Name = 
REMARK  7 active torsions:
REMARK  status: ('A' for Active; 'I' for Inactive)
REMARK    1  A    between atoms: C_1  and  N_2
REMARK    2  A    between atoms: N_2  and  C_3
REMARK    3  A    between atoms: C_3  and  C_4
REMARK    4  A    between atoms: C_8  and  C_9
REMARK    5  A    between atoms: C_9  and  O_10
REMARK    6  A    between atoms: O_10  and  C_11
REMARK    7  A    between atoms: C_14  and  C_15
REMARK                            x       y       z     vdW  Elec       q    Type
REMARK                         _______ _______ _______ _____ _____    ______ ____
ROOT
ATOM      1  O   UNL     1      43.548   3.681  10.376  0.00  0.00    +0.000 OA
ENDROOT
BRANCH   1   2
ATOM      2  C   UNL     1      44.471   3.240   9.473  0.00  0.00    +0.000 A 
ATOM      3  C   UNL     1      44.884   1.924   9.297  0.00  0.00    +0.000 A 
ATOM      4  C   UNL     1      45.869   1.624   8.348  0.00  0.00    +0.000 A 
ATOM      5  C   UNL     1      46.433   2.638   7.562  0.00  0.00    +0.000 A 
ATOM      6  C   UNL     1      46.006   3.958   7.730  0.00  0.00    +0.000 A 
ATOM      7  C   UNL     1      45.034   4.253   8.689  0.00  0.00    +0.000 A 
BRANCH   5   8
ATOM      8  C   UNL     1      47.514   2.276   6.612  0.00  0.00    +0.000 C 
ATOM      9  N   UNL     1      47.553   2.930   5.414  0.00  0.00    +0.000 N 
ATOM     10  O   UNL     1      48.336   1.407   6.882  0.00  0.00    +0.000 OA
ATOM     11  H   UNL     1      46.832   3.556   5.088  0.00  0.00    +0.000 HD
ATOM     12  H   UNL     1      48.271   2.644   4.762  0.00  0.00    +0.000 HD
ENDBRANCH   5   8
ENDBRANCH   1   2
BRANCH   1  13
ATOM     13  C   UNL     1      43.698   3.264  11.737  0.00  0.00    +0.000 C 
BRANCH  13  18
ATOM     14  C   UNL     1      45.955   6.083  12.955  0.00  0.00    +0.000 A 
ATOM     15  C   UNL     1      46.933   5.319  13.596  0.00  0.00    +0.000 A 
ATOM     16  C   UNL     1      46.810   3.941  13.592  0.00  0.00    +0.000 A 
ATOM     17  N   UNL     1      45.789   3.274  13.012  0.00  0.00    +0.000 NA
ATOM     18  C   UNL     1      44.845   4.015  12.381  0.00  0.00    +0.000 A 
ATOM     19  C   UNL     1      44.887   5.410  12.354  0.00  0.00    +0.000 A 
BRANCH  14  20
ATOM     20  C   UNL     1      46.026   7.591  12.915  0.00  0.00    +0.000 C 
BRANCH  20  22
ATOM     21  C   UNL     1      44.940   9.612  12.196  0.00  0.00    +0.000 C 
ATOM     22  N   UNL     1      44.817   8.169  12.331  0.00  0.00    +0.000 NA
ATOM     23  H   UNL     1      44.657   7.760  11.413  0.00  0.00    +0.000 HD
ENDBRANCH  20  22
ENDBRANCH  14  20
ENDBRANCH  13  18
ENDBRANCH   1  13
TORSDOF 6
ENDMDL
MODEL 2
REMARK VINA RESULT:    -7.737      1.505      2.735
REMARK INTER + INTRA:         -11.091
REMARK INTER:                 -10.489
REMARK INTRA:                  -0.602
REMARK UNBOUND:                -0.641
REMARK  Name = 
REMARK  7 active torsions:
REMARK  status: ('A' for Active; 'I' for Inactive)
REMARK    1  A    between atoms: C_1  and  N_2
REMARK    2  A    between atoms: N_2  and  C_3
REMARK    3  A    between atoms: C_3  and  C_4
REMARK    4  A    between atoms: C_8  and  C_9
REMARK    5  A    between atoms: C_9  and  O_10
REMARK    6  A    between atoms: O_10  and  C_11
REMARK    7  A    between atoms: C_14  and  C_15
REMARK                            x       y       z     vdW  Elec       q    Type
REMARK                         _______ _______ _______ _____ _____    ______ ____
ROOT
ATOM      1  O   UNL     1      43.667   4.656   9.972  0.00  0.00    +0.000 OA
ENDROOT
BRANCH   1   2
ATOM      2  C   UNL     1      44.487   3.801   9.296  0.00  0.00    +0.000 A 
ATOM      3  C   UNL     1      44.518   2.417   9.425  0.00  0.00    +0.000 A 
ATOM      4  C   UNL     1      45.441   1.669   8.685  0.00  0.00    +0.000 A 
ATOM      5  C   UNL     1      46.327   2.302   7.802  0.00  0.00    +0.000 A 
ATOM      6  C   UNL     1      46.285   3.691   7.662  0.00  0.00    +0.000 A 
ATOM      7  C   UNL     1      45.371   4.434   8.414  0.00  0.00    +0.000 A 
BRANCH   5   8
ATOM      8  C   UNL     1      47.325   1.469   7.085  0.00  0.00    +0.000 C 
ATOM      9  N   UNL     1      48.429   2.094   6.580  0.00  0.00    +0.000 N 
ATOM     10  O   UNL     1      47.160   0.264   6.933  0.00  0.00    +0.000 OA
ATOM     11  H   UNL     1      48.552   3.095   6.562  0.00  0.00    +0.000 HD
ATOM     12  H   UNL     1      49.080   1.521   6.060  0.00  0.00    +0.000 HD
ENDBRANCH   5   8
ENDBRANCH   1   2
BRANCH   1  13
ATOM     13  C   UNL     1      43.546   4.480  11.387  0.00  0.00    +0.000 C 
BRANCH  13  18
ATOM     14  C   UNL     1      46.557   4.948  13.675  0.00  0.00    +0.000 A 
ATOM     15  C   UNL     1      46.929   6.237  13.288  0.00  0.00    +0.000 A 
ATOM     16  C   UNL     1      46.183   6.882  12.317  0.00  0.00    +0.000 A 
ATOM     17  N   UNL     1      45.112   6.338  11.701  0.00  0.00    +0.000 NA
ATOM     18  C   UNL     1      44.744   5.089  12.084  0.00  0.00    +0.000 A 
ATOM     19  C   UNL     1      45.455   4.366  13.044  0.00  0.00    +0.000 A 
BRANCH  14  20
ATOM     20  C   UNL     1      47.322   4.187  14.731  0.00  0.00    +0.000 C 
BRANCH  20  22
ATOM     21  C   UNL     1      47.164   3.771  17.094  0.00  0.00    +0.000 C 
ATOM     22  N   UNL     1      47.151   4.787  16.053  0.00  0.00    +0.000 NA
ATOM     23  H   UNL     1      47.905   5.449  16.224  0.00  0.00    +0.000 HD
ENDBRANCH  20  22
ENDBRANCH  14  20
ENDBRANCH  13  18
ENDBRANCH   1  13
TORSDOF 6
ENDMDL
MODEL 3
REMARK VINA RESULT:    -7.647      1.350      1.532
REMARK INTER + INTRA:         -10.970
REMARK INTER:                 -10.314
REMARK INTRA:                  -0.657
REMARK UNBOUND:                -0.641
REMARK  Name = 
REMARK  7 active torsions:
REMARK  status: ('A' for Active; 'I' for Inactive)
REMARK    1  A    between atoms: C_1  and  N_2
REMARK    2  A    between atoms: N_2  and  C_3
REMARK    3  A    between atoms: C_3  and  C_4
REMARK    4  A    between atoms: C_8  and  C_9
REMARK    5  A    between atoms: C_9  and  O_10
REMARK    6  A    between atoms: O_10  and  C_11
REMARK    7  A    between atoms: C_14  and  C_15
REMARK                            x       y       z     vdW  Elec       q    Type
REMARK                         _______ _______ _______ _____ _____    ______ ____
ROOT
ATOM      1  O   UNL     1      43.689   4.448  10.111  0.00  0.00    +0.000 OA
ENDROOT
BRANCH   1   2
ATOM      2  C   UNL     1      44.551   3.722   9.342  0.00  0.00    +0.000 A 
ATOM      3  C   UNL     1      44.713   2.342   9.369  0.00  0.00    +0.000 A 
ATOM      4  C   UNL     1      45.665   1.736   8.540  0.00  0.00    +0.000 A 
ATOM      5  C   UNL     1      46.448   2.507   7.672  0.00  0.00    +0.000 A 
ATOM      6  C   UNL     1      46.275   3.894   7.636  0.00  0.00    +0.000 A 
ATOM      7  C   UNL     1      45.334   4.494   8.475  0.00  0.00    +0.000 A 
BRANCH   5   8
ATOM      8  C   UNL     1      47.483   1.823   6.858  0.00  0.00    +0.000 C 
ATOM      9  N   UNL     1      48.536   2.569   6.411  0.00  0.00    +0.000 N 
ATOM     10  O   UNL     1      47.392   0.633   6.578  0.00  0.00    +0.000 OA
ATOM     11  H   UNL     1      48.596   3.572   6.500  0.00  0.00    +0.000 HD
ATOM     12  H   UNL     1      49.212   2.098   5.824  0.00  0.00    +0.000 HD
ENDBRANCH   5   8
ENDBRANCH   1   2
BRANCH   1  13
ATOM     13  C   UNL     1      43.613   4.130  11.504  0.00  0.00    +0.000 C 
BRANCH  13  18
ATOM     14  C   UNL     1      46.561   6.227  12.700  0.00  0.00    +0.000 A 
ATOM     15  C   UNL     1      47.188   5.280  13.513  0.00  0.00    +0.000 A 
ATOM     16  C   UNL     1      46.627   4.020  13.622  0.00  0.00    +0.000 A 
ATOM     17  N   UNL     1      45.492   3.641  12.997  0.00  0.00    +0.000 NA
ATOM     18  C   UNL     1      44.889   4.557  12.199  0.00  0.00    +0.000 A 
ATOM     19  C   UNL     1      45.383   5.854  12.049  0.00  0.00    +0.000 A 
BRANCH  14  20
ATOM     20  C   UNL     1      47.120   7.620  12.529  0.00  0.00    +0.000 C 
BRANCH  20  22
ATOM     21  C   UNL     1      49.325   7.730  11.578  0.00  0.00    +0.000 C 
ATOM     22  N   UNL     1      48.555   7.659  12.809  0.00  0.00    +0.000 NA
ATOM     23  H   UNL     1      48.765   8.474  13.381  0.00  0.00    +0.000 HD
ENDBRANCH  20  22
ENDBRANCH  14  20
ENDBRANCH  13  18
ENDBRANCH   1  13
TORSDOF 6
ENDMDL
MODEL 4
REMARK VINA RESULT:    -6.449      2.540      6.316
REMARK INTER + INTRA:          -9.352
REMARK INTER:                  -8.730
REMARK INTRA:                  -0.621
REMARK UNBOUND:                -0.641
REMARK  Name = 
REMARK  7 active torsions:
REMARK  status: ('A' for Active; 'I' for Inactive)
REMARK    1  A    between atoms: C_1  and  N_2
REMARK    2  A    between atoms: N_2  and  C_3
REMARK    3  A    between atoms: C_3  and  C_4
REMARK    4  A    between atoms: C_8  and  C_9
REMARK    5  A    between atoms: C_9  and  O_10
REMARK    6  A    between atoms: O_10  and  C_11
REMARK    7  A    between atoms: C_14  and  C_15
REMARK                            x       y       z     vdW  Elec       q    Type
REMARK                         _______ _______ _______ _____ _____    ______ ____
ROOT
ATOM      1  O   UNL     1      43.750   5.132  12.154  0.00  0.00    +0.000 OA
ENDROOT
BRANCH   1   2
ATOM      2  C   UNL     1      44.957   5.672  12.493  0.00  0.00    +0.000 A 
ATOM      3  C   UNL     1      45.390   6.962  12.207  0.00  0.00    +0.000 A 
ATOM      4  C   UNL     1      46.673   7.367  12.591  0.00  0.00    +0.000 A 
ATOM      5  C   UNL     1      47.523   6.489  13.276  0.00  0.00    +0.000 A 
ATOM      6  C   UNL     1      47.082   5.197  13.576  0.00  0.00    +0.000 A 
ATOM      7  C   UNL     1      45.805   4.793  13.176  0.00  0.00    +0.000 A 
BRANCH   5   8
ATOM      8  C   UNL     1      48.894   6.948  13.609  0.00  0.00    +0.000 C 
ATOM      9  N   UNL     1      49.784   7.090  12.583  0.00  0.00    +0.000 N 
ATOM     10  O   UNL     1      49.227   7.177  14.766  0.00  0.00    +0.000 OA
ATOM     11  H   UNL     1      49.605   6.793  11.635  0.00  0.00    +0.000 HD
ATOM     12  H   UNL     1      50.725   7.365  12.830  0.00  0.00    +0.000 HD
ENDBRANCH   5   8
ENDBRANCH   1   2
BRANCH   1  13
ATOM     13  C   UNL     1      43.352   5.205  10.782  0.00  0.00    +0.000 C 
BRANCH  13  18
ATOM     14  C   UNL     1      45.704   3.547   8.284  0.00  0.00    +0.000 A 
ATOM     15  C   UNL     1      45.423   2.210   8.573  0.00  0.00    +0.000 A 
ATOM     16  C   UNL     1      44.488   1.922   9.551  0.00  0.00    +0.000 A 
ATOM     17  N   UNL     1      43.827   2.858  10.264  0.00  0.00    +0.000 NA
ATOM     18  C   UNL     1      44.091   4.158   9.977  0.00  0.00    +0.000 A 
ATOM     19  C   UNL     1      45.033   4.530   9.016  0.00  0.00    +0.000 A 
BRANCH  14  20
ATOM     20  C   UNL     1      46.708   3.936   7.226  0.00  0.00    +0.000 C 
BRANCH  20  22
ATOM     21  C   UNL     1      47.907   2.216   6.048  0.00  0.00    +0.000 C 
ATOM     22  N   UNL     1      46.686   3.005   6.098  0.00  0.00    +0.000 NA
ATOM     23  H   UNL     1      45.889   2.379   6.193  0.00  0.00    +0.000 HD
ENDBRANCH  20  22
ENDBRANCH  14  20
ENDBRANCH  13  18
ENDBRANCH   1  13
TORSDOF 6
ENDMDL
MODEL 5
REMARK VINA RESULT:    -5.864      3.951      7.759
REMARK INTER + INTRA:          -8.561
REMARK INTER:                  -8.076
REMARK INTRA:                  -0.485
REMARK UNBOUND:                -0.641
REMARK  Name = 
REMARK  7 active torsions:
REMARK  status: ('A' for Active; 'I' for Inactive)
REMARK    1  A    between atoms: C_1  and  N_2
REMARK    2  A    between atoms: N_2  and  C_3
REMARK    3  A    between atoms: C_3  and  C_4
REMARK    4  A    between atoms: C_8  and  C_9
REMARK    5  A    between atoms: C_9  and  O_10
REMARK    6  A    between atoms: O_10  and  C_11
REMARK    7  A    between atoms: C_14  and  C_15
REMARK                            x       y       z     vdW  Elec       q    Type
REMARK                         _______ _______ _______ _____ _____    ______ ____
ROOT
ATOM      1  O   UNL     1      47.592   5.676  13.449  0.00  0.00    +0.000 OA
ENDROOT
BRANCH   1   2
ATOM      2  C   UNL     1      47.811   5.484  14.782  0.00  0.00    +0.000 A 
ATOM      3  C   UNL     1      48.601   6.275  15.608  0.00  0.00    +0.000 A 
ATOM      4  C   UNL     1      48.759   5.935  16.956  0.00  0.00    +0.000 A 
ATOM      5  C   UNL     1      48.114   4.809  17.487  0.00  0.00    +0.000 A 
ATOM      6  C   UNL     1      47.309   4.022  16.660  0.00  0.00    +0.000 A 
ATOM      7  C   UNL     1      47.167   4.359  15.311  0.00  0.00    +0.000 A 
BRANCH   5   8
ATOM      8  C   UNL     1      48.361   4.458  18.908  0.00  0.00    +0.000 C 
ATOM      9  N   UNL     1      48.391   3.134  19.240  0.00  0.00    +0.000 N 
ATOM     10  O   UNL     1      48.517   5.324  19.761  0.00  0.00    +0.000 OA
ATOM     11  H   UNL     1      48.142   2.388  18.608  0.00  0.00    +0.000 HD
ATOM     12  H   UNL     1      48.520   2.912  20.218  0.00  0.00    +0.000 HD
ENDBRANCH   5   8
ENDBRANCH   1   2
BRANCH   1  13
ATOM     13  C   UNL     1      46.586   6.619  13.071  0.00  0.00    +0.000 C 
BRANCH  13  18
ATOM     14  C   UNL     1      44.392   4.648  10.657  0.00  0.00    +0.000 A 
ATOM     15  C   UNL     1      43.235   4.559  11.434  0.00  0.00    +0.000 A 
ATOM     16  C   UNL     1      43.229   5.145  12.688  0.00  0.00    +0.000 A 
ATOM     17  N   UNL     1      44.283   5.797  13.223  0.00  0.00    +0.000 NA
ATOM     18  C   UNL     1      45.403   5.893  12.464  0.00  0.00    +0.000 A 
ATOM     19  C   UNL     1      45.495   5.314  11.197  0.00  0.00    +0.000 A 
BRANCH  14  20
ATOM     20  C   UNL     1      44.469   4.037   9.278  0.00  0.00    +0.000 C 
BRANCH  20  22
ATOM     21  C   UNL     1      46.180   3.855   7.599  0.00  0.00    +0.000 C 
ATOM     22  N   UNL     1      45.401   4.768   8.420  0.00  0.00    +0.000 NA
ATOM     23  H   UNL     1      44.879   5.398   7.815  0.00  0.00    +0.000 HD
ENDBRANCH  20  22
ENDBRANCH  14  20
ENDBRANCH  13  18
ENDBRANCH   1  13
TORSDOF 6
ENDMDL
MODEL 6
REMARK VINA RESULT:    -5.807      3.654      7.004
REMARK INTER + INTRA:          -8.484
REMARK INTER:                  -7.999
REMARK INTRA:                  -0.486
REMARK UNBOUND:                -0.641
REMARK  Name = 
REMARK  7 active torsions:
REMARK  status: ('A' for Active; 'I' for Inactive)
REMARK    1  A    between atoms: C_1  and  N_2
REMARK    2  A    between atoms: N_2  and  C_3
REMARK    3  A    between atoms: C_3  and  C_4
REMARK    4  A    between atoms: C_8  and  C_9
REMARK    5  A    between atoms: C_9  and  O_10
REMARK    6  A    between atoms: O_10  and  C_11
REMARK    7  A    between atoms: C_14  and  C_15
REMARK                            x       y       z     vdW  Elec       q    Type
REMARK                         _______ _______ _______ _____ _____    ______ ____
ROOT
ATOM      1  O   UNL     1      46.296   5.854  12.231  0.00  0.00    +0.000 OA
ENDROOT
BRANCH   1   2
ATOM      2  C   UNL     1      47.460   6.537  12.433  0.00  0.00    +0.000 A 
ATOM      3  C   UNL     1      48.116   7.336  11.504  0.00  0.00    +0.000 A 
ATOM      4  C   UNL     1      49.326   7.951  11.845  0.00  0.00    +0.000 A 
ATOM      5  C   UNL     1      49.877   7.781  13.122  0.00  0.00    +0.000 A 
ATOM      6  C   UNL     1      49.210   6.989  14.060  0.00  0.00    +0.000 A 
ATOM      7  C   UNL     1      48.010   6.365  13.709  0.00  0.00    +0.000 A 
BRANCH   5   8
ATOM      8  C   UNL     1      51.191   8.407  13.414  0.00  0.00    +0.000 C 
ATOM      9  N   UNL     1      51.921   7.898  14.450  0.00  0.00    +0.000 N 
ATOM     10  O   UNL     1      51.603   9.359  12.761  0.00  0.00    +0.000 OA
ATOM     11  H   UNL     1      51.576   7.206  15.098  0.00  0.00    +0.000 HD
ATOM     12  H   UNL     1      52.795   8.361  14.662  0.00  0.00    +0.000 HD
ENDBRANCH   5   8
ENDBRANCH   1   2
BRANCH   1  13
ATOM     13  C   UNL     1      45.518   6.195  11.081  0.00  0.00    +0.000 C 
BRANCH  13  18
ATOM     14  C   UNL     1      45.464   3.621   8.271  0.00  0.00    +0.000 A 
ATOM     15  C   UNL     1      44.668   2.648   8.880  0.00  0.00    +0.000 A 
ATOM     16  C   UNL     1      44.190   2.883  10.157  0.00  0.00    +0.000 A 
ATOM     17  N   UNL     1      44.454   3.998  10.870  0.00  0.00    +0.000 NA
ATOM     18  C   UNL     1      45.219   4.948  10.275  0.00  0.00    +0.000 A 
ATOM     19  C   UNL     1      45.752   4.780   8.996  0.00  0.00    +0.000 A 
BRANCH  14  20
ATOM     20  C   UNL     1      46.015   3.435   6.877  0.00  0.00    +0.000 C 
BRANCH  20  22
ATOM     21  C   UNL     1      47.914   1.961   6.840  0.00  0.00    +0.000 C 
ATOM     22  N   UNL     1      47.475   3.347   6.886  0.00  0.00    +0.000 NA
ATOM     23  H   UNL     1      47.848   3.842   6.080  0.00  0.00    +0.000 HD
ENDBRANCH  20  22
ENDBRANCH  14  20
ENDBRANCH  13  18
ENDBRANCH   1  13
TORSDOF 6
ENDMDL
MODEL 7
REMARK VINA RESULT:    -5.782      4.624      7.334
REMARK INTER + INTRA:          -8.451
REMARK INTER:                  -8.098
REMARK INTRA:                  -0.352
REMARK UNBOUND:                -0.641
REMARK  Name = 
REMARK  7 active torsions:
REMARK  status: ('A' for Active; 'I' for Inactive)
REMARK    1  A    between atoms: C_1  and  N_2
REMARK    2  A    between atoms: N_2  and  C_3
REMARK    3  A    between atoms: C_3  and  C_4
REMARK    4  A    between atoms: C_8  and  C_9
REMARK    5  A    between atoms: C_9  and  O_10
REMARK    6  A    between atoms: O_10  and  C_11
REMARK    7  A    between atoms: C_14  and  C_15
REMARK                            x       y       z     vdW  Elec       q    Type
REMARK                         _______ _______ _______ _____ _____    ______ ____
ROOT
ATOM      1  O   UNL     1      47.536   3.156  14.699  0.00  0.00    +0.000 OA
ENDROOT
BRANCH   1   2
ATOM      2  C   UNL     1      46.748   3.892  13.863  0.00  0.00    +0.000 A 
ATOM      3  C   UNL     1      46.646   5.278  13.838  0.00  0.00    +0.000 A 
ATOM      4  C   UNL     1      45.766   5.896  12.942  0.00  0.00    +0.000 A 
ATOM      5  C   UNL     1      44.996   5.130  12.057  0.00  0.00    +0.000 A 
ATOM      6  C   UNL     1      45.110   3.737  12.072  0.00  0.00    +0.000 A 
ATOM      7  C   UNL     1      45.978   3.125  12.979  0.00  0.00    +0.000 A 
BRANCH   5   8
ATOM      8  C   UNL     1      44.035   5.830  11.168  0.00  0.00    +0.000 C 
ATOM      9  N   UNL     1      44.211   7.170  10.974  0.00  0.00    +0.000 N 
ATOM     10  O   UNL     1      43.105   5.234  10.638  0.00  0.00    +0.000 OA
ATOM     11  H   UNL     1      44.875   7.733  11.483  0.00  0.00    +0.000 HD
ATOM     12  H   UNL     1      43.525   7.641  10.398  0.00  0.00    +0.000 HD
ENDBRANCH   5   8
ENDBRANCH   1   2
BRANCH   1  13
ATOM     13  C   UNL     1      47.474   3.447  16.098  0.00  0.00    +0.000 C 
BRANCH  13  18
ATOM     14  C   UNL     1      50.872   2.302  17.386  0.00  0.00    +0.000 A 
ATOM     15  C   UNL     1      51.412   3.547  17.718  0.00  0.00    +0.000 A 
ATOM     16  C   UNL     1      50.646   4.680  17.513  0.00  0.00    +0.000 A 
ATOM     17  N   UNL     1      49.399   4.667  16.996  0.00  0.00    +0.000 NA
ATOM     18  C   UNL     1      48.870   3.457  16.683  0.00  0.00    +0.000 A 
ATOM     19  C   UNL     1      49.585   2.269  16.844  0.00  0.00    +0.000 A 
BRANCH  14  20
ATOM     20  C   UNL     1      51.649   1.023  17.587  0.00  0.00    +0.000 C 
BRANCH  20  22
ATOM     21  C   UNL     1      54.052   1.078  17.624  0.00  0.00    +0.000 C 
ATOM     22  N   UNL     1      52.838   1.241  18.409  0.00  0.00    +0.000 NA
ATOM     23  H   UNL     1      52.814   2.183  18.794  0.00  0.00    +0.000 HD
ENDBRANCH  20  22
ENDBRANCH  14  20
ENDBRANCH  13  18
ENDBRANCH   1  13
TORSDOF 6
ENDMDL
MODEL 8
REMARK VINA RESULT:    -5.725      4.450      8.048
REMARK INTER + INTRA:          -8.374
REMARK INTER:                  -8.020
REMARK INTRA:                  -0.355
REMARK UNBOUND:                -0.641
REMARK  Name = 
REMARK  7 active torsions:
REMARK  status: ('A' for Active; 'I' for Inactive)
REMARK    1  A    between atoms: C_1  and  N_2
REMARK    2  A    between atoms: N_2  and  C_3
REMARK    3  A    between atoms: C_3  and  C_4
REMARK    4  A    between atoms: C_8  and  C_9
REMARK    5  A    between atoms: C_9  and  O_10
REMARK    6  A    between atoms: O_10  and  C_11
REMARK    7  A    between atoms: C_14  and  C_15
REMARK                            x       y       z     vdW  Elec       q    Type
REMARK                         _______ _______ _______ _____ _____    ______ ____
ROOT
ATOM      1  O   UNL     1      46.430   4.054  15.110  0.00  0.00    +0.000 OA
ENDROOT
BRANCH   1   2
ATOM      2  C   UNL     1      47.486   4.042  15.974  0.00  0.00    +0.000 A 
ATOM      3  C   UNL     1      47.957   2.942  16.681  0.00  0.00    +0.000 A 
ATOM      4  C   UNL     1      49.036   3.089  17.561  0.00  0.00    +0.000 A 
ATOM      5  C   UNL     1      49.656   4.335  17.725  0.00  0.00    +0.000 A 
ATOM      6  C   UNL     1      49.191   5.437  17.003  0.00  0.00    +0.000 A 
ATOM      7  C   UNL     1      48.105   5.287  16.138  0.00  0.00    +0.000 A 
BRANCH   5   8
ATOM      8  C   UNL     1      50.758   4.450  18.714  0.00  0.00    +0.000 C 
ATOM      9  N   UNL     1      50.441   4.325  20.036  0.00  0.00    +0.000 N 
ATOM     10  O   UNL     1      51.911   4.668  18.361  0.00  0.00    +0.000 OA
ATOM     11  H   UNL     1      49.497   4.275  20.388  0.00  0.00    +0.000 HD
ATOM     12  H   UNL     1      51.195   4.446  20.699  0.00  0.00    +0.000 HD
ENDBRANCH   5   8
ENDBRANCH   1   2
BRANCH   1  13
ATOM     13  C   UNL     1      46.609   4.709  13.851  0.00  0.00    +0.000 C 
BRANCH  13  18
ATOM     14  C   UNL     1      44.207   3.757  11.050  0.00  0.00    +0.000 A 
ATOM     15  C   UNL     1      43.037   4.318  11.564  0.00  0.00    +0.000 A 
ATOM     16  C   UNL     1      43.092   4.975  12.781  0.00  0.00    +0.000 A 
ATOM     17  N   UNL     1      44.214   5.104  13.520  0.00  0.00    +0.000 NA
ATOM     18  C   UNL     1      45.354   4.568  13.016  0.00  0.00    +0.000 A 
ATOM     19  C   UNL     1      45.377   3.875  11.804  0.00  0.00    +0.000 A 
BRANCH  14  20
ATOM     20  C   UNL     1      44.223   3.030   9.726  0.00  0.00    +0.000 C 
BRANCH  20  22
ATOM     21  C   UNL     1      45.858   1.809   8.454  0.00  0.00    +0.000 C 
ATOM     22  N   UNL     1      45.177   1.922   9.735  0.00  0.00    +0.000 NA
ATOM     23  H   UNL     1      45.867   2.077  10.467  0.00  0.00    +0.000 HD
ENDBRANCH  20  22
ENDBRANCH  14  20
ENDBRANCH  13  18
ENDBRANCH   1  13
TORSDOF 6
ENDMDL
MODEL 9
REMARK VINA RESULT:    -5.725      4.217      6.286
REMARK INTER + INTRA:          -8.374
REMARK INTER:                  -7.894
REMARK INTRA:                  -0.479
REMARK UNBOUND:                -0.641
REMARK  Name = 
REMARK  7 active torsions:
REMARK  status: ('A' for Active; 'I' for Inactive)
REMARK    1  A    between atoms: C_1  and  N_2
REMARK    2  A    between atoms: N_2  and  C_3
REMARK    3  A    between atoms: C_3  and  C_4
REMARK    4  A    between atoms: C_8  and  C_9
REMARK    5  A    between atoms: C_9  and  O_10
REMARK    6  A    between atoms: O_10  and  C_11
REMARK    7  A    between atoms: C_14  and  C_15
REMARK                            x       y       z     vdW  Elec       q    Type
REMARK                         _______ _______ _______ _____ _____    ______ ____
ROOT
ATOM      1  O   UNL     1      48.439   5.948  13.162  0.00  0.00    +0.000 OA
ENDROOT
BRANCH   1   2
ATOM      2  C   UNL     1      47.128   5.701  12.877  0.00  0.00    +0.000 A 
ATOM      3  C   UNL     1      46.305   4.786  13.523  0.00  0.00    +0.000 A 
ATOM      4  C   UNL     1      44.982   4.617  13.098  0.00  0.00    +0.000 A 
ATOM      5  C   UNL     1      44.474   5.373  12.033  0.00  0.00    +0.000 A 
ATOM      6  C   UNL     1      45.298   6.302  11.393  0.00  0.00    +0.000 A 
ATOM      7  C   UNL     1      46.621   6.456  11.812  0.00  0.00    +0.000 A 
BRANCH   5   8
ATOM      8  C   UNL     1      43.083   5.114  11.583  0.00  0.00    +0.000 C 
ATOM      9  N   UNL     1      42.198   6.153  11.623  0.00  0.00    +0.000 N 
ATOM     10  O   UNL     1      42.732   4.002  11.203  0.00  0.00    +0.000 OA
ATOM     11  H   UNL     1      42.396   7.048  12.044  0.00  0.00    +0.000 HD
ATOM     12  H   UNL     1      41.245   5.950  11.351  0.00  0.00    +0.000 HD
ENDBRANCH   5   8
ENDBRANCH   1   2
BRANCH   1  13
ATOM     13  C   UNL     1      48.737   7.075  13.991  0.00  0.00    +0.000 C 
BRANCH  13  18
ATOM     14  C   UNL     1      48.848   5.600  17.503  0.00  0.00    +0.000 A 
ATOM     15  C   UNL     1      50.215   5.731  17.754  0.00  0.00    +0.000 A 
ATOM     16  C   UNL     1      51.020   6.293  16.778  0.00  0.00    +0.000 A 
ATOM     17  N   UNL     1      50.569   6.719  15.579  0.00  0.00    +0.000 NA
ATOM     18  C   UNL     1      49.239   6.601  15.340  0.00  0.00    +0.000 A 
ATOM     19  C   UNL     1      48.364   6.030  16.266  0.00  0.00    +0.000 A 
BRANCH  14  20
ATOM     20  C   UNL     1      47.909   5.001  18.524  0.00  0.00    +0.000 C 
BRANCH  20  22
ATOM     21  C   UNL     1      47.519   2.856  17.510  0.00  0.00    +0.000 C 
ATOM     22  N   UNL     1      46.922   4.125  17.894  0.00  0.00    +0.000 NA
ATOM     23  H   UNL     1      46.159   3.952  18.545  0.00  0.00    +0.000 HD
ENDBRANCH  20  22
ENDBRANCH  14  20
ENDBRANCH  13  18
ENDBRANCH   1  13
TORSDOF 6
ENDMDL
