MODEL 1
REMARK VINA RESULT:    -8.117      0.000      0.000
REMARK INTER + INTRA:         -10.629
REMARK INTER:                 -10.015
REMARK INTRA:                  -0.614
REMARK UNBOUND:                -0.614
REMARK  Name = 
REMARK  6 active torsions:
REMARK  status: ('A' for Active; 'I' for Inactive)
REMARK    1  A    between atoms: C_1  and  C_2
REMARK    2  A    between atoms: C_2  and  C_3
REMARK    3  A    between atoms: C_2  and  C_4
REMARK    4  A    between atoms: C_2  and  C_15
REMARK    5  A    between atoms: C_5  and  C_6
REMARK    6  A    between atoms: C_10  and  C_11
REMARK                            x       y       z     vdW  Elec       q    Type
REMARK                         _______ _______ _______ _____ _____    ______ ____
ROOT
ATOM      1  C   UNL     1      45.208   3.985  12.411  0.00  0.00    +0.000 C 
ATOM      2  C   UNL     1      45.849   5.123  12.732  0.00  0.00    +0.000 C 
ENDROOT
BRANCH   2   3
ATOM      3  C   UNL     1      46.771   5.213  13.875  0.00  0.00    +0.000 A 
ATOM      4  C   UNL     1      47.743   6.210  13.943  0.00  0.00    +0.000 A 
ATOM      5  N   UNL     1      48.617   6.326  14.975  0.00  0.00    +0.000 NA
ATOM      6  C   UNL     1      48.481   5.396  15.955  0.00  0.00    +0.000 A 
ATOM      7  C   UNL     1      47.516   4.404  15.900  0.00  0.00    +0.000 A 
ATOM      8  N   UNL     1      46.640   4.287  14.862  0.00  0.00    +0.000 NA
BRANCH   7   9
ATOM      9  C   UNL     1      47.412   3.410  17.005  0.00  0.00    +0.000 C 
ATOM     10  N   UNL     1      48.597   3.013  17.573  0.00  0.00    +0.000 N 
ATOM     11  O   UNL     1      46.338   2.971  17.388  0.00  0.00    +0.000 OA
ATOM     12  H   UNL     1      49.477   3.383  17.240  0.00  0.00    +0.000 HD
ATOM     13  H   UNL     1      48.576   2.339  18.327  0.00  0.00    +0.000 HD
ENDBRANCH   7   9
ENDBRANCH   2   3
BRANCH   1  15
ATOM     14  C   UNL     1      43.278   2.615  11.727  0.00  0.00    +0.000 C 
ATOM     15  C   UNL     1      44.235   3.737  11.264  0.00  0.00    +0.000 C 
ATOM     16  C   UNL     1      43.389   5.026  11.101  0.00  0.00    +0.000 C 
BRANCH  15  17
ATOM     17  C   UNL     1      44.922   3.418   9.922  0.00  0.00    +0.000 A 
ATOM     18  C   UNL     1      45.359   4.425   9.036  0.00  0.00    +0.000 A 
ATOM     19  C   UNL     1      46.019   4.116   7.842  0.00  0.00    +0.000 A 
ATOM     20  C   UNL     1      46.256   2.789   7.501  0.00  0.00    +0.000 A 
ATOM     21  C   UNL     1      45.823   1.784   8.355  0.00  0.00    +0.000 A 
ATOM     22  F   UNL     1      46.048   0.504   8.030  0.00  0.00    +0.000 F 
ATOM     23  C   UNL     1      45.163   2.083   9.545  0.00  0.00    +0.000 A 
ENDBRANCH  15  17
ENDBRANCH   1  15
TORSDOF 4
ENDMDL
MODEL 2
REMARK VINA RESULT:    -6.943      2.057      2.871
REMARK INTER + INTRA:          -9.180
REMARK INTER:                  -8.654
REMARK INTRA:                  -0.526
REMARK UNBOUND:                -0.614
REMARK  Name = 
REMARK  6 active torsions:
REMARK  status: ('A' for Active; 'I' for Inactive)
REMARK    1  A    between atoms: C_1  and  C_2
REMARK    2  A    between atoms: C_2  and  C_3
REMARK    3  A    between atoms: C_2  and  C_4
REMARK    4  A    between atoms: C_2  and  C_15
REMARK    5  A    between atoms: C_5  and  C_6
REMARK    6  A    between atoms: C_10  and  C_11
REMARK                            x       y       z     vdW  Elec       q    Type
REMARK                         _______ _______ _______ _____ _____    ______ ____
ROOT
ATOM      1  C   UNL     1      45.603   4.245  11.252  0.00  0.00    +0.000 C 
ATOM      2  C   UNL     1      45.468   4.201  12.589  0.00  0.00    +0.000 C 
ENDROOT
BRANCH   2   3
ATOM      3  C   UNL     1      46.439   4.826  13.501  0.00  0.00    +0.000 A 
ATOM      4  C   UNL     1      47.022   4.103  14.541  0.00  0.00    +0.000 A 
ATOM      5  N   UNL     1      47.916   4.642  15.408  0.00  0.00    +0.000 NA
ATOM      6  C   UNL     1      48.216   5.949  15.193  0.00  0.00    +0.000 A 
ATOM      7  C   UNL     1      47.647   6.674  14.160  0.00  0.00    +0.000 A 
ATOM      8  N   UNL     1      46.747   6.133  13.291  0.00  0.00    +0.000 NA
BRANCH   7   9
ATOM      9  C   UNL     1      48.013   8.105  13.971  0.00  0.00    +0.000 C 
ATOM     10  N   UNL     1      47.161   9.027  14.526  0.00  0.00    +0.000 N 
ATOM     11  O   UNL     1      49.015   8.446  13.357  0.00  0.00    +0.000 OA
ATOM     12  H   UNL     1      46.335   8.726  15.026  0.00  0.00    +0.000 HD
ATOM     13  H   UNL     1      47.369  10.010  14.423  0.00  0.00    +0.000 HD
ENDBRANCH   7   9
ENDBRANCH   2   3
BRANCH   1  15
ATOM     14  C   UNL     1      43.819   2.585  10.887  0.00  0.00    +0.000 C 
ATOM     15  C   UNL     1      44.686   3.655  10.186  0.00  0.00    +0.000 C 
ATOM     16  C   UNL     1      43.736   4.791   9.728  0.00  0.00    +0.000 C 
BRANCH  15  17
ATOM     17  C   UNL     1      45.434   3.104   8.956  0.00  0.00    +0.000 A 
ATOM     18  C   UNL     1      45.893   3.935   7.913  0.00  0.00    +0.000 A 
ATOM     19  C   UNL     1      46.608   3.421   6.825  0.00  0.00    +0.000 A 
ATOM     20  C   UNL     1      46.878   2.060   6.752  0.00  0.00    +0.000 A 
ATOM     21  C   UNL     1      46.425   1.225   7.763  0.00  0.00    +0.000 A 
ATOM     22  F   UNL     1      46.683  -0.088   7.696  0.00  0.00    +0.000 F 
ATOM     23  C   UNL     1      45.711   1.727   8.849  0.00  0.00    +0.000 A 
ENDBRANCH  15  17
ENDBRANCH   1  15
TORSDOF 4
ENDMDL
MODEL 3
REMARK VINA RESULT:    -6.732      1.743      2.269
REMARK INTER + INTRA:          -8.920
REMARK INTER:                  -8.350
REMARK INTRA:                  -0.570
REMARK UNBOUND:                -0.614
REMARK  Name = 
REMARK  6 active torsions:
REMARK  status: ('A' for Active; 'I' for Inactive)
REMARK    1  A    between atoms: C_1  and  C_2
REMARK    2  A    between atoms: C_2  and  C_3
REMARK    3  A    between atoms: C_2  and  C_4
REMARK    4  A    between atoms: C_2  and  C_15
REMARK    5  A    between atoms: C_5  and  C_6
REMARK    6  A    between atoms: C_10  and  C_11
REMARK                            x       y       z     vdW  Elec       q    Type
REMARK                         _______ _______ _______ _____ _____    ______ ____
ROOT
ATOM      1  C   UNL     1      45.352   4.945  12.731  0.00  0.00    +0.000 C 
ATOM      2  C   UNL     1      46.611   5.249  13.092  0.00  0.00    +0.000 C 
ENDROOT
BRANCH   2   3
ATOM      3  C   UNL     1      47.211   4.762  14.345  0.00  0.00    +0.000 A 
ATOM      4  C   UNL     1      47.247   3.402  14.648  0.00  0.00    +0.000 A 
ATOM      5  N   UNL     1      47.785   2.911  15.794  0.00  0.00    +0.000 NA
ATOM      6  C   UNL     1      48.297   3.844  16.638  0.00  0.00    +0.000 A 
ATOM      7  C   UNL     1      48.270   5.197  16.345  0.00  0.00    +0.000 A 
ATOM      8  N   UNL     1      47.728   5.689  15.195  0.00  0.00    +0.000 NA
BRANCH   7   9
ATOM      9  C   UNL     1      48.847   6.175  17.309  0.00  0.00    +0.000 C 
ATOM     10  N   UNL     1      47.947   6.876  18.071  0.00  0.00    +0.000 N 
ATOM     11  O   UNL     1      50.053   6.348  17.419  0.00  0.00    +0.000 OA
ATOM     12  H   UNL     1      46.953   6.723  17.963  0.00  0.00    +0.000 HD
ATOM     13  H   UNL     1      48.292   7.551  18.739  0.00  0.00    +0.000 HD
ENDBRANCH   7   9
ENDBRANCH   2   3
BRANCH   1  15
ATOM     14  C   UNL     1      43.094   5.323  11.820  0.00  0.00    +0.000 C 
ATOM     15  C   UNL     1      44.599   5.366  11.473  0.00  0.00    +0.000 C 
ATOM     16  C   UNL     1      44.968   6.848  11.200  0.00  0.00    +0.000 C 
BRANCH  15  17
ATOM     17  C   UNL     1      44.949   4.528  10.228  0.00  0.00    +0.000 A 
ATOM     18  C   UNL     1      45.692   5.047   9.148  0.00  0.00    +0.000 A 
ATOM     19  C   UNL     1      46.035   4.257   8.045  0.00  0.00    +0.000 A 
ATOM     20  C   UNL     1      45.639   2.926   7.994  0.00  0.00    +0.000 A 
ATOM     21  C   UNL     1      44.897   2.400   9.042  0.00  0.00    +0.000 A 
ATOM     22  F   UNL     1      44.513   1.117   8.996  0.00  0.00    +0.000 F 
ATOM     23  C   UNL     1      44.549   3.180  10.143  0.00  0.00    +0.000 A 
ENDBRANCH  15  17
ENDBRANCH   1  15
TORSDOF 4
ENDMDL
MODEL 4
REMARK VINA RESULT:    -6.663      3.598      4.423
REMARK INTER + INTRA:          -8.836
REMARK INTER:                  -8.235
REMARK INTRA:                  -0.601
REMARK UNBOUND:                -0.614
REMARK  Name = 
REMARK  6 active torsions:
REMARK  status: ('A' for Active; 'I' for Inactive)
REMARK    1  A    between atoms: C_1  and  C_2
REMARK    2  A    between atoms: C_2  and  C_3
REMARK    3  A    between atoms: C_2  and  C_4
REMARK    4  A    between atoms: C_2  and  C_15
REMARK    5  A    between atoms: C_5  and  C_6
REMARK    6  A    between atoms: C_10  and  C_11
REMARK                            x       y       z     vdW  Elec       q    Type
REMARK                         _______ _______ _______ _____ _____    ______ ____
ROOT
ATOM      1  C   UNL     1      45.298   5.466  11.244  0.00  0.00    +0.000 C 
ATOM      2  C   UNL     1      46.392   5.747  11.974  0.00  0.00    +0.000 C 
ENDROOT
BRANCH   2   3
ATOM      3  C   UNL     1      46.813   7.126  12.265  0.00  0.00    +0.000 A 
ATOM      4  C   UNL     1      48.062   7.398  12.822  0.00  0.00    +0.000 A 
ATOM      5  N   UNL     1      48.488   8.653  13.112  0.00  0.00    +0.000 NA
ATOM      6  C   UNL     1      47.608   9.645  12.818  0.00  0.00    +0.000 A 
ATOM      7  C   UNL     1      46.366   9.387  12.260  0.00  0.00    +0.000 A 
ATOM      8  N   UNL     1      45.939   8.125  11.971  0.00  0.00    +0.000 NA
BRANCH   7   9
ATOM      9  C   UNL     1      45.442  10.514  11.958  0.00  0.00    +0.000 C 
ATOM     10  N   UNL     1      44.147  10.367  12.390  0.00  0.00    +0.000 N 
ATOM     11  O   UNL     1      45.809  11.516  11.360  0.00  0.00    +0.000 OA
ATOM     12  H   UNL     1      43.860   9.530  12.879  0.00  0.00    +0.000 HD
ATOM     13  H   UNL     1      43.484  11.107  12.207  0.00  0.00    +0.000 HD
ENDBRANCH   7   9
ENDBRANCH   2   3
BRANCH   1  15
ATOM     14  C   UNL     1      44.982   3.167  12.071  0.00  0.00    +0.000 C 
ATOM     15  C   UNL     1      44.735   4.101  10.865  0.00  0.00    +0.000 C 
ATOM     16  C   UNL     1      43.201   4.268  10.718  0.00  0.00    +0.000 C 
BRANCH  15  17
ATOM     17  C   UNL     1      45.304   3.537   9.548  0.00  0.00    +0.000 A 
ATOM     18  C   UNL     1      45.753   4.366   8.499  0.00  0.00    +0.000 A 
ATOM     19  C   UNL     1      46.306   3.835   7.329  0.00  0.00    +0.000 A 
ATOM     20  C   UNL     1      46.417   2.459   7.175  0.00  0.00    +0.000 A 
ATOM     21  C   UNL     1      45.970   1.626   8.191  0.00  0.00    +0.000 A 
ATOM     22  F   UNL     1      46.076   0.298   8.046  0.00  0.00    +0.000 F 
ATOM     23  C   UNL     1      45.417   2.146   9.359  0.00  0.00    +0.000 A 
ENDBRANCH  15  17
ENDBRANCH   1  15
TORSDOF 4
ENDMDL
MODEL 5
REMARK VINA RESULT:    -6.497      3.744      7.588
REMARK INTER + INTRA:          -8.631
REMARK INTER:                  -8.069
REMARK INTRA:                  -0.562
REMARK UNBOUND:                -0.614
REMARK  Name = 
REMARK  6 active torsions:
REMARK  status: ('A' for Active; 'I' for Inactive)
REMARK    1  A    between atoms: C_1  and  C_2
REMARK    2  A    between atoms: C_2  and  C_3
REMARK    3  A    between atoms: C_2  and  C_4
REMARK    4  A    between atoms: C_2  and  C_15
REMARK    5  A    between atoms: C_5  and  C_6
REMARK    6  A    between atoms: C_10  and  C_11
REMARK                            x       y       z     vdW  Elec       q    Type
REMARK                         _______ _______ _______ _____ _____    ______ ____
ROOT
ATOM      1  C   UNL     1      47.527   4.662  16.034  0.00  0.00    +0.000 C 
ATOM      2  C   UNL     1      47.012   3.969  15.004  0.00  0.00    +0.000 C 
ENDROOT
BRANCH   2   3
ATOM      3  C   UNL     1      46.613   4.611  13.741  0.00  0.00    +0.000 A 
ATOM      4  C   UNL     1      47.329   5.688  13.220  0.00  0.00    +0.000 A 
ATOM      5  N   UNL     1      46.992   6.313  12.064  0.00  0.00    +0.000 NA
ATOM      6  C   UNL     1      45.898   5.812  11.433  0.00  0.00    +0.000 A 
ATOM      7  C   UNL     1      45.182   4.740  11.939  0.00  0.00    +0.000 A 
ATOM      8  N   UNL     1      45.520   4.115  13.102  0.00  0.00    +0.000 NA
BRANCH   7   9
ATOM      9  C   UNL     1      43.990   4.233  11.205  0.00  0.00    +0.000 C 
ATOM     10  N   UNL     1      43.652   4.911  10.060  0.00  0.00    +0.000 N 
ATOM     11  O   UNL     1      43.345   3.270  11.594  0.00  0.00    +0.000 OA
ATOM     12  H   UNL     1      44.194   5.709   9.756  0.00  0.00    +0.000 HD
ATOM     13  H   UNL     1      42.850   4.603   9.528  0.00  0.00    +0.000 HD
ENDBRANCH   7   9
ENDBRANCH   2   3
BRANCH   1  15
ATOM     14  C   UNL     1      47.596   5.213  18.434  0.00  0.00    +0.000 C 
ATOM     15  C   UNL     1      47.988   4.142  17.391  0.00  0.00    +0.000 C 
ATOM     16  C   UNL     1      47.152   2.873  17.696  0.00  0.00    +0.000 C 
BRANCH  15  17
ATOM     17  C   UNL     1      49.485   3.778  17.443  0.00  0.00    +0.000 A 
ATOM     18  C   UNL     1      50.495   4.745  17.624  0.00  0.00    +0.000 A 
ATOM     19  C   UNL     1      51.845   4.390  17.712  0.00  0.00    +0.000 A 
ATOM     20  C   UNL     1      52.220   3.055  17.615  0.00  0.00    +0.000 A 
ATOM     21  C   UNL     1      51.241   2.090  17.425  0.00  0.00    +0.000 A 
ATOM     22  F   UNL     1      51.598   0.802  17.330  0.00  0.00    +0.000 F 
ATOM     23  C   UNL     1      49.895   2.435  17.335  0.00  0.00    +0.000 A 
ENDBRANCH  15  17
ENDBRANCH   1  15
TORSDOF 4
ENDMDL
MODEL 6
REMARK VINA RESULT:    -6.489      1.959      3.247
REMARK INTER + INTRA:          -8.620
REMARK INTER:                  -8.025
REMARK INTRA:                  -0.595
REMARK UNBOUND:                -0.614
REMARK  Name = 
REMARK  6 active torsions:
REMARK  status: ('A' for Active; 'I' for Inactive)
REMARK    1  A    between atoms: C_1  and  C_2
REMARK    2  A    between atoms: C_2  and  C_3
REMARK    3  A    between atoms: C_2  and  C_4
REMARK    4  A    between atoms: C_2  and  C_15
REMARK    5  A    between atoms: C_5  and  C_6
REMARK    6  A    between atoms: C_10  and  C_11
REMARK                            x       y       z     vdW  Elec       q    Type
REMARK                         _______ _______ _______ _____ _____    ______ ____
ROOT
ATOM      1  C   UNL     1      47.123   6.195  13.681  0.00  0.00    +0.000 C 
ATOM      2  C   UNL     1      48.235   6.650  14.285  0.00  0.00    +0.000 C 
ENDROOT
BRANCH   2   3
ATOM      3  C   UNL     1      48.705   6.121  15.576  0.00  0.00    +0.000 A 
ATOM      4  C   UNL     1      49.810   6.672  16.223  0.00  0.00    +0.000 A 
ATOM      5  N   UNL     1      50.280   6.211  17.409  0.00  0.00    +0.000 NA
ATOM      6  C   UNL     1      49.593   5.164  17.937  0.00  0.00    +0.000 A 
ATOM      7  C   UNL     1      48.491   4.613  17.304  0.00  0.00    +0.000 A 
ATOM      8  N   UNL     1      48.021   5.075  16.112  0.00  0.00    +0.000 NA
BRANCH   7   9
ATOM      9  C   UNL     1      47.776   3.466  17.930  0.00  0.00    +0.000 C 
ATOM     10  N   UNL     1      48.307   2.990  19.103  0.00  0.00    +0.000 N 
ATOM     11  O   UNL     1      46.773   2.974  17.433  0.00  0.00    +0.000 OA
ATOM     12  H   UNL     1      49.140   3.407  19.497  0.00  0.00    +0.000 HD
ATOM     13  H   UNL     1      47.855   2.212  19.564  0.00  0.00    +0.000 HD
ENDBRANCH   7   9
ENDBRANCH   2   3
BRANCH   1  15
ATOM     14  C   UNL     1      45.677   7.900  12.645  0.00  0.00    +0.000 C 
ATOM     15  C   UNL     1      46.517   6.636  12.354  0.00  0.00    +0.000 C 
ATOM     16  C   UNL     1      47.694   7.064  11.439  0.00  0.00    +0.000 C 
BRANCH  15  17
ATOM     17  C   UNL     1      45.708   5.533  11.642  0.00  0.00    +0.000 A 
ATOM     18  C   UNL     1      45.566   5.482  10.240  0.00  0.00    +0.000 A 
ATOM     19  C   UNL     1      44.863   4.449   9.610  0.00  0.00    +0.000 A 
ATOM     20  C   UNL     1      44.279   3.442  10.369  0.00  0.00    +0.000 A 
ATOM     21  C   UNL     1      44.399   3.481  11.751  0.00  0.00    +0.000 A 
ATOM     22  F   UNL     1      43.837   2.512  12.486  0.00  0.00    +0.000 F 
ATOM     23  C   UNL     1      45.095   4.507  12.386  0.00  0.00    +0.000 A 
ENDBRANCH  15  17
ENDBRANCH   1  15
TORSDOF 4
ENDMDL
MODEL 7
REMARK VINA RESULT:    -6.224      3.378      4.003
REMARK INTER + INTRA:          -8.293
REMARK INTER:                  -7.714
REMARK INTRA:                  -0.580
REMARK UNBOUND:                -0.614
REMARK  Name = 
REMARK  6 active torsions:
REMARK  status: ('A' for Active; 'I' for Inactive)
REMARK    1  A    between atoms: C_1  and  C_2
REMARK    2  A    between atoms: C_2  and  C_3
REMARK    3  A    between atoms: C_2  and  C_4
REMARK    4  A    between atoms: C_2  and  C_15
REMARK    5  A    between atoms: C_5  and  C_6
REMARK    6  A    between atoms: C_10  and  C_11
REMARK                            x       y       z     vdW  Elec       q    Type
REMARK                         _______ _______ _______ _____ _____    ______ ____
ROOT
ATOM      1  C   UNL     1      45.544   6.137  11.484  0.00  0.00    +0.000 C 
ATOM      2  C   UNL     1      46.705   6.161  12.162  0.00  0.00    +0.000 C 
ENDROOT
BRANCH   2   3
ATOM      3  C   UNL     1      47.452   7.406  12.404  0.00  0.00    +0.000 A 
ATOM      4  C   UNL     1      46.791   8.610  12.644  0.00  0.00    +0.000 A 
ATOM      5  N   UNL     1      47.439   9.781  12.865  0.00  0.00    +0.000 NA
ATOM      6  C   UNL     1      48.795   9.705  12.841  0.00  0.00    +0.000 A 
ATOM      7  C   UNL     1      49.462   8.514  12.608  0.00  0.00    +0.000 A 
ATOM      8  N   UNL     1      48.809   7.338  12.384  0.00  0.00    +0.000 NA
BRANCH   7   9
ATOM      9  C   UNL     1      50.951   8.490  12.593  0.00  0.00    +0.000 C 
ATOM     10  N   UNL     1      51.534   7.711  11.625  0.00  0.00    +0.000 N 
ATOM     11  O   UNL     1      51.621   9.125  13.395  0.00  0.00    +0.000 OA
ATOM     12  H   UNL     1      50.964   7.189  10.973  0.00  0.00    +0.000 HD
ATOM     13  H   UNL     1      52.542   7.664  11.577  0.00  0.00    +0.000 HD
ENDBRANCH   7   9
ENDBRANCH   2   3
BRANCH   1  15
ATOM     14  C   UNL     1      44.623   4.056  12.429  0.00  0.00    +0.000 C 
ATOM     15  C   UNL     1      44.661   4.937  11.160  0.00  0.00    +0.000 C 
ATOM     16  C   UNL     1      43.226   5.480  10.933  0.00  0.00    +0.000 C 
BRANCH  15  17
ATOM     17  C   UNL     1      45.103   4.158   9.906  0.00  0.00    +0.000 A 
ATOM     18  C   UNL     1      45.735   4.781   8.810  0.00  0.00    +0.000 A 
ATOM     19  C   UNL     1      46.168   4.050   7.698  0.00  0.00    +0.000 A 
ATOM     20  C   UNL     1      45.974   2.675   7.653  0.00  0.00    +0.000 A 
ATOM     21  C   UNL     1      45.344   2.045   8.717  0.00  0.00    +0.000 A 
ATOM     22  F   UNL     1      45.155   0.719   8.677  0.00  0.00    +0.000 F 
ATOM     23  C   UNL     1      44.908   2.766   9.827  0.00  0.00    +0.000 A 
ENDBRANCH  15  17
ENDBRANCH   1  15
TORSDOF 4
ENDMDL
MODEL 8
REMARK VINA RESULT:    -6.172      4.083      7.368
REMARK INTER + INTRA:          -8.229
REMARK INTER:                  -7.647
REMARK INTRA:                  -0.583
REMARK UNBOUND:                -0.614
REMARK  Name = 
REMARK  6 active torsions:
REMARK  status: ('A' for Active; 'I' for Inactive)
REMARK    1  A    between atoms: C_1  and  C_2
REMARK    2  A    between atoms: C_2  and  C_3
REMARK    3  A    between atoms: C_2  and  C_4
REMARK    4  A    between atoms: C_2  and  C_15
REMARK    5  A    between atoms: C_5  and  C_6
REMARK    6  A    between atoms: C_10  and  C_11
REMARK                            x       y       z     vdW  Elec       q    Type
REMARK                         _______ _______ _______ _____ _____    ______ ____
ROOT
ATOM      1  C   UNL     1      46.948   6.647  12.197  0.00  0.00    +0.000 C 
ATOM      2  C   UNL     1      45.793   6.270  12.773  0.00  0.00    +0.000 C 
ENDROOT
BRANCH   2   3
ATOM      3  C   UNL     1      45.033   5.093  12.321  0.00  0.00    +0.000 A 
ATOM      4  C   UNL     1      44.175   4.413  13.183  0.00  0.00    +0.000 A 
ATOM      5  N   UNL     1      43.461   3.320  12.810  0.00  0.00    +0.000 NA
ATOM      6  C   UNL     1      43.636   2.928  11.521  0.00  0.00    +0.000 A 
ATOM      7  C   UNL     1      44.484   3.599  10.655  0.00  0.00    +0.000 A 
ATOM      8  N   UNL     1      45.202   4.695  11.032  0.00  0.00    +0.000 NA
BRANCH   7   9
ATOM      9  C   UNL     1      44.636   3.124   9.252  0.00  0.00    +0.000 C 
ATOM     10  N   UNL     1      44.903   1.787   9.093  0.00  0.00    +0.000 N 
ATOM     11  O   UNL     1      44.531   3.876   8.294  0.00  0.00    +0.000 OA
ATOM     12  H   UNL     1      44.991   1.180   9.897  0.00  0.00    +0.000 HD
ATOM     13  H   UNL     1      45.015   1.419   8.158  0.00  0.00    +0.000 HD
ENDBRANCH   7   9
ENDBRANCH   2   3
BRANCH   1  15
ATOM     14  C   UNL     1      49.065   7.762  11.610  0.00  0.00    +0.000 C 
ATOM     15  C   UNL     1      47.843   7.829  12.554  0.00  0.00    +0.000 C 
ATOM     16  C   UNL     1      47.056   9.116  12.198  0.00  0.00    +0.000 C 
BRANCH  15  17
ATOM     17  C   UNL     1      48.241   7.883  14.042  0.00  0.00    +0.000 A 
ATOM     18  C   UNL     1      48.056   9.034  14.835  0.00  0.00    +0.000 A 
ATOM     19  C   UNL     1      48.384   9.049  16.195  0.00  0.00    +0.000 A 
ATOM     20  C   UNL     1      48.910   7.912  16.796  0.00  0.00    +0.000 A 
ATOM     21  C   UNL     1      49.109   6.772  16.029  0.00  0.00    +0.000 A 
ATOM     22  F   UNL     1      49.616   5.674  16.605  0.00  0.00    +0.000 F 
ATOM     23  C   UNL     1      48.787   6.749  14.674  0.00  0.00    +0.000 A 
ENDBRANCH  15  17
ENDBRANCH   1  15
TORSDOF 4
ENDMDL
MODEL 9
REMARK VINA RESULT:    -6.110      1.899      3.022
REMARK INTER + INTRA:          -8.153
REMARK INTER:                  -7.628
REMARK INTRA:                  -0.525
REMARK UNBOUND:                -0.614
REMARK  Name = 
REMARK  6 active torsions:
REMARK  status: ('A' for Active; 'I' for Inactive)
REMARK    1  A    between atoms: C_1  and  C_2
REMARK    2  A    between atoms: C_2  and  C_3
REMARK    3  A    between atoms: C_2  and  C_4
REMARK    4  A    between atoms: C_2  and  C_15
REMARK    5  A    between atoms: C_5  and  C_6
REMARK    6  A    between atoms: C_10  and  C_11
REMARK                            x       y       z     vdW  Elec       q    Type
REMARK                         _______ _______ _______ _____ _____    ______ ____
ROOT
ATOM      1  C   UNL     1      46.780   5.032  13.339  0.00  0.00    +0.000 C 
ATOM      2  C   UNL     1      46.400   4.742  14.596  0.00  0.00    +0.000 C 
ENDROOT
BRANCH   2   3
ATOM      3  C   UNL     1      47.305   4.104  15.565  0.00  0.00    +0.000 A 
ATOM      4  C   UNL     1      47.987   2.929  15.253  0.00  0.00    +0.000 A 
ATOM      5  N   UNL     1      48.824   2.304  16.119  0.00  0.00    +0.000 NA
ATOM      6  C   UNL     1      48.962   2.908  17.328  0.00  0.00    +0.000 A 
ATOM      7  C   UNL     1      48.293   4.078  17.647  0.00  0.00    +0.000 A 
ATOM      8  N   UNL     1      47.450   4.703  16.777  0.00  0.00    +0.000 NA
BRANCH   7   9
ATOM      9  C   UNL     1      48.482   4.697  18.989  0.00  0.00    +0.000 C 
ATOM     10  N   UNL     1      48.459   3.838  20.059  0.00  0.00    +0.000 N 
ATOM     11  O   UNL     1      48.649   5.899  19.134  0.00  0.00    +0.000 OA
ATOM     12  H   UNL     1      48.315   2.846  19.920  0.00  0.00    +0.000 HD
ATOM     13  H   UNL     1      48.583   4.212  20.989  0.00  0.00    +0.000 HD
ENDBRANCH   7   9
ENDBRANCH   2   3
BRANCH   1  15
ATOM     14  C   UNL     1      44.856   6.514  12.922  0.00  0.00    +0.000 C 
ATOM     15  C   UNL     1      45.966   5.691  12.230  0.00  0.00    +0.000 C 
ATOM     16  C   UNL     1      46.906   6.694  11.514  0.00  0.00    +0.000 C 
BRANCH  15  17
ATOM     17  C   UNL     1      45.411   4.697  11.191  0.00  0.00    +0.000 A 
ATOM     18  C   UNL     1      44.628   3.580  11.551  0.00  0.00    +0.000 A 
ATOM     19  C   UNL     1      44.098   2.714  10.588  0.00  0.00    +0.000 A 
ATOM     20  C   UNL     1      44.342   2.941   9.239  0.00  0.00    +0.000 A 
ATOM     21  C   UNL     1      45.120   4.028   8.866  0.00  0.00    +0.000 A 
ATOM     22  F   UNL     1      45.358   4.250   7.566  0.00  0.00    +0.000 F 
ATOM     23  C   UNL     1      45.653   4.894   9.817  0.00  0.00    +0.000 A 
ENDBRANCH  15  17
ENDBRANCH   1  15
TORSDOF 4
ENDMDL
