MODEL 1
REMARK VINA RESULT:    -7.618      0.000      0.000
REMARK INTER + INTRA:          -9.736
REMARK INTER:                  -9.400
REMARK INTRA:                  -0.337
REMARK UNBOUND:                -0.337
REMARK  Name = 
REMARK  5 active torsions:
REMARK  status: ('A' for Active; 'I' for Inactive)
REMARK    1  A    between atoms: C_1  and  C_2
REMARK    2  A    between atoms: C_2  and  O_3
REMARK    3  A    between atoms: C_2  and  C_13
REMARK    4  A    between atoms: O_3  and  C_4
REMARK    5  A    between atoms: C_7  and  C_8
REMARK                            x       y       z     vdW  Elec       q    Type
REMARK                         _______ _______ _______ _____ _____    ______ ____
ROOT
ATOM      1  C   UNL     1      44.539   3.760   9.285  0.00  0.00    +0.000 A 
ATOM      2  C   UNL     1      45.358   4.425   8.391  0.00  0.00    +0.000 A 
ATOM      3  N   UNL     1      46.287   3.822   7.615  0.00  0.00    +0.000 NA
ATOM      4  C   UNL     1      46.394   2.482   7.781  0.00  0.00    +0.000 A 
ATOM      5  N   UNL     1      45.690   1.739   8.658  0.00  0.00    +0.000 NA
ATOM      6  C   UNL     1      44.783   2.407   9.397  0.00  0.00    +0.000 A 
ENDROOT
BRANCH   4   7
ATOM      7  C   UNL     1      47.353   1.757   6.863  0.00  0.00    +0.000 C 
ATOM      8  N   UNL     1      48.443   2.484   6.446  0.00  0.00    +0.000 N 
ATOM      9  O   UNL     1      47.195   0.601   6.482  0.00  0.00    +0.000 OA
ATOM     10  H   UNL     1      48.556   3.447   6.739  0.00  0.00    +0.000 HD
ATOM     11  H   UNL     1      49.097   2.060   5.805  0.00  0.00    +0.000 HD
ENDBRANCH   4   7
BRANCH   1  12
ATOM     12  O   UNL     1      43.594   4.484   9.944  0.00  0.00    +0.000 OA
BRANCH  12  14
ATOM     13  C   UNL     1      42.610   5.455  11.961  0.00  0.00    +0.000 C 
ATOM     14  C   UNL     1      43.682   4.523  11.380  0.00  0.00    +0.000 C 
BRANCH  14  15
ATOM     15  C   UNL     1      45.102   5.004  11.794  0.00  0.00    +0.000 C 
ATOM     16  C   UNL     1      45.432   4.703  13.268  0.00  0.00    +0.000 C 
ATOM     17  C   UNL     1      46.833   5.182  13.643  0.00  0.00    +0.000 C 
ATOM     18  C   UNL     1      47.015   6.665  13.345  0.00  0.00    +0.000 C 
ATOM     19  C   UNL     1      46.695   6.980  11.887  0.00  0.00    +0.000 C 
ATOM     20  C   UNL     1      45.293   6.504  11.503  0.00  0.00    +0.000 C 
ENDBRANCH  14  15
ENDBRANCH  12  14
ENDBRANCH   1  12
TORSDOF 4
ENDMDL
MODEL 2
REMARK VINA RESULT:    -6.512      3.731      6.035
REMARK INTER + INTRA:          -8.372
REMARK INTER:                  -7.877
REMARK INTRA:                  -0.495
REMARK UNBOUND:                -0.337
REMARK  Name = 
REMARK  5 active torsions:
REMARK  status: ('A' for Active; 'I' for Inactive)
REMARK    1  A    between atoms: C_1  and  C_2
REMARK    2  A    between atoms: C_2  and  O_3
REMARK    3  A    between atoms: C_2  and  C_13
REMARK    4  A    between atoms: O_3  and  C_4
REMARK    5  A    between atoms: C_7  and  C_8
REMARK                            x       y       z     vdW  Elec       q    Type
REMARK                         _______ _______ _______ _____ _____    ______ ____
ROOT
ATOM      1  C   UNL     1      45.712   5.164  13.020  0.00  0.00    +0.000 A 
ATOM      2  C   UNL     1      46.013   6.486  12.747  0.00  0.00    +0.000 A 
ATOM      3  N   UNL     1      47.107   7.130  13.216  0.00  0.00    +0.000 NA
ATOM      4  C   UNL     1      47.911   6.391  14.017  0.00  0.00    +0.000 A 
ATOM      5  N   UNL     1      47.691   5.116  14.394  0.00  0.00    +0.000 NA
ATOM      6  C   UNL     1      46.583   4.539  13.889  0.00  0.00    +0.000 A 
ENDROOT
BRANCH   4   7
ATOM      7  C   UNL     1      49.194   7.045  14.482  0.00  0.00    +0.000 C 
ATOM      8  N   UNL     1      50.067   7.415  13.486  0.00  0.00    +0.000 N 
ATOM      9  O   UNL     1      49.479   7.235  15.660  0.00  0.00    +0.000 OA
ATOM     10  H   UNL     1      49.843   7.232  12.516  0.00  0.00    +0.000 HD
ATOM     11  H   UNL     1      50.953   7.826  13.742  0.00  0.00    +0.000 HD
ENDBRANCH   4   7
BRANCH   1  12
ATOM     12  O   UNL     1      44.619   4.621  12.418  0.00  0.00    +0.000 OA
BRANCH  12  14
ATOM     13  C   UNL     1      42.622   5.651  11.452  0.00  0.00    +0.000 C 
ATOM     14  C   UNL     1      44.104   5.303  11.258  0.00  0.00    +0.000 C 
BRANCH  14  15
ATOM     15  C   UNL     1      44.291   4.398  10.008  0.00  0.00    +0.000 C 
ATOM     16  C   UNL     1      44.378   2.900  10.356  0.00  0.00    +0.000 C 
ATOM     17  C   UNL     1      44.556   2.038   9.108  0.00  0.00    +0.000 C 
ATOM     18  C   UNL     1      45.770   2.472   8.298  0.00  0.00    +0.000 C 
ATOM     19  C   UNL     1      45.698   3.952   7.941  0.00  0.00    +0.000 C 
ATOM     20  C   UNL     1      45.521   4.823   9.184  0.00  0.00    +0.000 C 
ENDBRANCH  14  15
ENDBRANCH  12  14
ENDBRANCH   1  12
TORSDOF 4
ENDMDL
MODEL 3
REMARK VINA RESULT:    -6.289      3.710      6.279
REMARK INTER + INTRA:          -8.097
REMARK INTER:                  -7.629
REMARK INTRA:                  -0.467
REMARK UNBOUND:                -0.337
REMARK  Name = 
REMARK  5 active torsions:
REMARK  status: ('A' for Active; 'I' for Inactive)
REMARK    1  A    between atoms: C_1  and  C_2
REMARK    2  A    between atoms: C_2  and  O_3
REMARK    3  A    between atoms: C_2  and  C_13
REMARK    4  A    between atoms: O_3  and  C_4
REMARK    5  A    between atoms: C_7  and  C_8
REMARK                            x       y       z     vdW  Elec       q    Type
REMARK                         _______ _______ _______ _____ _____    ______ ____
ROOT
ATOM      1  C   UNL     1      45.894   4.532  13.044  0.00  0.00    +0.000 A 
ATOM      2  C   UNL     1      45.352   5.787  12.834  0.00  0.00    +0.000 A 
ATOM      3  N   UNL     1      45.990   6.948  13.108  0.00  0.00    +0.000 NA
ATOM      4  C   UNL     1      47.228   6.813  13.640  0.00  0.00    +0.000 A 
ATOM      5  N   UNL     1      47.834   5.646  13.938  0.00  0.00    +0.000 NA
ATOM      6  C   UNL     1      47.139   4.531  13.638  0.00  0.00    +0.000 A 
ENDROOT
BRANCH   4   7
ATOM      7  C   UNL     1      48.013   8.085  13.870  0.00  0.00    +0.000 C 
ATOM      8  N   UNL     1      47.438   8.992  14.730  0.00  0.00    +0.000 N 
ATOM      9  O   UNL     1      49.086   8.335  13.332  0.00  0.00    +0.000 OA
ATOM     10  H   UNL     1      46.538   8.796  15.151  0.00  0.00    +0.000 HD
ATOM     11  H   UNL     1      47.903   9.873  14.893  0.00  0.00    +0.000 HD
ENDBRANCH   4   7
BRANCH   1  12
ATOM     12  O   UNL     1      45.169   3.450  12.649  0.00  0.00    +0.000 OA
BRANCH  12  14
ATOM     13  C   UNL     1      43.229   2.575  11.445  0.00  0.00    +0.000 C 
ATOM     14  C   UNL     1      44.379   3.591  11.454  0.00  0.00    +0.000 C 
BRANCH  14  15
ATOM     15  C   UNL     1      45.291   3.390  10.210  0.00  0.00    +0.000 C 
ATOM     16  C   UNL     1      45.250   4.583   9.236  0.00  0.00    +0.000 C 
ATOM     17  C   UNL     1      46.158   4.358   8.028  0.00  0.00    +0.000 C 
ATOM     18  C   UNL     1      45.814   3.063   7.305  0.00  0.00    +0.000 C 
ATOM     19  C   UNL     1      45.854   1.871   8.254  0.00  0.00    +0.000 C 
ATOM     20  C   UNL     1      44.947   2.086   9.466  0.00  0.00    +0.000 C 
ENDBRANCH  14  15
ENDBRANCH  12  14
ENDBRANCH   1  12
TORSDOF 4
ENDMDL
MODEL 4
REMARK VINA RESULT:    -5.904      4.203      6.463
REMARK INTER + INTRA:          -7.622
REMARK INTER:                  -7.864
REMARK INTRA:                   0.242
REMARK UNBOUND:                -0.337
REMARK  Name = 
REMARK  5 active torsions:
REMARK  status: ('A' for Active; 'I' for Inactive)
REMARK    1  A    between atoms: C_1  and  C_2
REMARK    2  A    between atoms: C_2  and  O_3
REMARK    3  A    between atoms: C_2  and  C_13
REMARK    4  A    between atoms: O_3  and  C_4
REMARK    5  A    between atoms: C_7  and  C_8
REMARK                            x       y       z     vdW  Elec       q    Type
REMARK                         _______ _______ _______ _____ _____    ______ ____
ROOT
ATOM      1  C   UNL     1      47.090   5.373  13.269  0.00  0.00    +0.000 A 
ATOM      2  C   UNL     1      47.579   5.920  14.442  0.00  0.00    +0.000 A 
ATOM      3  N   UNL     1      47.889   5.202  15.546  0.00  0.00    +0.000 NA
ATOM      4  C   UNL     1      47.666   3.869  15.448  0.00  0.00    +0.000 A 
ATOM      5  N   UNL     1      47.143   3.235  14.379  0.00  0.00    +0.000 NA
ATOM      6  C   UNL     1      46.859   4.014  13.316  0.00  0.00    +0.000 A 
ENDROOT
BRANCH   4   7
ATOM      7  C   UNL     1      48.090   3.020  16.625  0.00  0.00    +0.000 C 
ATOM      8  N   UNL     1      47.131   2.818  17.589  0.00  0.00    +0.000 N 
ATOM      9  O   UNL     1      49.211   2.538  16.753  0.00  0.00    +0.000 OA
ATOM     10  H   UNL     1      46.216   3.240  17.495  0.00  0.00    +0.000 HD
ATOM     11  H   UNL     1      47.372   2.285  18.413  0.00  0.00    +0.000 HD
ENDBRANCH   4   7
BRANCH   1  12
ATOM     12  O   UNL     1      46.895   6.205  12.211  0.00  0.00    +0.000 OA
BRANCH  12  14
ATOM     13  C   UNL     1      44.484   6.041  12.590  0.00  0.00    +0.000 C 
ATOM     14  C   UNL     1      45.614   6.144  11.556  0.00  0.00    +0.000 C 
BRANCH  14  15
ATOM     15  C   UNL     1      45.586   4.920  10.597  0.00  0.00    +0.000 C 
ATOM     16  C   UNL     1      45.861   5.300   9.130  0.00  0.00    +0.000 C 
ATOM     17  C   UNL     1      45.832   4.078   8.214  0.00  0.00    +0.000 C 
ATOM     18  C   UNL     1      44.516   3.321   8.335  0.00  0.00    +0.000 C 
ATOM     19  C   UNL     1      44.230   2.934   9.781  0.00  0.00    +0.000 C 
ATOM     20  C   UNL     1      44.256   4.152  10.705  0.00  0.00    +0.000 C 
ENDBRANCH  14  15
ENDBRANCH  12  14
ENDBRANCH   1  12
TORSDOF 4
ENDMDL
MODEL 5
REMARK VINA RESULT:    -5.650      3.876      6.030
REMARK INTER + INTRA:          -7.308
REMARK INTER:                  -6.878
REMARK INTRA:                  -0.430
REMARK UNBOUND:                -0.337
REMARK  Name = 
REMARK  5 active torsions:
REMARK  status: ('A' for Active; 'I' for Inactive)
REMARK    1  A    between atoms: C_1  and  C_2
REMARK    2  A    between atoms: C_2  and  O_3
REMARK    3  A    between atoms: C_2  and  C_13
REMARK    4  A    between atoms: O_3  and  C_4
REMARK    5  A    between atoms: C_7  and  C_8
REMARK                            x       y       z     vdW  Elec       q    Type
REMARK                         _______ _______ _______ _____ _____    ______ ____
ROOT
ATOM      1  C   UNL     1      47.073   5.040  13.359  0.00  0.00    +0.000 A 
ATOM      2  C   UNL     1      46.272   5.927  12.662  0.00  0.00    +0.000 A 
ATOM      3  N   UNL     1      45.081   5.604  12.108  0.00  0.00    +0.000 NA
ATOM      4  C   UNL     1      44.708   4.311  12.257  0.00  0.00    +0.000 A 
ATOM      5  N   UNL     1      45.428   3.349  12.867  0.00  0.00    +0.000 NA
ATOM      6  C   UNL     1      46.604   3.743  13.395  0.00  0.00    +0.000 A 
ENDROOT
BRANCH   4   7
ATOM      7  C   UNL     1      43.338   3.934  11.737  0.00  0.00    +0.000 C 
ATOM      8  N   UNL     1      42.410   4.948  11.715  0.00  0.00    +0.000 N 
ATOM      9  O   UNL     1      43.033   2.806  11.365  0.00  0.00    +0.000 OA
ATOM     10  H   UNL     1      42.656   5.872  12.050  0.00  0.00    +0.000 HD
ATOM     11  H   UNL     1      41.470   4.744  11.408  0.00  0.00    +0.000 HD
ENDBRANCH   4   7
BRANCH   1  12
ATOM     12  O   UNL     1      48.209   5.521  13.931  0.00  0.00    +0.000 OA
BRANCH  12  14
ATOM     13  C   UNL     1      48.897   7.432  15.294  0.00  0.00    +0.000 C 
ATOM     14  C   UNL     1      48.083   6.132  15.228  0.00  0.00    +0.000 C 
BRANCH  14  15
ATOM     15  C   UNL     1      48.568   5.132  16.315  0.00  0.00    +0.000 C 
ATOM     16  C   UNL     1      47.429   4.267  16.888  0.00  0.00    +0.000 C 
ATOM     17  C   UNL     1      47.937   3.292  17.948  0.00  0.00    +0.000 C 
ATOM     18  C   UNL     1      48.673   4.018  19.067  0.00  0.00    +0.000 C 
ATOM     19  C   UNL     1      49.807   4.877  18.518  0.00  0.00    +0.000 C 
ATOM     20  C   UNL     1      49.308   5.856  17.456  0.00  0.00    +0.000 C 
ENDBRANCH  14  15
ENDBRANCH  12  14
ENDBRANCH   1  12
TORSDOF 4
ENDMDL
MODEL 6
REMARK VINA RESULT:    -5.586      3.243      5.339
REMARK INTER + INTRA:          -7.228
REMARK INTER:                  -6.771
REMARK INTRA:                  -0.457
REMARK UNBOUND:                -0.337
REMARK  Name = 
REMARK  5 active torsions:
REMARK  status: ('A' for Active; 'I' for Inactive)
REMARK    1  A    between atoms: C_1  and  C_2
REMARK    2  A    between atoms: C_2  and  O_3
REMARK    3  A    between atoms: C_2  and  C_13
REMARK    4  A    between atoms: O_3  and  C_4
REMARK    5  A    between atoms: C_7  and  C_8
REMARK                            x       y       z     vdW  Elec       q    Type
REMARK                         _______ _______ _______ _____ _____    ______ ____
ROOT
ATOM      1  C   UNL     1      46.249   6.147  12.485  0.00  0.00    +0.000 A 
ATOM      2  C   UNL     1      45.890   5.093  13.305  0.00  0.00    +0.000 A 
ATOM      3  N   UNL     1      45.157   4.029  12.903  0.00  0.00    +0.000 NA
ATOM      4  C   UNL     1      44.757   4.062  11.609  0.00  0.00    +0.000 A 
ATOM      5  N   UNL     1      45.000   5.059  10.735  0.00  0.00    +0.000 NA
ATOM      6  C   UNL     1      45.735   6.086  11.205  0.00  0.00    +0.000 A 
ENDROOT
BRANCH   4   7
ATOM      7  C   UNL     1      44.020   2.846  11.094  0.00  0.00    +0.000 C 
ATOM      8  N   UNL     1      44.586   2.223  10.007  0.00  0.00    +0.000 N 
ATOM      9  O   UNL     1      42.975   2.422  11.578  0.00  0.00    +0.000 OA
ATOM     10  H   UNL     1      45.433   2.591   9.592  0.00  0.00    +0.000 HD
ATOM     11  H   UNL     1      44.117   1.426   9.602  0.00  0.00    +0.000 HD
ENDBRANCH   4   7
BRANCH   1  12
ATOM     12  O   UNL     1      47.055   7.112  13.003  0.00  0.00    +0.000 OA
BRANCH  12  14
ATOM     13  C   UNL     1      49.202   7.016  14.171  0.00  0.00    +0.000 C 
ATOM     14  C   UNL     1      48.474   6.949  12.821  0.00  0.00    +0.000 C 
BRANCH  14  15
ATOM     15  C   UNL     1      49.000   8.056  11.865  0.00  0.00    +0.000 C 
ATOM     16  C   UNL     1      50.518   8.284  11.986  0.00  0.00    +0.000 C 
ATOM     17  C   UNL     1      51.005   9.373  11.032  0.00  0.00    +0.000 C 
ATOM     18  C   UNL     1      50.249  10.678  11.243  0.00  0.00    +0.000 C 
ATOM     19  C   UNL     1      48.743  10.472  11.123  0.00  0.00    +0.000 C 
ATOM     20  C   UNL     1      48.247   9.384  12.075  0.00  0.00    +0.000 C 
ENDBRANCH  14  15
ENDBRANCH  12  14
ENDBRANCH   1  12
TORSDOF 4
ENDMDL
MODEL 7
REMARK VINA RESULT:    -5.334      4.985      6.680
REMARK INTER + INTRA:          -6.917
REMARK INTER:                  -6.462
REMARK INTRA:                  -0.456
REMARK UNBOUND:                -0.337
REMARK  Name = 
REMARK  5 active torsions:
REMARK  status: ('A' for Active; 'I' for Inactive)
REMARK    1  A    between atoms: C_1  and  C_2
REMARK    2  A    between atoms: C_2  and  O_3
REMARK    3  A    between atoms: C_2  and  C_13
REMARK    4  A    between atoms: O_3  and  C_4
REMARK    5  A    between atoms: C_7  and  C_8
REMARK                            x       y       z     vdW  Elec       q    Type
REMARK                         _______ _______ _______ _____ _____    ______ ____
ROOT
ATOM      1  C   UNL     1      47.132   5.449  13.477  0.00  0.00    +0.000 A 
ATOM      2  C   UNL     1      47.732   5.841  14.660  0.00  0.00    +0.000 A 
ATOM      3  N   UNL     1      48.079   4.994  15.656  0.00  0.00    +0.000 NA
ATOM      4  C   UNL     1      47.776   3.692  15.436  0.00  0.00    +0.000 A 
ATOM      5  N   UNL     1      47.146   3.203  14.349  0.00  0.00    +0.000 NA
ATOM      6  C   UNL     1      46.831   4.104  13.399  0.00  0.00    +0.000 A 
ENDROOT
BRANCH   4   7
ATOM      7  C   UNL     1      48.235   2.701  16.482  0.00  0.00    +0.000 C 
ATOM      8  N   UNL     1      47.577   2.761  17.688  0.00  0.00    +0.000 N 
ATOM      9  O   UNL     1      49.141   1.891  16.309  0.00  0.00    +0.000 OA
ATOM     10  H   UNL     1      46.849   3.449  17.838  0.00  0.00    +0.000 HD
ATOM     11  H   UNL     1      47.866   2.144  18.433  0.00  0.00    +0.000 HD
ENDBRANCH   4   7
BRANCH   1  12
ATOM     12  O   UNL     1      46.910   6.399  12.529  0.00  0.00    +0.000 OA
BRANCH  12  14
ATOM     13  C   UNL     1      45.723   8.507  12.891  0.00  0.00    +0.000 C 
ATOM     14  C   UNL     1      47.071   7.773  12.928  0.00  0.00    +0.000 C 
BRANCH  14  15
ATOM     15  C   UNL     1      48.092   8.465  11.982  0.00  0.00    +0.000 C 
ATOM     16  C   UNL     1      49.553   8.096  12.301  0.00  0.00    +0.000 C 
ATOM     17  C   UNL     1      50.531   8.787  11.353  0.00  0.00    +0.000 C 
ATOM     18  C   UNL     1      50.345  10.299  11.363  0.00  0.00    +0.000 C 
ATOM     19  C   UNL     1      48.904  10.682  11.045  0.00  0.00    +0.000 C 
ATOM     20  C   UNL     1      47.918   9.996  11.990  0.00  0.00    +0.000 C 
ENDBRANCH  14  15
ENDBRANCH  12  14
ENDBRANCH   1  12
TORSDOF 4
ENDMDL
MODEL 8
REMARK VINA RESULT:    -5.275      3.732      5.881
REMARK INTER + INTRA:          -6.845
REMARK INTER:                  -6.512
REMARK INTRA:                  -0.334
REMARK UNBOUND:                -0.337
REMARK  Name = 
REMARK  5 active torsions:
REMARK  status: ('A' for Active; 'I' for Inactive)
REMARK    1  A    between atoms: C_1  and  C_2
REMARK    2  A    between atoms: C_2  and  O_3
REMARK    3  A    between atoms: C_2  and  C_13
REMARK    4  A    between atoms: O_3  and  C_4
REMARK    5  A    between atoms: C_7  and  C_8
REMARK                            x       y       z     vdW  Elec       q    Type
REMARK                         _______ _______ _______ _____ _____    ______ ____
ROOT
ATOM      1  C   UNL     1      47.050   5.392  13.029  0.00  0.00    +0.000 A 
ATOM      2  C   UNL     1      46.396   5.956  11.949  0.00  0.00    +0.000 A 
ATOM      3  N   UNL     1      45.192   5.544  11.488  0.00  0.00    +0.000 NA
ATOM      4  C   UNL     1      44.650   4.495  12.151  0.00  0.00    +0.000 A 
ATOM      5  N   UNL     1      45.219   3.834  13.178  0.00  0.00    +0.000 NA
ATOM      6  C   UNL     1      46.417   4.299  13.583  0.00  0.00    +0.000 A 
ENDROOT
BRANCH   4   7
ATOM      7  C   UNL     1      43.262   4.068  11.729  0.00  0.00    +0.000 C 
ATOM      8  N   UNL     1      42.293   5.042  11.796  0.00  0.00    +0.000 N 
ATOM      9  O   UNL     1      42.976   2.934  11.359  0.00  0.00    +0.000 OA
ATOM     10  H   UNL     1      42.525   5.970  12.128  0.00  0.00    +0.000 HD
ATOM     11  H   UNL     1      41.342   4.802  11.557  0.00  0.00    +0.000 HD
ENDBRANCH   4   7
BRANCH   1  12
ATOM     12  O   UNL     1      48.220   5.958  13.432  0.00  0.00    +0.000 OA
BRANCH  12  14
ATOM     13  C   UNL     1      48.661   8.361  13.318  0.00  0.00    +0.000 C 
ATOM     14  C   UNL     1      48.132   7.195  14.164  0.00  0.00    +0.000 C 
BRANCH  14  15
ATOM     15  C   UNL     1      48.944   7.068  15.483  0.00  0.00    +0.000 C 
ATOM     16  C   UNL     1      50.464   7.203  15.269  0.00  0.00    +0.000 C 
ATOM     17  C   UNL     1      51.233   7.080  16.582  0.00  0.00    +0.000 C 
ATOM     18  C   UNL     1      50.907   5.777  17.301  0.00  0.00    +0.000 C 
ATOM     19  C   UNL     1      49.406   5.630  17.525  0.00  0.00    +0.000 C 
ATOM     20  C   UNL     1      48.627   5.751  16.215  0.00  0.00    +0.000 C 
ENDBRANCH  14  15
ENDBRANCH  12  14
ENDBRANCH   1  12
TORSDOF 4
ENDMDL
MODEL 9
REMARK VINA RESULT:    -5.204      4.462      6.481
REMARK INTER + INTRA:          -6.757
REMARK INTER:                  -6.367
REMARK INTRA:                  -0.390
REMARK UNBOUND:                -0.337
REMARK  Name = 
REMARK  5 active torsions:
REMARK  status: ('A' for Active; 'I' for Inactive)
REMARK    1  A    between atoms: C_1  and  C_2
REMARK    2  A    between atoms: C_2  and  O_3
REMARK    3  A    between atoms: C_2  and  C_13
REMARK    4  A    between atoms: O_3  and  C_4
REMARK    5  A    between atoms: C_7  and  C_8
REMARK                            x       y       z     vdW  Elec       q    Type
REMARK                         _______ _______ _______ _____ _____    ______ ____
ROOT
ATOM      1  C   UNL     1      46.998   4.679  14.293  0.00  0.00    +0.000 A 
ATOM      2  C   UNL     1      46.134   5.599  13.728  0.00  0.00    +0.000 A 
ATOM      3  N   UNL     1      45.172   5.289  12.829  0.00  0.00    +0.000 NA
ATOM      4  C   UNL     1      45.111   3.982  12.479  0.00  0.00    +0.000 A 
ATOM      5  N   UNL     1      45.933   3.009  12.920  0.00  0.00    +0.000 NA
ATOM      6  C   UNL     1      46.867   3.391  13.813  0.00  0.00    +0.000 A 
ENDROOT
BRANCH   4   7
ATOM      7  C   UNL     1      43.987   3.578  11.551  0.00  0.00    +0.000 C 
ATOM      8  N   UNL     1      43.465   2.323  11.760  0.00  0.00    +0.000 N 
ATOM      9  O   UNL     1      43.552   4.289  10.651  0.00  0.00    +0.000 OA
ATOM     10  H   UNL     1      43.844   1.727  12.486  0.00  0.00    +0.000 HD
ATOM     11  H   UNL     1      42.735   1.990  11.148  0.00  0.00    +0.000 HD
ENDBRANCH   4   7
BRANCH   1  12
ATOM     12  O   UNL     1      47.866   5.119  15.243  0.00  0.00    +0.000 OA
BRANCH  12  14
ATOM     13  C   UNL     1      46.967   4.313  17.370  0.00  0.00    +0.000 C 
ATOM     14  C   UNL     1      48.118   4.242  16.357  0.00  0.00    +0.000 C 
BRANCH  14  15
ATOM     15  C   UNL     1      49.460   4.643  17.032  0.00  0.00    +0.000 C 
ATOM     16  C   UNL     1      50.279   3.429  17.510  0.00  0.00    +0.000 C 
ATOM     17  C   UNL     1      51.593   3.854  18.163  0.00  0.00    +0.000 C 
ATOM     18  C   UNL     1      51.356   4.827  19.311  0.00  0.00    +0.000 C 
ATOM     19  C   UNL     1      50.549   6.037  18.854  0.00  0.00    +0.000 C 
ATOM     20  C   UNL     1      49.232   5.621  18.200  0.00  0.00    +0.000 C 
ENDBRANCH  14  15
ENDBRANCH  12  14
ENDBRANCH   1  12
TORSDOF 4
ENDMDL
