MODEL 1
REMARK VINA RESULT:    -8.307      0.000      0.000
REMARK INTER + INTRA:         -10.864
REMARK INTER:                 -10.249
REMARK INTRA:                  -0.615
REMARK UNBOUND:                -0.615
REMARK  Name = 
REMARK  4 active torsions:
REMARK  status: ('A' for Active; 'I' for Inactive)
REMARK    1  A    between atoms: C_2  and  C_3
REMARK    2  A    between atoms: C_5  and  C_6
REMARK    3  A    between atoms: C_6  and  N_7
REMARK    4  A    between atoms: C_12  and  C_13
REMARK                            x       y       z     vdW  Elec       q    Type
REMARK                         _______ _______ _______ _____ _____    ______ ____
ROOT
ATOM      1  N   UNL     1      43.890   4.323  10.413  0.00  0.00    +0.000 N 
ATOM      2  N   UNL     1      43.313   3.300  11.083  0.00  0.00    +0.000 NA
ATOM      3  C   UNL     1      43.861   2.214  10.535  0.00  0.00    +0.000 A 
ATOM      4  C   UNL     1      44.812   2.524   9.540  0.00  0.00    +0.000 A 
ATOM      5  C   UNL     1      45.630   1.779   8.667  0.00  0.00    +0.000 A 
ATOM      6  C   UNL     1      46.464   2.457   7.764  0.00  0.00    +0.000 A 
ATOM      7  C   UNL     1      46.486   3.860   7.761  0.00  0.00    +0.000 A 
ATOM      8  C   UNL     1      45.692   4.616   8.636  0.00  0.00    +0.000 A 
ATOM      9  C   UNL     1      44.844   3.916   9.502  0.00  0.00    +0.000 A 
ENDROOT
BRANCH   6  10
ATOM     10  C   UNL     1      47.333   1.749   6.777  0.00  0.00    +0.000 C 
ATOM     11  N   UNL     1      48.371   2.429   6.204  0.00  0.00    +0.000 N 
ATOM     12  O   UNL     1      47.134   0.577   6.475  0.00  0.00    +0.000 OA
ATOM     13  H   UNL     1      48.620   3.387   6.387  0.00  0.00    +0.000 HD
ATOM     14  H   UNL     1      48.938   1.916   5.542  0.00  0.00    +0.000 HD
ENDBRANCH   6  10
BRANCH   1  15
ATOM     15  C   UNL     1      43.457   5.688  10.699  0.00  0.00    +0.000 C 
BRANCH  15  18
ATOM     16  C   UNL     1      46.351   6.593  13.066  0.00  0.00    +0.000 A 
ATOM     17  C   UNL     1      45.460   5.839  12.284  0.00  0.00    +0.000 A 
ATOM     18  C   UNL     1      44.482   6.475  11.494  0.00  0.00    +0.000 A 
ATOM     19  C   UNL     1      44.472   7.877  11.438  0.00  0.00    +0.000 A 
ATOM     20  C   UNL     1      45.378   8.627  12.188  0.00  0.00    +0.000 A 
ATOM     21  C   UNL     1      46.301   7.984  13.009  0.00  0.00    +0.000 A 
ATOM     22  F   UNL     1      47.129   8.731  13.750  0.00  0.00    +0.000 F 
BRANCH  16  24
ATOM     23  N   UNL     1      48.013   5.425  14.675  0.00  0.00    +0.000 NA
ATOM     24  C   UNL     1      47.281   5.938  13.939  0.00  0.00    +0.000 C 
ENDBRANCH  16  24
ENDBRANCH  15  18
ENDBRANCH   1  15
TORSDOF 4
ENDMDL
MODEL 2
REMARK VINA RESULT:    -8.053      1.497      2.070
REMARK INTER + INTRA:         -10.551
REMARK INTER:                  -9.971
REMARK INTRA:                  -0.580
REMARK UNBOUND:                -0.615
REMARK  Name = 
REMARK  4 active torsions:
REMARK  status: ('A' for Active; 'I' for Inactive)
REMARK    1  A    between atoms: C_2  and  C_3
REMARK    2  A    between atoms: C_5  and  C_6
REMARK    3  A    between atoms: C_6  and  N_7
REMARK    4  A    between atoms: C_12  and  C_13
REMARK                            x       y       z     vdW  Elec       q    Type
REMARK                         _______ _______ _______ _____ _____    ______ ____
ROOT
ATOM      1  N   UNL     1      43.862   4.295  10.431  0.00  0.00    +0.000 N 
ATOM      2  N   UNL     1      43.325   3.251  11.103  0.00  0.00    +0.000 NA
ATOM      3  C   UNL     1      43.909   2.186  10.551  0.00  0.00    +0.000 A 
ATOM      4  C   UNL     1      44.844   2.531   9.552  0.00  0.00    +0.000 A 
ATOM      5  C   UNL     1      45.683   1.817   8.674  0.00  0.00    +0.000 A 
ATOM      6  C   UNL     1      46.487   2.525   7.767  0.00  0.00    +0.000 A 
ATOM      7  C   UNL     1      46.460   3.928   7.766  0.00  0.00    +0.000 A 
ATOM      8  C   UNL     1      45.643   4.654   8.645  0.00  0.00    +0.000 A 
ATOM      9  C   UNL     1      44.825   3.923   9.516  0.00  0.00    +0.000 A 
ENDROOT
BRANCH   6  10
ATOM     10  C   UNL     1      47.376   1.849   6.776  0.00  0.00    +0.000 C 
ATOM     11  N   UNL     1      48.414   2.553   6.231  0.00  0.00    +0.000 N 
ATOM     12  O   UNL     1      47.195   0.682   6.444  0.00  0.00    +0.000 OA
ATOM     13  H   UNL     1      48.649   3.510   6.438  0.00  0.00    +0.000 HD
ATOM     14  H   UNL     1      48.994   2.062   5.564  0.00  0.00    +0.000 HD
ENDBRANCH   6  10
BRANCH   1  15
ATOM     15  C   UNL     1      43.381   5.644  10.721  0.00  0.00    +0.000 C 
BRANCH  15  18
ATOM     16  C   UNL     1      45.427   8.594  12.102  0.00  0.00    +0.000 A 
ATOM     17  C   UNL     1      44.446   7.868  11.407  0.00  0.00    +0.000 A 
ATOM     18  C   UNL     1      44.379   6.464  11.516  0.00  0.00    +0.000 A 
ATOM     19  C   UNL     1      45.259   5.817  12.397  0.00  0.00    +0.000 A 
ATOM     20  C   UNL     1      46.213   6.542  13.113  0.00  0.00    +0.000 A 
ATOM     21  C   UNL     1      46.303   7.922  12.950  0.00  0.00    +0.000 A 
ATOM     22  F   UNL     1      47.256   8.584  13.617  0.00  0.00    +0.000 F 
BRANCH  16  24
ATOM     23  N   UNL     1      45.610  11.159  11.775  0.00  0.00    +0.000 NA
ATOM     24  C   UNL     1      45.548  10.011  11.912  0.00  0.00    +0.000 C 
ENDBRANCH  16  24
ENDBRANCH  15  18
ENDBRANCH   1  15
TORSDOF 4
ENDMDL
MODEL 3
REMARK VINA RESULT:    -8.050      3.459      6.583
REMARK INTER + INTRA:         -10.547
REMARK INTER:                  -9.826
REMARK INTRA:                  -0.721
REMARK UNBOUND:                -0.615
REMARK  Name = 
REMARK  4 active torsions:
REMARK  status: ('A' for Active; 'I' for Inactive)
REMARK    1  A    between atoms: C_2  and  C_3
REMARK    2  A    between atoms: C_5  and  C_6
REMARK    3  A    between atoms: C_6  and  N_7
REMARK    4  A    between atoms: C_12  and  C_13
REMARK                            x       y       z     vdW  Elec       q    Type
REMARK                         _______ _______ _______ _____ _____    ______ ____
ROOT
ATOM      1  N   UNL     1      44.552   4.286  10.874  0.00  0.00    +0.000 N 
ATOM      2  N   UNL     1      43.989   3.374  11.701  0.00  0.00    +0.000 NA
ATOM      3  C   UNL     1      44.590   3.598  12.871  0.00  0.00    +0.000 A 
ATOM      4  C   UNL     1      45.509   4.667  12.820  0.00  0.00    +0.000 A 
ATOM      5  C   UNL     1      46.393   5.274  13.734  0.00  0.00    +0.000 A 
ATOM      6  C   UNL     1      47.200   6.339  13.302  0.00  0.00    +0.000 A 
ATOM      7  C   UNL     1      47.097   6.794  11.978  0.00  0.00    +0.000 A 
ATOM      8  C   UNL     1      46.208   6.212  11.062  0.00  0.00    +0.000 A 
ATOM      9  C   UNL     1      45.441   5.129  11.508  0.00  0.00    +0.000 A 
ENDROOT
BRANCH   6  10
ATOM     10  C   UNL     1      48.192   7.014  14.191  0.00  0.00    +0.000 C 
ATOM     11  N   UNL     1      47.807   8.128  14.883  0.00  0.00    +0.000 N 
ATOM     12  O   UNL     1      49.337   6.591  14.310  0.00  0.00    +0.000 OA
ATOM     13  H   UNL     1      46.894   8.552  14.858  0.00  0.00    +0.000 HD
ATOM     14  H   UNL     1      48.506   8.558  15.475  0.00  0.00    +0.000 HD
ENDBRANCH   6  10
BRANCH   1  15
ATOM     15  C   UNL     1      44.186   4.277   9.460  0.00  0.00    +0.000 C 
BRANCH  15  18
ATOM     16  C   UNL     1      46.460   1.723   7.698  0.00  0.00    +0.000 A 
ATOM     17  C   UNL     1      45.414   2.265   8.463  0.00  0.00    +0.000 A 
ATOM     18  C   UNL     1      45.258   3.660   8.581  0.00  0.00    +0.000 A 
ATOM     19  C   UNL     1      46.117   4.495   7.850  0.00  0.00    +0.000 A 
ATOM     20  C   UNL     1      47.136   3.957   7.063  0.00  0.00    +0.000 A 
ATOM     21  C   UNL     1      47.313   2.578   7.003  0.00  0.00    +0.000 A 
ATOM     22  F   UNL     1      48.325   2.093   6.274  0.00  0.00    +0.000 F 
BRANCH  16  24
ATOM     23  N   UNL     1      46.836  -0.841   7.668  0.00  0.00    +0.000 NA
ATOM     24  C   UNL     1      46.669   0.305   7.659  0.00  0.00    +0.000 C 
ENDBRANCH  16  24
ENDBRANCH  15  18
ENDBRANCH   1  15
TORSDOF 4
ENDMDL
MODEL 4
REMARK VINA RESULT:    -7.654      3.451      6.748
REMARK INTER + INTRA:         -10.059
REMARK INTER:                  -9.378
REMARK INTRA:                  -0.681
REMARK UNBOUND:                -0.615
REMARK  Name = 
REMARK  4 active torsions:
REMARK  status: ('A' for Active; 'I' for Inactive)
REMARK    1  A    between atoms: C_2  and  C_3
REMARK    2  A    between atoms: C_5  and  C_6
REMARK    3  A    between atoms: C_6  and  N_7
REMARK    4  A    between atoms: C_12  and  C_13
REMARK                            x       y       z     vdW  Elec       q    Type
REMARK                         _______ _______ _______ _____ _____    ______ ____
ROOT
ATOM      1  N   UNL     1      44.687   4.993  10.931  0.00  0.00    +0.000 N 
ATOM      2  N   UNL     1      44.501   6.330  10.837  0.00  0.00    +0.000 NA
ATOM      3  C   UNL     1      45.079   6.807  11.940  0.00  0.00    +0.000 A 
ATOM      4  C   UNL     1      45.668   5.797  12.731  0.00  0.00    +0.000 A 
ATOM      5  C   UNL     1      46.355   5.759  13.960  0.00  0.00    +0.000 A 
ATOM      6  C   UNL     1      46.788   4.522  14.464  0.00  0.00    +0.000 A 
ATOM      7  C   UNL     1      46.551   3.352  13.727  0.00  0.00    +0.000 A 
ATOM      8  C   UNL     1      45.885   3.375  12.493  0.00  0.00    +0.000 A 
ATOM      9  C   UNL     1      45.432   4.617  12.030  0.00  0.00    +0.000 A 
ENDROOT
BRANCH   6  10
ATOM     10  C   UNL     1      47.489   4.384  15.776  0.00  0.00    +0.000 C 
ATOM     11  N   UNL     1      48.403   5.333  16.140  0.00  0.00    +0.000 N 
ATOM     12  O   UNL     1      47.260   3.442  16.528  0.00  0.00    +0.000 OA
ATOM     13  H   UNL     1      48.659   6.143  15.599  0.00  0.00    +0.000 HD
ATOM     14  H   UNL     1      48.856   5.206  17.036  0.00  0.00    +0.000 HD
ENDBRANCH   6  10
BRANCH   1  15
ATOM     15  C   UNL     1      44.099   4.125   9.914  0.00  0.00    +0.000 C 
BRANCH  15  18
ATOM     16  C   UNL     1      46.344   1.770   7.861  0.00  0.00    +0.000 A 
ATOM     17  C   UNL     1      45.339   2.224   8.732  0.00  0.00    +0.000 A 
ATOM     18  C   UNL     1      45.123   3.603   8.924  0.00  0.00    +0.000 A 
ATOM     19  C   UNL     1      45.875   4.512   8.164  0.00  0.00    +0.000 A 
ATOM     20  C   UNL     1      46.851   4.061   7.274  0.00  0.00    +0.000 A 
ATOM     21  C   UNL     1      47.092   2.697   7.138  0.00  0.00    +0.000 A 
ATOM     22  F   UNL     1      48.063   2.297   6.309  0.00  0.00    +0.000 F 
BRANCH  16  24
ATOM     23  N   UNL     1      46.818  -0.766   7.618  0.00  0.00    +0.000 NA
ATOM     24  C   UNL     1      46.620   0.368   7.743  0.00  0.00    +0.000 C 
ENDBRANCH  16  24
ENDBRANCH  15  18
ENDBRANCH   1  15
TORSDOF 4
ENDMDL
MODEL 5
REMARK VINA RESULT:    -6.977      3.472      6.690
REMARK INTER + INTRA:          -9.224
REMARK INTER:                  -8.632
REMARK INTRA:                  -0.591
REMARK UNBOUND:                -0.615
REMARK  Name = 
REMARK  4 active torsions:
REMARK  status: ('A' for Active; 'I' for Inactive)
REMARK    1  A    between atoms: C_2  and  C_3
REMARK    2  A    between atoms: C_5  and  C_6
REMARK    3  A    between atoms: C_6  and  N_7
REMARK    4  A    between atoms: C_12  and  C_13
REMARK                            x       y       z     vdW  Elec       q    Type
REMARK                         _______ _______ _______ _____ _____    ______ ____
ROOT
ATOM      1  N   UNL     1      44.404   6.812  11.759  0.00  0.00    +0.000 N 
ATOM      2  N   UNL     1      44.289   8.109  11.390  0.00  0.00    +0.000 NA
ATOM      3  C   UNL     1      45.360   8.688  11.935  0.00  0.00    +0.000 A 
ATOM      4  C   UNL     1      46.186   7.773  12.624  0.00  0.00    +0.000 A 
ATOM      5  C   UNL     1      47.378   7.864  13.370  0.00  0.00    +0.000 A 
ATOM      6  C   UNL     1      47.913   6.702  13.949  0.00  0.00    +0.000 A 
ATOM      7  C   UNL     1      47.268   5.471  13.756  0.00  0.00    +0.000 A 
ATOM      8  C   UNL     1      46.091   5.362  13.000  0.00  0.00    +0.000 A 
ATOM      9  C   UNL     1      45.559   6.541  12.464  0.00  0.00    +0.000 A 
ENDROOT
BRANCH   6  10
ATOM     10  C   UNL     1      49.149   6.712  14.787  0.00  0.00    +0.000 C 
ATOM     11  N   UNL     1      50.239   7.410  14.348  0.00  0.00    +0.000 N 
ATOM     12  O   UNL     1      49.203   6.111  15.855  0.00  0.00    +0.000 OA
ATOM     13  H   UNL     1      50.296   7.938  13.492  0.00  0.00    +0.000 HD
ATOM     14  H   UNL     1      51.058   7.394  14.943  0.00  0.00    +0.000 HD
ENDBRANCH   6  10
BRANCH   1  15
ATOM     15  C   UNL     1      43.339   5.879  11.402  0.00  0.00    +0.000 C 
BRANCH  15  18
ATOM     16  C   UNL     1      45.055   3.572   8.847  0.00  0.00    +0.000 A 
ATOM     17  C   UNL     1      44.651   4.732   9.528  0.00  0.00    +0.000 A 
ATOM     18  C   UNL     1      43.855   4.645  10.688  0.00  0.00    +0.000 A 
ATOM     19  C   UNL     1      43.546   3.373  11.194  0.00  0.00    +0.000 A 
ATOM     20  C   UNL     1      43.975   2.219  10.537  0.00  0.00    +0.000 A 
ATOM     21  C   UNL     1      44.711   2.323   9.361  0.00  0.00    +0.000 A 
ATOM     22  F   UNL     1      45.072   1.199   8.730  0.00  0.00    +0.000 F 
BRANCH  16  24
ATOM     23  N   UNL     1      46.383   3.714   6.626  0.00  0.00    +0.000 NA
ATOM     24  C   UNL     1      45.784   3.671   7.616  0.00  0.00    +0.000 C 
ENDBRANCH  16  24
ENDBRANCH  15  18
ENDBRANCH   1  15
TORSDOF 4
ENDMDL
MODEL 6
REMARK VINA RESULT:    -6.299      3.764      6.725
REMARK INTER + INTRA:          -8.388
REMARK INTER:                  -7.718
REMARK INTRA:                  -0.670
REMARK UNBOUND:                -0.615
REMARK  Name = 
REMARK  4 active torsions:
REMARK  status: ('A' for Active; 'I' for Inactive)
REMARK    1  A    between atoms: C_2  and  C_3
REMARK    2  A    between atoms: C_5  and  C_6
REMARK    3  A    between atoms: C_6  and  N_7
REMARK    4  A    between atoms: C_12  and  C_13
REMARK                            x       y       z     vdW  Elec       q    Type
REMARK                         _______ _______ _______ _____ _____    ______ ____
ROOT
ATOM      1  N   UNL     1      45.909   5.954  12.965  0.00  0.00    +0.000 N 
ATOM      2  N   UNL     1      46.059   5.118  14.018  0.00  0.00    +0.000 NA
ATOM      3  C   UNL     1      47.296   5.371  14.449  0.00  0.00    +0.000 A 
ATOM      4  C   UNL     1      47.937   6.387  13.707  0.00  0.00    +0.000 A 
ATOM      5  C   UNL     1      49.208   6.994  13.728  0.00  0.00    +0.000 A 
ATOM      6  C   UNL     1      49.506   7.991  12.785  0.00  0.00    +0.000 A 
ATOM      7  C   UNL     1      48.530   8.381  11.856  0.00  0.00    +0.000 A 
ATOM      8  C   UNL     1      47.254   7.798  11.833  0.00  0.00    +0.000 A 
ATOM      9  C   UNL     1      46.994   6.782  12.761  0.00  0.00    +0.000 A 
ENDROOT
BRANCH   6  10
ATOM     10  C   UNL     1      50.840   8.660  12.710  0.00  0.00    +0.000 C 
ATOM     11  N   UNL     1      51.882   8.137  13.424  0.00  0.00    +0.000 N 
ATOM     12  O   UNL     1      51.015   9.661  12.025  0.00  0.00    +0.000 OA
ATOM     13  H   UNL     1      51.843   7.321  14.012  0.00  0.00    +0.000 HD
ATOM     14  H   UNL     1      52.769   8.617  13.348  0.00  0.00    +0.000 HD
ENDBRANCH   6  10
BRANCH   1  15
ATOM     15  C   UNL     1      44.678   5.889  12.182  0.00  0.00    +0.000 C 
BRANCH  15  18
ATOM     16  C   UNL     1      45.259   3.725   9.055  0.00  0.00    +0.000 A 
ATOM     17  C   UNL     1      45.347   4.786   9.972  0.00  0.00    +0.000 A 
ATOM     18  C   UNL     1      44.665   4.730  11.204  0.00  0.00    +0.000 A 
ATOM     19  C   UNL     1      43.966   3.558  11.530  0.00  0.00    +0.000 A 
ATOM     20  C   UNL     1      43.905   2.490  10.634  0.00  0.00    +0.000 A 
ATOM     21  C   UNL     1      44.536   2.584   9.397  0.00  0.00    +0.000 A 
ATOM     22  F   UNL     1      44.424   1.561   8.541  0.00  0.00    +0.000 F 
BRANCH  16  24
ATOM     23  N   UNL     1      46.384   3.876   6.725  0.00  0.00    +0.000 NA
ATOM     24  C   UNL     1      45.877   3.830   7.765  0.00  0.00    +0.000 C 
ENDBRANCH  16  24
ENDBRANCH  15  18
ENDBRANCH   1  15
TORSDOF 4
ENDMDL
MODEL 7
REMARK VINA RESULT:    -5.974      3.832      5.432
REMARK INTER + INTRA:          -7.985
REMARK INTER:                  -7.350
REMARK INTRA:                  -0.636
REMARK UNBOUND:                -0.615
REMARK  Name = 
REMARK  4 active torsions:
REMARK  status: ('A' for Active; 'I' for Inactive)
REMARK    1  A    between atoms: C_2  and  C_3
REMARK    2  A    between atoms: C_5  and  C_6
REMARK    3  A    between atoms: C_6  and  N_7
REMARK    4  A    between atoms: C_12  and  C_13
REMARK                            x       y       z     vdW  Elec       q    Type
REMARK                         _______ _______ _______ _____ _____    ______ ____
ROOT
ATOM      1  N   UNL     1      47.417   6.690  13.320  0.00  0.00    +0.000 N 
ATOM      2  N   UNL     1      47.859   6.063  14.434  0.00  0.00    +0.000 NA
ATOM      3  C   UNL     1      47.272   4.866  14.376  0.00  0.00    +0.000 A 
ATOM      4  C   UNL     1      46.483   4.699  13.218  0.00  0.00    +0.000 A 
ATOM      5  C   UNL     1      45.662   3.676  12.703  0.00  0.00    +0.000 A 
ATOM      6  C   UNL     1      44.990   3.884  11.488  0.00  0.00    +0.000 A 
ATOM      7  C   UNL     1      45.163   5.094  10.798  0.00  0.00    +0.000 A 
ATOM      8  C   UNL     1      45.991   6.115  11.288  0.00  0.00    +0.000 A 
ATOM      9  C   UNL     1      46.623   5.896  12.519  0.00  0.00    +0.000 A 
ENDROOT
BRANCH   6  10
ATOM     10  C   UNL     1      44.071   2.871  10.888  0.00  0.00    +0.000 C 
ATOM     11  N   UNL     1      44.483   2.175   9.787  0.00  0.00    +0.000 N 
ATOM     12  O   UNL     1      42.961   2.653  11.363  0.00  0.00    +0.000 OA
ATOM     13  H   UNL     1      45.372   2.275   9.325  0.00  0.00    +0.000 HD
ATOM     14  H   UNL     1      43.834   1.497   9.409  0.00  0.00    +0.000 HD
ENDBRANCH   6  10
BRANCH   1  15
ATOM     15  C   UNL     1      47.798   8.082  13.095  0.00  0.00    +0.000 C 
BRANCH  15  18
ATOM     16  C   UNL     1      51.237   7.915  11.379  0.00  0.00    +0.000 A 
ATOM     17  C   UNL     1      49.852   7.816  11.592  0.00  0.00    +0.000 A 
ATOM     18  C   UNL     1      49.278   8.246  12.805  0.00  0.00    +0.000 A 
ATOM     19  C   UNL     1      50.107   8.852  13.761  0.00  0.00    +0.000 A 
ATOM     20  C   UNL     1      51.479   8.981  13.537  0.00  0.00    +0.000 A 
ATOM     21  C   UNL     1      52.039   8.499  12.358  0.00  0.00    +0.000 A 
ATOM     22  F   UNL     1      53.363   8.598  12.190  0.00  0.00    +0.000 F 
BRANCH  16  24
ATOM     23  N   UNL     1      52.325   6.995   9.214  0.00  0.00    +0.000 NA
ATOM     24  C   UNL     1      51.826   7.389  10.182  0.00  0.00    +0.000 C 
ENDBRANCH  16  24
ENDBRANCH  15  18
ENDBRANCH   1  15
TORSDOF 4
ENDMDL
MODEL 8
REMARK VINA RESULT:    -5.864      3.819      5.430
REMARK INTER + INTRA:          -7.850
REMARK INTER:                  -7.224
REMARK INTRA:                  -0.626
REMARK UNBOUND:                -0.615
REMARK  Name = 
REMARK  4 active torsions:
REMARK  status: ('A' for Active; 'I' for Inactive)
REMARK    1  A    between atoms: C_2  and  C_3
REMARK    2  A    between atoms: C_5  and  C_6
REMARK    3  A    between atoms: C_6  and  N_7
REMARK    4  A    between atoms: C_12  and  C_13
REMARK                            x       y       z     vdW  Elec       q    Type
REMARK                         _______ _______ _______ _____ _____    ______ ____
ROOT
ATOM      1  N   UNL     1      47.478   6.493  13.631  0.00  0.00    +0.000 N 
ATOM      2  N   UNL     1      47.856   5.712  14.669  0.00  0.00    +0.000 NA
ATOM      3  C   UNL     1      47.203   4.568  14.456  0.00  0.00    +0.000 A 
ATOM      4  C   UNL     1      46.434   4.588  13.273  0.00  0.00    +0.000 A 
ATOM      5  C   UNL     1      45.569   3.685  12.624  0.00  0.00    +0.000 A 
ATOM      6  C   UNL     1      44.940   4.077  11.431  0.00  0.00    +0.000 A 
ATOM      7  C   UNL     1      45.200   5.348  10.896  0.00  0.00    +0.000 A 
ATOM      8  C   UNL     1      46.072   6.251  11.520  0.00  0.00    +0.000 A 
ATOM      9  C   UNL     1      46.660   5.849  12.727  0.00  0.00    +0.000 A 
ENDROOT
BRANCH   6  10
ATOM     10  C   UNL     1      43.979   3.200  10.698  0.00  0.00    +0.000 C 
ATOM     11  N   UNL     1      44.139   3.027   9.351  0.00  0.00    +0.000 N 
ATOM     12  O   UNL     1      43.057   2.636  11.277  0.00  0.00    +0.000 OA
ATOM     13  H   UNL     1      44.862   3.440   8.785  0.00  0.00    +0.000 HD
ATOM     14  H   UNL     1      43.469   2.425   8.889  0.00  0.00    +0.000 HD
ENDBRANCH   6  10
BRANCH   1  15
ATOM     15  C   UNL     1      47.945   7.876  13.583  0.00  0.00    +0.000 C 
BRANCH  15  18
ATOM     16  C   UNL     1      51.718   8.548  13.246  0.00  0.00    +0.000 A 
ATOM     17  C   UNL     1      50.446   8.368  13.814  0.00  0.00    +0.000 A 
ATOM     18  C   UNL     1      49.345   8.004  13.013  0.00  0.00    +0.000 A 
ATOM     19  C   UNL     1      49.563   7.745  11.652  0.00  0.00    +0.000 A 
ATOM     20  C   UNL     1      50.833   7.892  11.092  0.00  0.00    +0.000 A 
ATOM     21  C   UNL     1      51.898   8.307  11.886  0.00  0.00    +0.000 A 
ATOM     22  F   UNL     1      53.095   8.481  11.312  0.00  0.00    +0.000 F 
BRANCH  16  24
ATOM     23  N   UNL     1      53.719   9.357  14.680  0.00  0.00    +0.000 NA
ATOM     24  C   UNL     1      52.811   9.009  14.050  0.00  0.00    +0.000 C 
ENDBRANCH  16  24
ENDBRANCH  15  18
ENDBRANCH   1  15
TORSDOF 4
ENDMDL
MODEL 9
REMARK VINA RESULT:    -5.813      5.832      8.998
REMARK INTER + INTRA:          -7.788
REMARK INTER:                  -7.167
REMARK INTRA:                  -0.621
REMARK UNBOUND:                -0.615
REMARK  Name = 
REMARK  4 active torsions:
REMARK  status: ('A' for Active; 'I' for Inactive)
REMARK    1  A    between atoms: C_2  and  C_3
REMARK    2  A    between atoms: C_5  and  C_6
REMARK    3  A    between atoms: C_6  and  N_7
REMARK    4  A    between atoms: C_12  and  C_13
REMARK                            x       y       z     vdW  Elec       q    Type
REMARK                         _______ _______ _______ _____ _____    ______ ____
ROOT
ATOM      1  N   UNL     1      49.783   4.816  17.865  0.00  0.00    +0.000 N 
ATOM      2  N   UNL     1      50.530   5.851  18.312  0.00  0.00    +0.000 NA
ATOM      3  C   UNL     1      51.733   5.310  18.509  0.00  0.00    +0.000 A 
ATOM      4  C   UNL     1      51.783   3.943  18.161  0.00  0.00    +0.000 A 
ATOM      5  C   UNL     1      52.765   2.934  18.199  0.00  0.00    +0.000 A 
ATOM      6  C   UNL     1      52.430   1.636  17.778  0.00  0.00    +0.000 A 
ATOM      7  C   UNL     1      51.135   1.373  17.307  0.00  0.00    +0.000 A 
ATOM      8  C   UNL     1      50.151   2.372  17.245  0.00  0.00    +0.000 A 
ATOM      9  C   UNL     1      50.501   3.648  17.704  0.00  0.00    +0.000 A 
ENDROOT
BRANCH   6  10
ATOM     10  C   UNL     1      53.396   0.498  17.821  0.00  0.00    +0.000 C 
ATOM     11  N   UNL     1      53.662  -0.187  16.668  0.00  0.00    +0.000 N 
ATOM     12  O   UNL     1      53.951   0.169  18.864  0.00  0.00    +0.000 OA
ATOM     13  H   UNL     1      53.263   0.005  15.764  0.00  0.00    +0.000 HD
ATOM     14  H   UNL     1      54.321  -0.951  16.737  0.00  0.00    +0.000 HD
ENDBRANCH   6  10
BRANCH   1  15
ATOM     15  C   UNL     1      48.359   5.026  17.620  0.00  0.00    +0.000 C 
BRANCH  15  18
ATOM     16  C   UNL     1      46.979   4.737  14.041  0.00  0.00    +0.000 A 
ATOM     17  C   UNL     1      47.191   4.488  15.407  0.00  0.00    +0.000 A 
ATOM     18  C   UNL     1      48.049   5.312  16.163  0.00  0.00    +0.000 A 
ATOM     19  C   UNL     1      48.620   6.434  15.542  0.00  0.00    +0.000 A 
ATOM     20  C   UNL     1      48.383   6.701  14.193  0.00  0.00    +0.000 A 
ATOM     21  C   UNL     1      47.579   5.844  13.446  0.00  0.00    +0.000 A 
ATOM     22  F   UNL     1      47.406   6.102  12.144  0.00  0.00    +0.000 F 
BRANCH  16  24
ATOM     23  N   UNL     1      45.545   3.135  12.593  0.00  0.00    +0.000 NA
ATOM     24  C   UNL     1      46.180   3.839  13.258  0.00  0.00    +0.000 C 
ENDBRANCH  16  24
ENDBRANCH  15  18
ENDBRANCH   1  15
TORSDOF 4
ENDMDL
