MODEL 1
REMARK VINA RESULT:    -8.123      0.000      0.000
REMARK INTER + INTRA:         -10.618
REMARK INTER:                 -10.023
REMARK INTRA:                  -0.595
REMARK UNBOUND:                -0.595
REMARK  Name = 
REMARK  7 active torsions:
REMARK  status: ('A' for Active; 'I' for Inactive)
REMARK    1  A    between atoms: C_1  and  C_2
REMARK    2  A    between atoms: C_2  and  C_3
REMARK    3  A    between atoms: C_2  and  C_4
REMARK    4  A    between atoms: C_2  and  C_5
REMARK    5  A    between atoms: N_9  and  C_10
REMARK    6  A    between atoms: C_10  and  C_11
REMARK    7  A    between atoms: C_16  and  C_17
REMARK                            x       y       z     vdW  Elec       q    Type
REMARK                         _______ _______ _______ _____ _____    ______ ____
ROOT
ATOM      1  C   UNL     1      43.730   5.322  11.470  0.00  0.00    +0.000 C 
ATOM      2  C   UNL     1      42.480   5.746  12.233  0.00  0.00    +0.000 C 
ATOM      3  C   UNL     1      42.919   6.532  11.042  0.00  0.00    +0.000 C 
ENDROOT
BRANCH   1   8
ATOM      4  C   UNL     1      46.187   2.624   7.839  0.00  0.00    +0.000 A 
ATOM      5  C   UNL     1      45.563   1.829   8.778  0.00  0.00    +0.000 A 
ATOM      6  N   UNL     1      44.757   2.289   9.760  0.00  0.00    +0.000 NA
ATOM      7  C   UNL     1      44.575   3.614   9.836  0.00  0.00    +0.000 A 
ATOM      8  N   UNL     1      43.642   4.029  10.785  0.00  0.00    +0.000 N 
ATOM      9  N   UNL     1      45.174   4.487   9.017  0.00  0.00    +0.000 NA
ATOM     10  C   UNL     1      45.950   3.975   8.036  0.00  0.00    +0.000 A 
ATOM     11  H   UNL     1      43.418   3.211  11.338  0.00  0.00    +0.000 HD
BRANCH   4  13
ATOM     12  C   UNL     1      48.505   2.554   6.734  0.00  0.00    +0.000 C 
ATOM     13  C   UNL     1      47.029   2.099   6.681  0.00  0.00    +0.000 C 
ATOM     14  C   UNL     1      46.440   2.587   5.342  0.00  0.00    +0.000 C 
ATOM     15  C   UNL     1      47.027   0.554   6.700  0.00  0.00    +0.000 C 
ENDBRANCH   4  13
ENDBRANCH   1   8
BRANCH   1  16
ATOM     16  C   UNL     1      45.089   5.594  12.107  0.00  0.00    +0.000 A 
ATOM     17  C   UNL     1      45.889   6.660  11.669  0.00  0.00    +0.000 A 
ATOM     18  C   UNL     1      47.101   6.965  12.292  0.00  0.00    +0.000 A 
ATOM     19  C   UNL     1      47.557   6.199  13.371  0.00  0.00    +0.000 A 
ATOM     20 CL   UNL     1      49.020   6.735  14.122  0.00  0.00    +0.000 Cl
ATOM     21  C   UNL     1      46.808   5.100  13.809  0.00  0.00    +0.000 A 
ATOM     22  C   UNL     1      45.587   4.812  13.166  0.00  0.00    +0.000 A 
BRANCH  21  23
ATOM     23  C   UNL     1      47.171   4.211  14.945  0.00  0.00    +0.000 C 
ATOM     24  N   UNL     1      47.131   4.717  16.211  0.00  0.00    +0.000 N 
ATOM     25  O   UNL     1      47.540   3.055  14.754  0.00  0.00    +0.000 OA
ATOM     26  H   UNL     1      46.752   5.631  16.426  0.00  0.00    +0.000 HD
ATOM     27  H   UNL     1      47.318   4.082  16.976  0.00  0.00    +0.000 HD
ENDBRANCH  21  23
ENDBRANCH   1  16
TORSDOF 4
ENDMDL
MODEL 2
REMARK VINA RESULT:    -7.165      3.098      6.755
REMARK INTER + INTRA:          -9.436
REMARK INTER:                  -9.855
REMARK INTRA:                   0.419
REMARK UNBOUND:                -0.595
REMARK  Name = 
REMARK  7 active torsions:
REMARK  status: ('A' for Active; 'I' for Inactive)
REMARK    1  A    between atoms: C_1  and  C_2
REMARK    2  A    between atoms: C_2  and  C_3
REMARK    3  A    between atoms: C_2  and  C_4
REMARK    4  A    between atoms: C_2  and  C_5
REMARK    5  A    between atoms: N_9  and  C_10
REMARK    6  A    between atoms: C_10  and  C_11
REMARK    7  A    between atoms: C_16  and  C_17
REMARK                            x       y       z     vdW  Elec       q    Type
REMARK                         _______ _______ _______ _____ _____    ______ ____
ROOT
ATOM      1  C   UNL     1      44.435   2.961  11.306  0.00  0.00    +0.000 C 
ATOM      2  C   UNL     1      43.174   3.738  11.664  0.00  0.00    +0.000 C 
ATOM      3  C   UNL     1      43.102   2.258  11.487  0.00  0.00    +0.000 C 
ENDROOT
BRANCH   1   8
ATOM      4  C   UNL     1      47.547   6.230  13.783  0.00  0.00    +0.000 A 
ATOM      5  C   UNL     1      47.221   5.117  14.531  0.00  0.00    +0.000 A 
ATOM      6  N   UNL     1      46.518   4.060  14.068  0.00  0.00    +0.000 NA
ATOM      7  C   UNL     1      46.093   4.112  12.799  0.00  0.00    +0.000 A 
ATOM      8  N   UNL     1      45.481   2.950  12.332  0.00  0.00    +0.000 N 
ATOM      9  N   UNL     1      46.299   5.164  11.996  0.00  0.00    +0.000 NA
ATOM     10  C   UNL     1      47.028   6.185  12.500  0.00  0.00    +0.000 A 
ATOM     11  H   UNL     1      45.349   2.355  13.141  0.00  0.00    +0.000 HD
BRANCH   4  13
ATOM     12  C   UNL     1      48.959   7.176  15.710  0.00  0.00    +0.000 C 
ATOM     13  C   UNL     1      48.409   7.385  14.280  0.00  0.00    +0.000 C 
ATOM     14  C   UNL     1      47.585   8.688  14.285  0.00  0.00    +0.000 C 
ATOM     15  C   UNL     1      49.627   7.561  13.345  0.00  0.00    +0.000 C 
ENDBRANCH   4  13
ENDBRANCH   1   8
BRANCH   1  16
ATOM     16  C   UNL     1      44.967   3.070   9.880  0.00  0.00    +0.000 A 
ATOM     17  C   UNL     1      44.777   4.238   9.127  0.00  0.00    +0.000 A 
ATOM     18  C   UNL     1      45.322   4.377   7.849  0.00  0.00    +0.000 A 
ATOM     19  C   UNL     1      46.068   3.340   7.278  0.00  0.00    +0.000 A 
ATOM     20 CL   UNL     1      46.776   3.668   5.735  0.00  0.00    +0.000 Cl
ATOM     21  C   UNL     1      46.243   2.141   7.982  0.00  0.00    +0.000 A 
ATOM     22  C   UNL     1      45.685   2.023   9.271  0.00  0.00    +0.000 A 
BRANCH  21  23
ATOM     23  C   UNL     1      47.017   0.966   7.498  0.00  0.00    +0.000 C 
ATOM     24  N   UNL     1      46.579  -0.284   7.821  0.00  0.00    +0.000 N 
ATOM     25  O   UNL     1      48.054   1.110   6.855  0.00  0.00    +0.000 OA
ATOM     26  H   UNL     1      45.688  -0.456   8.271  0.00  0.00    +0.000 HD
ATOM     27  H   UNL     1      47.079  -1.072   7.431  0.00  0.00    +0.000 HD
ENDBRANCH  21  23
ENDBRANCH   1  16
TORSDOF 4
ENDMDL
MODEL 3
REMARK VINA RESULT:    -6.977      1.678      2.093
REMARK INTER + INTRA:          -9.204
REMARK INTER:                  -8.593
REMARK INTRA:                  -0.611
REMARK UNBOUND:                -0.595
REMARK  Name = 
REMARK  7 active torsions:
REMARK  status: ('A' for Active; 'I' for Inactive)
REMARK    1  A    between atoms: C_1  and  C_2
REMARK    2  A    between atoms: C_2  and  C_3
REMARK    3  A    between atoms: C_2  and  C_4
REMARK    4  A    between atoms: C_2  and  C_5
REMARK    5  A    between atoms: N_9  and  C_10
REMARK    6  A    between atoms: C_10  and  C_11
REMARK    7  A    between atoms: C_16  and  C_17
REMARK                            x       y       z     vdW  Elec       q    Type
REMARK                         _______ _______ _______ _____ _____    ______ ____
ROOT
ATOM      1  C   UNL     1      43.597   5.123  11.545  0.00  0.00    +0.000 C 
ATOM      2  C   UNL     1      42.242   5.583  12.067  0.00  0.00    +0.000 C 
ATOM      3  C   UNL     1      42.914   6.357  10.982  0.00  0.00    +0.000 C 
ENDROOT
BRANCH   1   8
ATOM      4  C   UNL     1      46.174   2.675   7.821  0.00  0.00    +0.000 A 
ATOM      5  C   UNL     1      45.644   1.821   8.766  0.00  0.00    +0.000 A 
ATOM      6  N   UNL     1      44.829   2.204   9.774  0.00  0.00    +0.000 NA
ATOM      7  C   UNL     1      44.539   3.507   9.869  0.00  0.00    +0.000 A 
ATOM      8  N   UNL     1      43.600   3.835  10.847  0.00  0.00    +0.000 N 
ATOM      9  N   UNL     1      45.041   4.435   9.045  0.00  0.00    +0.000 NA
ATOM     10  C   UNL     1      45.831   3.998   8.039  0.00  0.00    +0.000 A 
ATOM     11  H   UNL     1      43.459   2.995  11.396  0.00  0.00    +0.000 HD
BRANCH   4  13
ATOM     12  C   UNL     1      48.476   2.766   6.684  0.00  0.00    +0.000 C 
ATOM     13  C   UNL     1      47.026   2.232   6.636  0.00  0.00    +0.000 C 
ATOM     14  C   UNL     1      46.393   2.730   5.321  0.00  0.00    +0.000 C 
ATOM     15  C   UNL     1      47.108   0.690   6.605  0.00  0.00    +0.000 C 
ENDBRANCH   4  13
ENDBRANCH   1   8
BRANCH   1  16
ATOM     16  C   UNL     1      44.824   5.355  12.421  0.00  0.00    +0.000 A 
ATOM     17  C   UNL     1      45.403   4.302  13.143  0.00  0.00    +0.000 A 
ATOM     18  C   UNL     1      46.569   4.485  13.890  0.00  0.00    +0.000 A 
ATOM     19  C   UNL     1      47.186   5.740  13.947  0.00  0.00    +0.000 A 
ATOM     20 CL   UNL     1      48.676   5.819  14.820  0.00  0.00    +0.000 Cl
ATOM     21  C   UNL     1      46.613   6.827  13.275  0.00  0.00    +0.000 A 
ATOM     22  C   UNL     1      45.438   6.618  12.526  0.00  0.00    +0.000 A 
BRANCH  21  23
ATOM     23  C   UNL     1      47.168   8.207  13.244  0.00  0.00    +0.000 C 
ATOM     24  N   UNL     1      47.116   8.958  14.381  0.00  0.00    +0.000 N 
ATOM     25  O   UNL     1      47.627   8.684  12.209  0.00  0.00    +0.000 OA
ATOM     26  H   UNL     1      46.828   8.582  15.276  0.00  0.00    +0.000 HD
ATOM     27  H   UNL     1      47.554   9.870  14.362  0.00  0.00    +0.000 HD
ENDBRANCH  21  23
ENDBRANCH   1  16
TORSDOF 4
ENDMDL
MODEL 4
REMARK VINA RESULT:    -6.050      3.791      8.384
REMARK INTER + INTRA:          -8.059
REMARK INTER:                  -7.428
REMARK INTRA:                  -0.631
REMARK UNBOUND:                -0.595
REMARK  Name = 
REMARK  7 active torsions:
REMARK  status: ('A' for Active; 'I' for Inactive)
REMARK    1  A    between atoms: C_1  and  C_2
REMARK    2  A    between atoms: C_2  and  C_3
REMARK    3  A    between atoms: C_2  and  C_4
REMARK    4  A    between atoms: C_2  and  C_5
REMARK    5  A    between atoms: N_9  and  C_10
REMARK    6  A    between atoms: C_10  and  C_11
REMARK    7  A    between atoms: C_16  and  C_17
REMARK                            x       y       z     vdW  Elec       q    Type
REMARK                         _______ _______ _______ _____ _____    ______ ____
ROOT
ATOM      1  C   UNL     1      48.556   7.482  12.593  0.00  0.00    +0.000 C 
ATOM      2  C   UNL     1      49.426   7.770  11.375  0.00  0.00    +0.000 C 
ATOM      3  C   UNL     1      48.902   8.905  12.190  0.00  0.00    +0.000 C 
ENDROOT
BRANCH   1   8
ATOM      4  C   UNL     1      48.570   7.380  17.740  0.00  0.00    +0.000 A 
ATOM      5  C   UNL     1      48.908   6.169  17.171  0.00  0.00    +0.000 A 
ATOM      6  N   UNL     1      49.091   5.967  15.848  0.00  0.00    +0.000 NA
ATOM      7  C   UNL     1      48.907   7.015  15.035  0.00  0.00    +0.000 A 
ATOM      8  N   UNL     1      49.226   6.788  13.696  0.00  0.00    +0.000 N 
ATOM      9  N   UNL     1      48.522   8.223  15.466  0.00  0.00    +0.000 NA
ATOM     10  C   UNL     1      48.376   8.379  16.800  0.00  0.00    +0.000 A 
ATOM     11  H   UNL     1      49.382   5.792  13.607  0.00  0.00    +0.000 HD
BRANCH   4  13
ATOM     12  C   UNL     1      49.805   7.746  19.963  0.00  0.00    +0.000 C 
ATOM     13  C   UNL     1      48.444   7.627  19.239  0.00  0.00    +0.000 C 
ATOM     14  C   UNL     1      47.668   6.468  19.897  0.00  0.00    +0.000 C 
ATOM     15  C   UNL     1      47.682   8.949  19.483  0.00  0.00    +0.000 C 
ENDBRANCH   4  13
ENDBRANCH   1   8
BRANCH   1  16
ATOM     16  C   UNL     1      47.117   7.032  12.361  0.00  0.00    +0.000 A 
ATOM     17  C   UNL     1      46.079   7.968  12.247  0.00  0.00    +0.000 A 
ATOM     18  C   UNL     1      44.770   7.573  11.961  0.00  0.00    +0.000 A 
ATOM     19  C   UNL     1      44.458   6.219  11.793  0.00  0.00    +0.000 A 
ATOM     20 CL   UNL     1      42.826   5.863  11.343  0.00  0.00    +0.000 Cl
ATOM     21  C   UNL     1      45.459   5.252  11.942  0.00  0.00    +0.000 A 
ATOM     22  C   UNL     1      46.773   5.673  12.229  0.00  0.00    +0.000 A 
BRANCH  21  23
ATOM     23  C   UNL     1      45.267   3.785  11.781  0.00  0.00    +0.000 C 
ATOM     24  N   UNL     1      45.597   2.964  12.819  0.00  0.00    +0.000 N 
ATOM     25  O   UNL     1      44.859   3.310  10.724  0.00  0.00    +0.000 OA
ATOM     26  H   UNL     1      45.854   3.312  13.735  0.00  0.00    +0.000 HD
ATOM     27  H   UNL     1      45.401   1.977  12.717  0.00  0.00    +0.000 HD
ENDBRANCH  21  23
ENDBRANCH   1  16
TORSDOF 4
ENDMDL
MODEL 5
REMARK VINA RESULT:    -5.494      3.590      6.128
REMARK INTER + INTRA:          -7.374
REMARK INTER:                  -6.894
REMARK INTRA:                  -0.480
REMARK UNBOUND:                -0.595
REMARK  Name = 
REMARK  7 active torsions:
REMARK  status: ('A' for Active; 'I' for Inactive)
REMARK    1  A    between atoms: C_1  and  C_2
REMARK    2  A    between atoms: C_2  and  C_3
REMARK    3  A    between atoms: C_2  and  C_4
REMARK    4  A    between atoms: C_2  and  C_5
REMARK    5  A    between atoms: N_9  and  C_10
REMARK    6  A    between atoms: C_10  and  C_11
REMARK    7  A    between atoms: C_16  and  C_17
REMARK                            x       y       z     vdW  Elec       q    Type
REMARK                         _______ _______ _______ _____ _____    ______ ____
ROOT
ATOM      1  C   UNL     1      49.313   7.929  15.101  0.00  0.00    +0.000 C 
ATOM      2  C   UNL     1      50.543   8.828  15.103  0.00  0.00    +0.000 C 
ATOM      3  C   UNL     1      50.655   7.427  14.602  0.00  0.00    +0.000 C 
ENDROOT
BRANCH   1   8
ATOM      4  C   UNL     1      45.609   5.835  12.203  0.00  0.00    +0.000 A 
ATOM      5  C   UNL     1      45.290   7.094  12.666  0.00  0.00    +0.000 A 
ATOM      6  N   UNL     1      46.136   7.900  13.345  0.00  0.00    +0.000 NA
ATOM      7  C   UNL     1      47.362   7.426  13.603  0.00  0.00    +0.000 A 
ATOM      8  N   UNL     1      48.235   8.337  14.196  0.00  0.00    +0.000 N 
ATOM      9  N   UNL     1      47.765   6.198  13.254  0.00  0.00    +0.000 NA
ATOM     10  C   UNL     1      46.889   5.441  12.556  0.00  0.00    +0.000 A 
ATOM     11  H   UNL     1      47.674   9.140  14.454  0.00  0.00    +0.000 HD
BRANCH   4  13
ATOM     12  C   UNL     1      43.221   5.460  11.335  0.00  0.00    +0.000 C 
ATOM     13  C   UNL     1      44.683   4.959  11.366  0.00  0.00    +0.000 C 
ATOM     14  C   UNL     1      44.670   3.524  11.929  0.00  0.00    +0.000 C 
ATOM     15  C   UNL     1      45.184   4.924   9.905  0.00  0.00    +0.000 C 
ENDBRANCH   4  13
ENDBRANCH   1   8
BRANCH   1  16
ATOM     16  C   UNL     1      48.823   7.374  16.435  0.00  0.00    +0.000 A 
ATOM     17  C   UNL     1      48.566   8.226  17.519  0.00  0.00    +0.000 A 
ATOM     18  C   UNL     1      48.048   7.739  18.721  0.00  0.00    +0.000 A 
ATOM     19  C   UNL     1      47.783   6.374  18.879  0.00  0.00    +0.000 A 
ATOM     20 CL   UNL     1      47.050   5.907  20.374  0.00  0.00    +0.000 Cl
ATOM     21  C   UNL     1      48.068   5.486  17.835  0.00  0.00    +0.000 A 
ATOM     22  C   UNL     1      48.589   5.999  16.630  0.00  0.00    +0.000 A 
BRANCH  21  23
ATOM     23  C   UNL     1      47.828   4.018  17.866  0.00  0.00    +0.000 C 
ATOM     24  N   UNL     1      48.712   3.224  18.536  0.00  0.00    +0.000 N 
ATOM     25  O   UNL     1      46.879   3.517  17.267  0.00  0.00    +0.000 OA
ATOM     26  H   UNL     1      49.456   3.595  19.114  0.00  0.00    +0.000 HD
ATOM     27  H   UNL     1      48.499   2.237  18.602  0.00  0.00    +0.000 HD
ENDBRANCH  21  23
ENDBRANCH   1  16
TORSDOF 4
ENDMDL
MODEL 6
REMARK VINA RESULT:    -5.476      3.542      5.697
REMARK INTER + INTRA:          -7.352
REMARK INTER:                  -6.686
REMARK INTRA:                  -0.666
REMARK UNBOUND:                -0.595
REMARK  Name = 
REMARK  7 active torsions:
REMARK  status: ('A' for Active; 'I' for Inactive)
REMARK    1  A    between atoms: C_1  and  C_2
REMARK    2  A    between atoms: C_2  and  C_3
REMARK    3  A    between atoms: C_2  and  C_4
REMARK    4  A    between atoms: C_2  and  C_5
REMARK    5  A    between atoms: N_9  and  C_10
REMARK    6  A    between atoms: C_10  and  C_11
REMARK    7  A    between atoms: C_16  and  C_17
REMARK                            x       y       z     vdW  Elec       q    Type
REMARK                         _______ _______ _______ _____ _____    ______ ____
ROOT
ATOM      1  C   UNL     1      49.045   8.530  13.114  0.00  0.00    +0.000 C 
ATOM      2  C   UNL     1      50.184   9.413  12.620  0.00  0.00    +0.000 C 
ATOM      3  C   UNL     1      50.248   7.938  12.402  0.00  0.00    +0.000 C 
ENDROOT
BRANCH   1   8
ATOM      4  C   UNL     1      44.809   5.887  11.859  0.00  0.00    +0.000 A 
ATOM      5  C   UNL     1      44.568   7.228  12.078  0.00  0.00    +0.000 A 
ATOM      6  N   UNL     1      45.527   8.153  12.303  0.00  0.00    +0.000 NA
ATOM      7  C   UNL     1      46.796   7.728  12.338  0.00  0.00    +0.000 A 
ATOM      8  N   UNL     1      47.755   8.734  12.450  0.00  0.00    +0.000 N 
ATOM      9  N   UNL     1      47.146   6.443  12.197  0.00  0.00    +0.000 NA
ATOM     10  C   UNL     1      46.152   5.561  11.949  0.00  0.00    +0.000 A 
ATOM     11  H   UNL     1      47.247   9.588  12.648  0.00  0.00    +0.000 HD
BRANCH   4  13
ATOM     12  C   UNL     1      43.823   4.323  10.075  0.00  0.00    +0.000 C 
ATOM     13  C   UNL     1      43.735   4.858  11.523  0.00  0.00    +0.000 C 
ATOM     14  C   UNL     1      42.337   5.483  11.703  0.00  0.00    +0.000 C 
ATOM     15  C   UNL     1      43.871   3.643  12.467  0.00  0.00    +0.000 C 
ENDBRANCH   4  13
ENDBRANCH   1   8
BRANCH   1  16
ATOM     16  C   UNL     1      48.935   8.267  14.613  0.00  0.00    +0.000 A 
ATOM     17  C   UNL     1      48.577   9.293  15.500  0.00  0.00    +0.000 A 
ATOM     18  C   UNL     1      48.401   9.049  16.864  0.00  0.00    +0.000 A 
ATOM     19  C   UNL     1      48.593   7.764  17.385  0.00  0.00    +0.000 A 
ATOM     20 CL   UNL     1      48.248   7.565  19.068  0.00  0.00    +0.000 Cl
ATOM     21  C   UNL     1      48.994   6.723  16.539  0.00  0.00    +0.000 A 
ATOM     22  C   UNL     1      49.164   6.993  15.166  0.00  0.00    +0.000 A 
BRANCH  21  23
ATOM     23  C   UNL     1      49.224   5.315  16.959  0.00  0.00    +0.000 C 
ATOM     24  N   UNL     1      48.155   4.569  17.362  0.00  0.00    +0.000 N 
ATOM     25  O   UNL     1      50.355   4.836  16.984  0.00  0.00    +0.000 OA
ATOM     26  H   UNL     1      47.198   4.889  17.277  0.00  0.00    +0.000 HD
ATOM     27  H   UNL     1      48.319   3.596  17.583  0.00  0.00    +0.000 HD
ENDBRANCH  21  23
ENDBRANCH   1  16
TORSDOF 4
ENDMDL
MODEL 7
REMARK VINA RESULT:    -5.395      3.782      7.835
REMARK INTER + INTRA:          -7.252
REMARK INTER:                  -7.580
REMARK INTRA:                   0.328
REMARK UNBOUND:                -0.595
REMARK  Name = 
REMARK  7 active torsions:
REMARK  status: ('A' for Active; 'I' for Inactive)
REMARK    1  A    between atoms: C_1  and  C_2
REMARK    2  A    between atoms: C_2  and  C_3
REMARK    3  A    between atoms: C_2  and  C_4
REMARK    4  A    between atoms: C_2  and  C_5
REMARK    5  A    between atoms: N_9  and  C_10
REMARK    6  A    between atoms: C_10  and  C_11
REMARK    7  A    between atoms: C_16  and  C_17
REMARK                            x       y       z     vdW  Elec       q    Type
REMARK                         _______ _______ _______ _____ _____    ______ ____
ROOT
ATOM      1  C   UNL     1      48.173   7.700  12.835  0.00  0.00    +0.000 C 
ATOM      2  C   UNL     1      49.415   7.109  12.179  0.00  0.00    +0.000 C 
ATOM      3  C   UNL     1      48.908   8.439  11.731  0.00  0.00    +0.000 C 
ENDROOT
BRANCH   1   8
ATOM      4  C   UNL     1      49.098   5.446  17.370  0.00  0.00    +0.000 A 
ATOM      5  C   UNL     1      49.539   6.752  17.312  0.00  0.00    +0.000 A 
ATOM      6  N   UNL     1      49.311   7.594  16.280  0.00  0.00    +0.000 NA
ATOM      7  C   UNL     1      48.629   7.113  15.233  0.00  0.00    +0.000 A 
ATOM      8  N   UNL     1      48.314   8.051  14.250  0.00  0.00    +0.000 N 
ATOM      9  N   UNL     1      48.201   5.847  15.152  0.00  0.00    +0.000 NA
ATOM     10  C   UNL     1      48.433   5.052  16.220  0.00  0.00    +0.000 A 
ATOM     11  H   UNL     1      48.831   8.890  14.484  0.00  0.00    +0.000 HD
BRANCH   4  13
ATOM     12  C   UNL     1      48.621   5.047  19.862  0.00  0.00    +0.000 C 
ATOM     13  C   UNL     1      49.283   4.521  18.568  0.00  0.00    +0.000 C 
ATOM     14  C   UNL     1      50.786   4.336  18.858  0.00  0.00    +0.000 C 
ATOM     15  C   UNL     1      48.654   3.144  18.261  0.00  0.00    +0.000 C 
ENDBRANCH   4  13
ENDBRANCH   1   8
BRANCH   1  16
ATOM     16  C   UNL     1      46.815   7.103  12.478  0.00  0.00    +0.000 A 
ATOM     17  C   UNL     1      45.719   7.929  12.190  0.00  0.00    +0.000 A 
ATOM     18  C   UNL     1      44.491   7.396  11.790  0.00  0.00    +0.000 A 
ATOM     19  C   UNL     1      44.320   6.012  11.677  0.00  0.00    +0.000 A 
ATOM     20 CL   UNL     1      42.789   5.478  11.077  0.00  0.00    +0.000 Cl
ATOM     21  C   UNL     1      45.379   5.153  11.998  0.00  0.00    +0.000 A 
ATOM     22  C   UNL     1      46.610   5.713  12.398  0.00  0.00    +0.000 A 
BRANCH  21  23
ATOM     23  C   UNL     1      45.337   3.668  11.914  0.00  0.00    +0.000 C 
ATOM     24  N   UNL     1      45.795   2.940  12.972  0.00  0.00    +0.000 N 
ATOM     25  O   UNL     1      44.938   3.101  10.900  0.00  0.00    +0.000 OA
ATOM     26  H   UNL     1      46.051   3.358  13.858  0.00  0.00    +0.000 HD
ATOM     27  H   UNL     1      45.700   1.934  12.925  0.00  0.00    +0.000 HD
ENDBRANCH  21  23
ENDBRANCH   1  16
TORSDOF 4
ENDMDL
MODEL 8
REMARK VINA RESULT:    -5.254      4.746      8.826
REMARK INTER + INTRA:          -7.078
REMARK INTER:                  -6.995
REMARK INTRA:                  -0.083
REMARK UNBOUND:                -0.595
REMARK  Name = 
REMARK  7 active torsions:
REMARK  status: ('A' for Active; 'I' for Inactive)
REMARK    1  A    between atoms: C_1  and  C_2
REMARK    2  A    between atoms: C_2  and  C_3
REMARK    3  A    between atoms: C_2  and  C_4
REMARK    4  A    between atoms: C_2  and  C_5
REMARK    5  A    between atoms: N_9  and  C_10
REMARK    6  A    between atoms: C_10  and  C_11
REMARK    7  A    between atoms: C_16  and  C_17
REMARK                            x       y       z     vdW  Elec       q    Type
REMARK                         _______ _______ _______ _____ _____    ______ ____
ROOT
ATOM      1  C   UNL     1      48.208   4.741  17.065  0.00  0.00    +0.000 C 
ATOM      2  C   UNL     1      47.102   4.627  18.107  0.00  0.00    +0.000 C 
ATOM      3  C   UNL     1      47.653   3.390  17.480  0.00  0.00    +0.000 C 
ENDROOT
BRANCH   1   8
ATOM      4  C   UNL     1      53.072   3.187  17.725  0.00  0.00    +0.000 A 
ATOM      5  C   UNL     1      52.961   4.543  17.494  0.00  0.00    +0.000 A 
ATOM      6  N   UNL     1      51.791   5.213  17.407  0.00  0.00    +0.000 NA
ATOM      7  C   UNL     1      50.663   4.502  17.532  0.00  0.00    +0.000 A 
ATOM      8  N   UNL     1      49.489   5.253  17.558  0.00  0.00    +0.000 N 
ATOM      9  N   UNL     1      50.646   3.174  17.701  0.00  0.00    +0.000 NA
ATOM     10  C   UNL     1      51.843   2.554  17.805  0.00  0.00    +0.000 A 
ATOM     11  H   UNL     1      49.753   6.199  17.307  0.00  0.00    +0.000 HD
BRANCH   4  13
ATOM     12  C   UNL     1      54.851   2.349  19.377  0.00  0.00    +0.000 C 
ATOM     13  C   UNL     1      54.391   2.444  17.904  0.00  0.00    +0.000 C 
ATOM     14  C   UNL     1      55.506   3.160  17.115  0.00  0.00    +0.000 C 
ATOM     15  C   UNL     1      54.247   0.999  17.377  0.00  0.00    +0.000 C 
ENDBRANCH   4  13
ENDBRANCH   1   8
BRANCH   1  16
ATOM     16  C   UNL     1      47.837   5.239  15.672  0.00  0.00    +0.000 A 
ATOM     17  C   UNL     1      48.490   6.342  15.104  0.00  0.00    +0.000 A 
ATOM     18  C   UNL     1      48.211   6.762  13.801  0.00  0.00    +0.000 A 
ATOM     19  C   UNL     1      47.255   6.093  13.029  0.00  0.00    +0.000 A 
ATOM     20 CL   UNL     1      47.070   6.643  11.400  0.00  0.00    +0.000 Cl
ATOM     21  C   UNL     1      46.551   5.014  13.577  0.00  0.00    +0.000 A 
ATOM     22  C   UNL     1      46.850   4.607  14.892  0.00  0.00    +0.000 A 
BRANCH  21  23
ATOM     23  C   UNL     1      45.518   4.212  12.866  0.00  0.00    +0.000 C 
ATOM     24  N   UNL     1      45.721   2.872  12.713  0.00  0.00    +0.000 N 
ATOM     25  O   UNL     1      44.520   4.744  12.387  0.00  0.00    +0.000 OA
ATOM     26  H   UNL     1      46.481   2.376  13.162  0.00  0.00    +0.000 HD
ATOM     27  H   UNL     1      44.981   2.332  12.285  0.00  0.00    +0.000 HD
ENDBRANCH  21  23
ENDBRANCH   1  16
TORSDOF 4
ENDMDL
