MODEL 1
REMARK VINA RESULT:    -8.021      0.000      0.000
REMARK INTER + INTRA:         -11.813
REMARK INTER:                 -10.835
REMARK INTRA:                  -0.979
REMARK UNBOUND:                -0.979
REMARK  Name = 
REMARK  7 active torsions:
REMARK  status: ('A' for Active; 'I' for Inactive)
REMARK    1  A    between atoms: C_1  and  C_2
REMARK    2  A    between atoms: C_2  and  N_3
REMARK    3  A    between atoms: C_2  and  C_21
REMARK    4  A    between atoms: C_4  and  C_6
REMARK    5  A    between atoms: C_9  and  C_10
REMARK    6  A    between atoms: C_10  and  N_11
REMARK    7  A    between atoms: C_12  and  C_14
REMARK                            x       y       z     vdW  Elec       q    Type
REMARK                         _______ _______ _______ _____ _____    ______ ____
ROOT
ATOM      1  N   UNL     1      47.211   5.083  16.078  0.00  0.00    +0.000 N 
ATOM      2  C   UNL     1      47.246   4.127  15.085  0.00  0.00    +0.000 C 
ATOM      3  O   UNL     1      47.798   3.039  15.187  0.00  0.00    +0.000 OA
ATOM      4  H   UNL     1      46.485   5.791  16.030  0.00  0.00    +0.000 HD
ENDROOT
BRANCH   2   5
ATOM      5  C   UNL     1      46.538   4.469  13.829  0.00  0.00    +0.000 A 
ATOM      6  C   UNL     1      46.610   5.734  13.249  0.00  0.00    +0.000 A 
ATOM      7  C   UNL     1      45.981   5.962  12.023  0.00  0.00    +0.000 A 
ATOM      8  C   UNL     1      45.299   4.915  11.400  0.00  0.00    +0.000 A 
ATOM      9  N   UNL     1      45.200   3.682  11.963  0.00  0.00    +0.000 NA
ATOM     10  C   UNL     1      45.831   3.484  13.152  0.00  0.00    +0.000 A 
BRANCH   8  11
ATOM     11  C   UNL     1      44.681   5.117  10.033  0.00  0.00    +0.000 C 
BRANCH  11  12
ATOM     12  N   UNL     1      45.494   4.617   8.955  0.00  0.00    +0.000 N 
ATOM     13  C   UNL     1      45.386   3.345   8.449  0.00  0.00    +0.000 C 
ATOM     14  O   UNL     1      44.594   2.511   8.883  0.00  0.00    +0.000 OA
ATOM     15  H   UNL     1      46.216   5.203   8.544  0.00  0.00    +0.000 HD
BRANCH  13  16
ATOM     16  C   UNL     1      46.305   3.073   7.334  0.00  0.00    +0.000 A 
ATOM     17  C   UNL     1      47.148   1.941   7.180  0.00  0.00    +0.000 A 
ATOM     18  C   UNL     1      47.801   2.133   5.987  0.00  0.00    +0.000 A 
ATOM     19  N   UNL     1      47.342   3.317   5.495  0.00  0.00    +0.000 N 
ATOM     20  N   UNL     1      46.433   3.914   6.285  0.00  0.00    +0.000 NA
ATOM     21  H   UNL     1      47.604   3.778   4.630  0.00  0.00    +0.000 HD
ENDBRANCH  13  16
ENDBRANCH  11  12
ENDBRANCH   8  11
ENDBRANCH   2   5
BRANCH   1  23
ATOM     22  C   UNL     1      46.893   5.417  18.507  0.00  0.00    +0.000 C 
ATOM     23  C   UNL     1      47.815   4.914  17.395  0.00  0.00    +0.000 C 
BRANCH  23  24
ATOM     24  C   UNL     1      49.206   5.512  17.394  0.00  0.00    +0.000 A 
ATOM     25  C   UNL     1      49.499   6.858  17.242  0.00  0.00    +0.000 A 
ATOM     26  S   UNL     1      51.173   7.189  17.177  0.00  0.00    +0.000 S 
ATOM     27  C   UNL     1      51.562   5.543  17.359  0.00  0.00    +0.000 A 
ATOM     28  N   UNL     1      52.853   5.117  17.329  0.00  0.00    +0.000 NA
ATOM     29  C   UNL     1      52.990   3.840  17.466  0.00  0.00    +0.000 A 
ATOM     30  N   UNL     1      51.959   2.954  17.664  0.00  0.00    +0.000 N 
ATOM     31  C   UNL     1      50.639   3.341  17.732  0.00  0.00    +0.000 A 
ATOM     32  O   UNL     1      49.739   2.535  17.956  0.00  0.00    +0.000 OA
ATOM     33  C   UNL     1      50.434   4.763  17.523  0.00  0.00    +0.000 A 
ATOM     34  H   UNL     1      52.145   1.971  17.792  0.00  0.00    +0.000 HD
ENDBRANCH  23  24
ENDBRANCH   1  23
TORSDOF 6
ENDMDL
MODEL 2
REMARK VINA RESULT:    -7.878      1.773      2.156
REMARK INTER + INTRA:         -11.620
REMARK INTER:                 -10.904
REMARK INTRA:                  -0.715
REMARK UNBOUND:                -0.979
REMARK  Name = 
REMARK  7 active torsions:
REMARK  status: ('A' for Active; 'I' for Inactive)
REMARK    1  A    between atoms: C_1  and  C_2
REMARK    2  A    between atoms: C_2  and  N_3
REMARK    3  A    between atoms: C_2  and  C_21
REMARK    4  A    between atoms: C_4  and  C_6
REMARK    5  A    between atoms: C_9  and  C_10
REMARK    6  A    between atoms: C_10  and  N_11
REMARK    7  A    between atoms: C_12  and  C_14
REMARK                            x       y       z     vdW  Elec       q    Type
REMARK                         _______ _______ _______ _____ _____    ______ ____
ROOT
ATOM      1  N   UNL     1      47.942   6.252  16.226  0.00  0.00    +0.000 N 
ATOM      2  C   UNL     1      48.235   6.199  14.880  0.00  0.00    +0.000 C 
ATOM      3  O   UNL     1      49.270   6.618  14.377  0.00  0.00    +0.000 OA
ATOM      4  H   UNL     1      47.237   5.615  16.584  0.00  0.00    +0.000 HD
ENDROOT
BRANCH   2   5
ATOM      5  C   UNL     1      47.210   5.567  14.017  0.00  0.00    +0.000 A 
ATOM      6  C   UNL     1      46.692   6.195  12.885  0.00  0.00    +0.000 A 
ATOM      7  C   UNL     1      45.786   5.508  12.075  0.00  0.00    +0.000 A 
ATOM      8  C   UNL     1      45.425   4.202  12.410  0.00  0.00    +0.000 A 
ATOM      9  N   UNL     1      45.903   3.583  13.521  0.00  0.00    +0.000 NA
ATOM     10  C   UNL     1      46.791   4.271  14.287  0.00  0.00    +0.000 A 
BRANCH   8  11
ATOM     11  C   UNL     1      44.510   3.409  11.500  0.00  0.00    +0.000 C 
BRANCH  11  12
ATOM     12  N   UNL     1      45.202   2.742  10.428  0.00  0.00    +0.000 N 
ATOM     13  C   UNL     1      45.192   3.182   9.127  0.00  0.00    +0.000 C 
ATOM     14  O   UNL     1      44.576   4.179   8.757  0.00  0.00    +0.000 OA
ATOM     15  H   UNL     1      45.712   1.880  10.606  0.00  0.00    +0.000 HD
BRANCH  13  16
ATOM     16  C   UNL     1      45.992   2.350   8.216  0.00  0.00    +0.000 A 
ATOM     17  C   UNL     1      46.744   2.791   7.096  0.00  0.00    +0.000 A 
ATOM     18  C   UNL     1      47.319   1.659   6.574  0.00  0.00    +0.000 A 
ATOM     19  N   UNL     1      46.910   0.631   7.368  0.00  0.00    +0.000 N 
ATOM     20  N   UNL     1      46.104   1.013   8.375  0.00  0.00    +0.000 NA
ATOM     21  H   UNL     1      47.138  -0.354   7.282  0.00  0.00    +0.000 HD
ENDBRANCH  13  16
ENDBRANCH  11  12
ENDBRANCH   8  11
ENDBRANCH   2   5
BRANCH   1  23
ATOM     22  C   UNL     1      49.098   8.291  17.013  0.00  0.00    +0.000 C 
ATOM     23  C   UNL     1      48.841   6.799  17.236  0.00  0.00    +0.000 C 
BRANCH  23  24
ATOM     24  C   UNL     1      50.085   5.940  17.324  0.00  0.00    +0.000 A 
ATOM     25  C   UNL     1      51.388   6.410  17.265  0.00  0.00    +0.000 A 
ATOM     26  S   UNL     1      52.561   5.169  17.284  0.00  0.00    +0.000 S 
ATOM     27  C   UNL     1      51.365   3.963  17.381  0.00  0.00    +0.000 A 
ATOM     28  N   UNL     1      51.693   2.643  17.374  0.00  0.00    +0.000 NA
ATOM     29  C   UNL     1      50.678   1.847  17.439  0.00  0.00    +0.000 A 
ATOM     30  N   UNL     1      49.368   2.248  17.544  0.00  0.00    +0.000 N 
ATOM     31  C   UNL     1      48.989   3.571  17.585  0.00  0.00    +0.000 A 
ATOM     32  O   UNL     1      47.815   3.903  17.725  0.00  0.00    +0.000 OA
ATOM     33  C   UNL     1      50.096   4.502  17.454  0.00  0.00    +0.000 A 
ATOM     34  H   UNL     1      48.628   1.567  17.619  0.00  0.00    +0.000 HD
ENDBRANCH  23  24
ENDBRANCH   1  23
TORSDOF 6
ENDMDL
MODEL 3
REMARK VINA RESULT:    -7.858      2.342      2.966
REMARK INTER + INTRA:         -11.593
REMARK INTER:                 -10.729
REMARK INTRA:                  -0.864
REMARK UNBOUND:                -0.979
REMARK  Name = 
REMARK  7 active torsions:
REMARK  status: ('A' for Active; 'I' for Inactive)
REMARK    1  A    between atoms: C_1  and  C_2
REMARK    2  A    between atoms: C_2  and  N_3
REMARK    3  A    between atoms: C_2  and  C_21
REMARK    4  A    between atoms: C_4  and  C_6
REMARK    5  A    between atoms: C_9  and  C_10
REMARK    6  A    between atoms: C_10  and  N_11
REMARK    7  A    between atoms: C_12  and  C_14
REMARK                            x       y       z     vdW  Elec       q    Type
REMARK                         _______ _______ _______ _____ _____    ______ ____
ROOT
ATOM      1  N   UNL     1      48.090   6.774  15.156  0.00  0.00    +0.000 N 
ATOM      2  C   UNL     1      47.568   7.168  13.943  0.00  0.00    +0.000 C 
ATOM      3  O   UNL     1      47.840   8.220  13.378  0.00  0.00    +0.000 OA
ATOM      4  H   UNL     1      48.064   5.785  15.385  0.00  0.00    +0.000 HD
ENDROOT
BRANCH   2   5
ATOM      5  C   UNL     1      46.630   6.219  13.301  0.00  0.00    +0.000 A 
ATOM      6  C   UNL     1      45.719   6.612  12.321  0.00  0.00    +0.000 A 
ATOM      7  C   UNL     1      44.920   5.648  11.704  0.00  0.00    +0.000 A 
ATOM      8  C   UNL     1      45.055   4.309  12.073  0.00  0.00    +0.000 A 
ATOM      9  N   UNL     1      45.921   3.912  13.042  0.00  0.00    +0.000 NA
ATOM     10  C   UNL     1      46.695   4.869  13.621  0.00  0.00    +0.000 A 
BRANCH   8  11
ATOM     11  C   UNL     1      44.258   3.238  11.359  0.00  0.00    +0.000 C 
BRANCH  11  12
ATOM     12  N   UNL     1      45.002   2.560  10.327  0.00  0.00    +0.000 N 
ATOM     13  C   UNL     1      45.092   3.012   9.034  0.00  0.00    +0.000 C 
ATOM     14  O   UNL     1      44.530   4.031   8.634  0.00  0.00    +0.000 OA
ATOM     15  H   UNL     1      45.474   1.683  10.530  0.00  0.00    +0.000 HD
BRANCH  13  16
ATOM     16  C   UNL     1      45.927   2.167   8.169  0.00  0.00    +0.000 A 
ATOM     17  C   UNL     1      46.716   2.588   7.067  0.00  0.00    +0.000 A 
ATOM     18  C   UNL     1      47.314   1.449   6.589  0.00  0.00    +0.000 A 
ATOM     19  N   UNL     1      46.881   0.435   7.389  0.00  0.00    +0.000 N 
ATOM     20  N   UNL     1      46.039   0.834   8.359  0.00  0.00    +0.000 NA
ATOM     21  H   UNL     1      47.118  -0.550   7.332  0.00  0.00    +0.000 HD
ENDBRANCH  13  16
ENDBRANCH  11  12
ENDBRANCH   8  11
ENDBRANCH   2   5
BRANCH   1  23
ATOM     22  C   UNL     1      50.495   7.164  15.575  0.00  0.00    +0.000 C 
ATOM     23  C   UNL     1      49.057   7.554  15.920  0.00  0.00    +0.000 C 
BRANCH  23  24
ATOM     24  C   UNL     1      48.710   7.487  17.393  0.00  0.00    +0.000 A 
ATOM     25  C   UNL     1      48.408   8.577  18.195  0.00  0.00    +0.000 A 
ATOM     26  S   UNL     1      48.170   8.171  19.836  0.00  0.00    +0.000 S 
ATOM     27  C   UNL     1      48.454   6.522  19.527  0.00  0.00    +0.000 A 
ATOM     28  N   UNL     1      48.460   5.607  20.534  0.00  0.00    +0.000 NA
ATOM     29  C   UNL     1      48.704   4.399  20.147  0.00  0.00    +0.000 A 
ATOM     30  N   UNL     1      48.910   4.016  18.844  0.00  0.00    +0.000 N 
ATOM     31  C   UNL     1      48.884   4.899  17.789  0.00  0.00    +0.000 A 
ATOM     32  O   UNL     1      49.025   4.524  16.627  0.00  0.00    +0.000 OA
ATOM     33  C   UNL     1      48.671   6.280  18.185  0.00  0.00    +0.000 A 
ATOM     34  H   UNL     1      49.068   3.047  18.614  0.00  0.00    +0.000 HD
ENDBRANCH  23  24
ENDBRANCH   1  23
TORSDOF 6
ENDMDL
MODEL 4
REMARK VINA RESULT:    -7.570      1.563      2.060
REMARK INTER + INTRA:         -11.203
REMARK INTER:                 -10.379
REMARK INTRA:                  -0.824
REMARK UNBOUND:                -0.979
REMARK  Name = 
REMARK  7 active torsions:
REMARK  status: ('A' for Active; 'I' for Inactive)
REMARK    1  A    between atoms: C_1  and  C_2
REMARK    2  A    between atoms: C_2  and  N_3
REMARK    3  A    between atoms: C_2  and  C_21
REMARK    4  A    between atoms: C_4  and  C_6
REMARK    5  A    between atoms: C_9  and  C_10
REMARK    6  A    between atoms: C_10  and  N_11
REMARK    7  A    between atoms: C_12  and  C_14
REMARK                            x       y       z     vdW  Elec       q    Type
REMARK                         _______ _______ _______ _____ _____    ______ ____
ROOT
ATOM      1  N   UNL     1      47.446   5.309  16.330  0.00  0.00    +0.000 N 
ATOM      2  C   UNL     1      47.322   4.318  15.380  0.00  0.00    +0.000 C 
ATOM      3  O   UNL     1      47.650   3.150  15.546  0.00  0.00    +0.000 OA
ATOM      4  H   UNL     1      46.873   6.140  16.227  0.00  0.00    +0.000 HD
ENDROOT
BRANCH   2   5
ATOM      5  C   UNL     1      46.728   4.729  14.087  0.00  0.00    +0.000 A 
ATOM      6  C   UNL     1      47.226   5.793  13.337  0.00  0.00    +0.000 A 
ATOM      7  C   UNL     1      46.664   6.074  12.090  0.00  0.00    +0.000 A 
ATOM      8  C   UNL     1      45.620   5.279  11.616  0.00  0.00    +0.000 A 
ATOM      9  N   UNL     1      45.107   4.252  12.344  0.00  0.00    +0.000 NA
ATOM     10  C   UNL     1      45.679   3.993  13.550  0.00  0.00    +0.000 A 
BRANCH   8  11
ATOM     11  C   UNL     1      45.052   5.514  10.232  0.00  0.00    +0.000 C 
BRANCH  11  12
ATOM     12  N   UNL     1      45.684   4.719   9.209  0.00  0.00    +0.000 N 
ATOM     13  C   UNL     1      45.249   3.470   8.841  0.00  0.00    +0.000 C 
ATOM     14  O   UNL     1      44.289   2.908   9.364  0.00  0.00    +0.000 OA
ATOM     15  H   UNL     1      46.515   5.063   8.736  0.00  0.00    +0.000 HD
BRANCH  13  16
ATOM     16  C   UNL     1      46.038   2.866   7.758  0.00  0.00    +0.000 A 
ATOM     17  C   UNL     1      46.447   3.488   6.550  0.00  0.00    +0.000 A 
ATOM     18  C   UNL     1      47.163   2.533   5.871  0.00  0.00    +0.000 A 
ATOM     19  N   UNL     1      47.156   1.427   6.665  0.00  0.00    +0.000 N 
ATOM     20  N   UNL     1      46.484   1.592   7.818  0.00  0.00    +0.000 NA
ATOM     21  H   UNL     1      47.588   0.525   6.484  0.00  0.00    +0.000 HD
ENDBRANCH  13  16
ENDBRANCH  11  12
ENDBRANCH   8  11
ENDBRANCH   2   5
BRANCH   1  23
ATOM     22  C   UNL     1      47.590   6.229  18.621  0.00  0.00    +0.000 C 
ATOM     23  C   UNL     1      47.971   5.090  17.673  0.00  0.00    +0.000 C 
BRANCH  23  24
ATOM     24  C   UNL     1      49.453   4.789  17.594  0.00  0.00    +0.000 A 
ATOM     25  C   UNL     1      50.073   3.669  18.126  0.00  0.00    +0.000 A 
ATOM     26  S   UNL     1      51.772   3.686  17.960  0.00  0.00    +0.000 S 
ATOM     27  C   UNL     1      51.735   5.189  17.163  0.00  0.00    +0.000 A 
ATOM     28  N   UNL     1      52.882   5.816  16.788  0.00  0.00    +0.000 NA
ATOM     29  C   UNL     1      52.695   6.954  16.207  0.00  0.00    +0.000 A 
ATOM     30  N   UNL     1      51.467   7.508  15.935  0.00  0.00    +0.000 N 
ATOM     31  C   UNL     1      50.279   6.897  16.268  0.00  0.00    +0.000 A 
ATOM     32  O   UNL     1      49.193   7.390  15.972  0.00  0.00    +0.000 OA
ATOM     33  C   UNL     1      50.443   5.641  16.978  0.00  0.00    +0.000 A 
ATOM     34  H   UNL     1      51.398   8.390  15.451  0.00  0.00    +0.000 HD
ENDBRANCH  23  24
ENDBRANCH   1  23
TORSDOF 6
ENDMDL
MODEL 5
REMARK VINA RESULT:    -7.515      3.485      4.403
REMARK INTER + INTRA:         -11.130
REMARK INTER:                 -10.191
REMARK INTRA:                  -0.939
REMARK UNBOUND:                -0.979
REMARK  Name = 
REMARK  7 active torsions:
REMARK  status: ('A' for Active; 'I' for Inactive)
REMARK    1  A    between atoms: C_1  and  C_2
REMARK    2  A    between atoms: C_2  and  N_3
REMARK    3  A    between atoms: C_2  and  C_21
REMARK    4  A    between atoms: C_4  and  C_6
REMARK    5  A    between atoms: C_9  and  C_10
REMARK    6  A    between atoms: C_10  and  N_11
REMARK    7  A    between atoms: C_12  and  C_14
REMARK                            x       y       z     vdW  Elec       q    Type
REMARK                         _______ _______ _______ _____ _____    ______ ____
ROOT
ATOM      1  N   UNL     1      48.025   7.181  14.649  0.00  0.00    +0.000 N 
ATOM      2  C   UNL     1      47.828   5.831  14.841  0.00  0.00    +0.000 C 
ATOM      3  O   UNL     1      48.411   5.155  15.680  0.00  0.00    +0.000 OA
ATOM      4  H   UNL     1      47.296   7.705  14.176  0.00  0.00    +0.000 HD
ENDROOT
BRANCH   2   5
ATOM      5  C   UNL     1      46.817   5.191  13.967  0.00  0.00    +0.000 A 
ATOM      6  C   UNL     1      45.898   5.927  13.221  0.00  0.00    +0.000 A 
ATOM      7  C   UNL     1      45.025   5.259  12.359  0.00  0.00    +0.000 A 
ATOM      8  C   UNL     1      45.098   3.869  12.255  0.00  0.00    +0.000 A 
ATOM      9  N   UNL     1      45.973   3.135  12.991  0.00  0.00    +0.000 NA
ATOM     10  C   UNL     1      46.818   3.810  13.816  0.00  0.00    +0.000 A 
BRANCH   8  11
ATOM     11  C   UNL     1      44.219   3.134  11.265  0.00  0.00    +0.000 C 
BRANCH  11  12
ATOM     12  N   UNL     1      44.952   2.538  10.177  0.00  0.00    +0.000 N 
ATOM     13  C   UNL     1      45.221   3.186   8.998  0.00  0.00    +0.000 C 
ATOM     14  O   UNL     1      44.846   4.332   8.756  0.00  0.00    +0.000 OA
ATOM     15  H   UNL     1      45.277   1.577  10.246  0.00  0.00    +0.000 HD
BRANCH  13  16
ATOM     16  C   UNL     1      46.006   2.384   8.048  0.00  0.00    +0.000 A 
ATOM     17  C   UNL     1      46.657   2.845   6.874  0.00  0.00    +0.000 A 
ATOM     18  C   UNL     1      47.260   1.737   6.332  0.00  0.00    +0.000 A 
ATOM     19  N   UNL     1      46.963   0.703   7.167  0.00  0.00    +0.000 N 
ATOM     20  N   UNL     1      46.205   1.059   8.219  0.00  0.00    +0.000 NA
ATOM     21  H   UNL     1      47.242  -0.269   7.082  0.00  0.00    +0.000 HD
ENDBRANCH  13  16
ENDBRANCH  11  12
ENDBRANCH   8  11
ENDBRANCH   2   5
BRANCH   1  23
ATOM     22  C   UNL     1      48.267   9.245  15.988  0.00  0.00    +0.000 C 
ATOM     23  C   UNL     1      48.948   7.991  15.437  0.00  0.00    +0.000 C 
BRANCH  23  24
ATOM     24  C   UNL     1      50.209   8.244  14.637  0.00  0.00    +0.000 A 
ATOM     25  C   UNL     1      51.496   7.946  15.056  0.00  0.00    +0.000 A 
ATOM     26  S   UNL     1      52.704   8.458  13.964  0.00  0.00    +0.000 S 
ATOM     27  C   UNL     1      51.545   9.088  12.890  0.00  0.00    +0.000 A 
ATOM     28  N   UNL     1      51.916   9.734  11.752  0.00  0.00    +0.000 NA
ATOM     29  C   UNL     1      50.926  10.168  11.045  0.00  0.00    +0.000 A 
ATOM     30  N   UNL     1      49.600   9.987  11.352  0.00  0.00    +0.000 N 
ATOM     31  C   UNL     1      49.175   9.314  12.476  0.00  0.00    +0.000 A 
ATOM     32  O   UNL     1      47.982   9.125  12.705  0.00  0.00    +0.000 OA
ATOM     33  C   UNL     1      50.256   8.860  13.332  0.00  0.00    +0.000 A 
ATOM     34  H   UNL     1      48.879  10.330  10.737  0.00  0.00    +0.000 HD
ENDBRANCH  23  24
ENDBRANCH   1  23
TORSDOF 6
ENDMDL
MODEL 6
REMARK VINA RESULT:    -7.508      3.515      9.033
REMARK INTER + INTRA:         -11.120
REMARK INTER:                 -10.302
REMARK INTRA:                  -0.818
REMARK UNBOUND:                -0.979
REMARK  Name = 
REMARK  7 active torsions:
REMARK  status: ('A' for Active; 'I' for Inactive)
REMARK    1  A    between atoms: C_1  and  C_2
REMARK    2  A    between atoms: C_2  and  N_3
REMARK    3  A    between atoms: C_2  and  C_21
REMARK    4  A    between atoms: C_4  and  C_6
REMARK    5  A    between atoms: C_9  and  C_10
REMARK    6  A    between atoms: C_10  and  N_11
REMARK    7  A    between atoms: C_12  and  C_14
REMARK                            x       y       z     vdW  Elec       q    Type
REMARK                         _______ _______ _______ _____ _____    ______ ____
ROOT
ATOM      1  N   UNL     1      46.852   6.770  12.172  0.00  0.00    +0.000 N 
ATOM      2  C   UNL     1      47.970   7.536  12.424  0.00  0.00    +0.000 C 
ATOM      3  O   UNL     1      48.328   8.487  11.742  0.00  0.00    +0.000 OA
ATOM      4  H   UNL     1      46.464   6.230  12.940  0.00  0.00    +0.000 HD
ENDROOT
BRANCH   2   5
ATOM      5  C   UNL     1      48.756   7.164  13.623  0.00  0.00    +0.000 A 
ATOM      6  C   UNL     1      49.979   7.755  13.931  0.00  0.00    +0.000 A 
ATOM      7  C   UNL     1      50.627   7.411  15.119  0.00  0.00    +0.000 A 
ATOM      8  C   UNL     1      50.031   6.487  15.979  0.00  0.00    +0.000 A 
ATOM      9  N   UNL     1      48.850   5.883  15.683  0.00  0.00    +0.000 NA
ATOM     10  C   UNL     1      48.235   6.245  14.525  0.00  0.00    +0.000 A 
BRANCH   8  11
ATOM     11  C   UNL     1      50.675   6.161  17.310  0.00  0.00    +0.000 C 
BRANCH  11  12
ATOM     12  N   UNL     1      51.286   4.857  17.349  0.00  0.00    +0.000 N 
ATOM     13  C   UNL     1      50.634   3.725  17.771  0.00  0.00    +0.000 C 
ATOM     14  O   UNL     1      49.472   3.725  18.171  0.00  0.00    +0.000 OA
ATOM     15  H   UNL     1      52.261   4.741  17.083  0.00  0.00    +0.000 HD
BRANCH  13  16
ATOM     16  C   UNL     1      51.456   2.508  17.698  0.00  0.00    +0.000 A 
ATOM     17  C   UNL     1      52.804   2.361  18.118  0.00  0.00    +0.000 A 
ATOM     18  C   UNL     1      53.127   1.052  17.858  0.00  0.00    +0.000 A 
ATOM     19  N   UNL     1      52.009   0.491  17.319  0.00  0.00    +0.000 N 
ATOM     20  N   UNL     1      50.975   1.344  17.208  0.00  0.00    +0.000 NA
ATOM     21  H   UNL     1      51.879  -0.465  17.004  0.00  0.00    +0.000 HD
ENDBRANCH  13  16
ENDBRANCH  11  12
ENDBRANCH   8  11
ENDBRANCH   2   5
BRANCH   1  23
ATOM     22  C   UNL     1      44.786   7.932  11.471  0.00  0.00    +0.000 C 
ATOM     23  C   UNL     1      45.933   7.006  11.064  0.00  0.00    +0.000 C 
BRANCH  23  24
ATOM     24  C   UNL     1      45.507   5.680  10.469  0.00  0.00    +0.000 A 
ATOM     25  C   UNL     1      45.699   5.296   9.151  0.00  0.00    +0.000 A 
ATOM     26  S   UNL     1      45.004   3.783   8.774  0.00  0.00    +0.000 S 
ATOM     27  C   UNL     1      44.430   3.587  10.364  0.00  0.00    +0.000 A 
ATOM     28  N   UNL     1      43.683   2.507  10.715  0.00  0.00    +0.000 NA
ATOM     29  C   UNL     1      43.309   2.504  11.952  0.00  0.00    +0.000 A 
ATOM     30  N   UNL     1      43.641   3.464  12.877  0.00  0.00    +0.000 N 
ATOM     31  C   UNL     1      44.419   4.559  12.576  0.00  0.00    +0.000 A 
ATOM     32  O   UNL     1      44.740   5.380  13.433  0.00  0.00    +0.000 OA
ATOM     33  C   UNL     1      44.813   4.633  11.181  0.00  0.00    +0.000 A 
ATOM     34  H   UNL     1      43.335   3.381  13.834  0.00  0.00    +0.000 HD
ENDBRANCH  23  24
ENDBRANCH   1  23
TORSDOF 6
ENDMDL
MODEL 7
REMARK VINA RESULT:    -7.319      2.927      3.755
REMARK INTER + INTRA:         -10.864
REMARK INTER:                 -10.029
REMARK INTRA:                  -0.836
REMARK UNBOUND:                -0.979
REMARK  Name = 
REMARK  7 active torsions:
REMARK  status: ('A' for Active; 'I' for Inactive)
REMARK    1  A    between atoms: C_1  and  C_2
REMARK    2  A    between atoms: C_2  and  N_3
REMARK    3  A    between atoms: C_2  and  C_21
REMARK    4  A    between atoms: C_4  and  C_6
REMARK    5  A    between atoms: C_9  and  C_10
REMARK    6  A    between atoms: C_10  and  N_11
REMARK    7  A    between atoms: C_12  and  C_14
REMARK                            x       y       z     vdW  Elec       q    Type
REMARK                         _______ _______ _______ _____ _____    ______ ____
ROOT
ATOM      1  N   UNL     1      47.892   6.804  14.793  0.00  0.00    +0.000 N 
ATOM      2  C   UNL     1      47.254   7.546  13.822  0.00  0.00    +0.000 C 
ATOM      3  O   UNL     1      47.429   8.743  13.635  0.00  0.00    +0.000 OA
ATOM      4  H   UNL     1      47.931   5.797  14.671  0.00  0.00    +0.000 HD
ENDROOT
BRANCH   2   5
ATOM      5  C   UNL     1      46.311   6.805  12.953  0.00  0.00    +0.000 A 
ATOM      6  C   UNL     1      45.429   7.446  12.085  0.00  0.00    +0.000 A 
ATOM      7  C   UNL     1      44.625   6.680  11.238  0.00  0.00    +0.000 A 
ATOM      8  C   UNL     1      44.727   5.289  11.272  0.00  0.00    +0.000 A 
ATOM      9  N   UNL     1      45.565   4.647  12.127  0.00  0.00    +0.000 NA
ATOM     10  C   UNL     1      46.345   5.416  12.934  0.00  0.00    +0.000 A 
BRANCH   8  11
ATOM     11  C   UNL     1      43.925   4.444  10.304  0.00  0.00    +0.000 C 
BRANCH  11  12
ATOM     12  N   UNL     1      44.712   3.449   9.621  0.00  0.00    +0.000 N 
ATOM     13  C   UNL     1      45.529   3.728   8.554  0.00  0.00    +0.000 C 
ATOM     14  O   UNL     1      45.651   4.853   8.073  0.00  0.00    +0.000 OA
ATOM     15  H   UNL     1      44.659   2.473   9.903  0.00  0.00    +0.000 HD
BRANCH  13  16
ATOM     16  C   UNL     1      46.251   2.555   8.040  0.00  0.00    +0.000 A 
ATOM     17  C   UNL     1      45.933   1.190   8.266  0.00  0.00    +0.000 A 
ATOM     18  C   UNL     1      46.883   0.476   7.578  0.00  0.00    +0.000 A 
ATOM     19  N   UNL     1      47.693   1.399   6.991  0.00  0.00    +0.000 N 
ATOM     20  N   UNL     1      47.340   2.671   7.248  0.00  0.00    +0.000 NA
ATOM     21  H   UNL     1      48.504   1.235   6.403  0.00  0.00    +0.000 HD
ENDBRANCH  13  16
ENDBRANCH  11  12
ENDBRANCH   8  11
ENDBRANCH   2   5
BRANCH   1  23
ATOM     22  C   UNL     1      50.272   7.407  15.083  0.00  0.00    +0.000 C 
ATOM     23  C   UNL     1      48.881   7.348  15.716  0.00  0.00    +0.000 C 
BRANCH  23  24
ATOM     24  C   UNL     1      48.807   6.602  17.033  0.00  0.00    +0.000 A 
ATOM     25  C   UNL     1      49.114   5.262  17.213  0.00  0.00    +0.000 A 
ATOM     26  S   UNL     1      48.821   4.703  18.800  0.00  0.00    +0.000 S 
ATOM     27  C   UNL     1      48.283   6.237  19.301  0.00  0.00    +0.000 A 
ATOM     28  N   UNL     1      47.819   6.444  20.563  0.00  0.00    +0.000 NA
ATOM     29  C   UNL     1      47.434   7.655  20.791  0.00  0.00    +0.000 A 
ATOM     30  N   UNL     1      47.500   8.687  19.887  0.00  0.00    +0.000 N 
ATOM     31  C   UNL     1      47.990   8.534  18.608  0.00  0.00    +0.000 A 
ATOM     32  O   UNL     1      48.082   9.483  17.833  0.00  0.00    +0.000 OA
ATOM     33  C   UNL     1      48.379   7.173  18.289  0.00  0.00    +0.000 A 
ATOM     34  H   UNL     1      47.206   9.616  20.146  0.00  0.00    +0.000 HD
ENDBRANCH  23  24
ENDBRANCH   1  23
TORSDOF 6
ENDMDL
MODEL 8
REMARK VINA RESULT:    -7.110      2.959      9.421
REMARK INTER + INTRA:         -10.582
REMARK INTER:                  -9.838
REMARK INTRA:                  -0.744
REMARK UNBOUND:                -0.979
REMARK  Name = 
REMARK  7 active torsions:
REMARK  status: ('A' for Active; 'I' for Inactive)
REMARK    1  A    between atoms: C_1  and  C_2
REMARK    2  A    between atoms: C_2  and  N_3
REMARK    3  A    between atoms: C_2  and  C_21
REMARK    4  A    between atoms: C_4  and  C_6
REMARK    5  A    between atoms: C_9  and  C_10
REMARK    6  A    between atoms: C_10  and  N_11
REMARK    7  A    between atoms: C_12  and  C_14
REMARK                            x       y       z     vdW  Elec       q    Type
REMARK                         _______ _______ _______ _____ _____    ______ ____
ROOT
ATOM      1  N   UNL     1      46.692   6.547  12.483  0.00  0.00    +0.000 N 
ATOM      2  C   UNL     1      47.883   7.240  12.464  0.00  0.00    +0.000 C 
ATOM      3  O   UNL     1      48.231   8.000  11.569  0.00  0.00    +0.000 OA
ATOM      4  H   UNL     1      46.354   6.209  13.379  0.00  0.00    +0.000 HD
ENDROOT
BRANCH   2   5
ATOM      5  C   UNL     1      48.770   7.041  13.634  0.00  0.00    +0.000 A 
ATOM      6  C   UNL     1      49.977   7.721  13.784  0.00  0.00    +0.000 A 
ATOM      7  C   UNL     1      50.724   7.541  14.950  0.00  0.00    +0.000 A 
ATOM      8  C   UNL     1      50.241   6.690  15.946  0.00  0.00    +0.000 A 
ATOM      9  N   UNL     1      49.077   6.003  15.806  0.00  0.00    +0.000 NA
ATOM     10  C   UNL     1      48.365   6.204  14.665  0.00  0.00    +0.000 A 
BRANCH   8  11
ATOM     11  C   UNL     1      50.992   6.545  17.253  0.00  0.00    +0.000 C 
BRANCH  11  12
ATOM     12  N   UNL     1      51.606   5.253  17.422  0.00  0.00    +0.000 N 
ATOM     13  C   UNL     1      50.997   4.201  18.062  0.00  0.00    +0.000 C 
ATOM     14  O   UNL     1      49.876   4.273  18.563  0.00  0.00    +0.000 OA
ATOM     15  H   UNL     1      52.551   5.088  17.087  0.00  0.00    +0.000 HD
BRANCH  13  16
ATOM     16  C   UNL     1      51.809   2.976  18.089  0.00  0.00    +0.000 A 
ATOM     17  C   UNL     1      51.510   1.739  17.460  0.00  0.00    +0.000 A 
ATOM     18  C   UNL     1      52.564   0.912  17.762  0.00  0.00    +0.000 A 
ATOM     19  N   UNL     1      53.416   1.654  18.522  0.00  0.00    +0.000 N 
ATOM     20  N   UNL     1      52.991   2.911  18.740  0.00  0.00    +0.000 NA
ATOM     21  H   UNL     1      54.302   1.369  18.927  0.00  0.00    +0.000 HD
ENDBRANCH  13  16
ENDBRANCH  11  12
ENDBRANCH   8  11
ENDBRANCH   2   5
BRANCH   1  23
ATOM     22  C   UNL     1      44.828   7.909  11.598  0.00  0.00    +0.000 C 
ATOM     23  C   UNL     1      45.675   6.645  11.443  0.00  0.00    +0.000 C 
BRANCH  23  24
ATOM     24  C   UNL     1      44.890   5.351  11.380  0.00  0.00    +0.000 A 
ATOM     25  C   UNL     1      44.066   4.864  12.383  0.00  0.00    +0.000 A 
ATOM     26  S   UNL     1      43.413   3.324  12.042  0.00  0.00    +0.000 S 
ATOM     27  C   UNL     1      44.203   3.261  10.536  0.00  0.00    +0.000 A 
ATOM     28  N   UNL     1      44.113   2.162   9.739  0.00  0.00    +0.000 NA
ATOM     29  C   UNL     1      44.778   2.257   8.635  0.00  0.00    +0.000 A 
ATOM     30  N   UNL     1      45.495   3.359   8.239  0.00  0.00    +0.000 N 
ATOM     31  C   UNL     1      45.591   4.505   8.998  0.00  0.00    +0.000 A 
ATOM     32  O   UNL     1      46.201   5.494   8.600  0.00  0.00    +0.000 OA
ATOM     33  C   UNL     1      44.907   4.420  10.276  0.00  0.00    +0.000 A 
ATOM     34  H   UNL     1      45.967   3.371   7.348  0.00  0.00    +0.000 HD
ENDBRANCH  23  24
ENDBRANCH   1  23
TORSDOF 6
ENDMDL
MODEL 9
REMARK VINA RESULT:    -6.751      2.483      3.287
REMARK INTER + INTRA:         -10.098
REMARK INTER:                  -9.067
REMARK INTRA:                  -1.031
REMARK UNBOUND:                -0.979
REMARK  Name = 
REMARK  7 active torsions:
REMARK  status: ('A' for Active; 'I' for Inactive)
REMARK    1  A    between atoms: C_1  and  C_2
REMARK    2  A    between atoms: C_2  and  N_3
REMARK    3  A    between atoms: C_2  and  C_21
REMARK    4  A    between atoms: C_4  and  C_6
REMARK    5  A    between atoms: C_9  and  C_10
REMARK    6  A    between atoms: C_10  and  N_11
REMARK    7  A    between atoms: C_12  and  C_14
REMARK                            x       y       z     vdW  Elec       q    Type
REMARK                         _______ _______ _______ _____ _____    ______ ____
ROOT
ATOM      1  N   UNL     1      49.451   7.399  15.023  0.00  0.00    +0.000 N 
ATOM      2  C   UNL     1      48.507   8.270  14.522  0.00  0.00    +0.000 C 
ATOM      3  O   UNL     1      48.497   9.477  14.727  0.00  0.00    +0.000 OA
ATOM      4  H   UNL     1      49.567   6.505  14.556  0.00  0.00    +0.000 HD
ENDROOT
BRANCH   2   5
ATOM      5  C   UNL     1      47.460   7.669  13.664  0.00  0.00    +0.000 A 
ATOM      6  C   UNL     1      46.396   8.409  13.150  0.00  0.00    +0.000 A 
ATOM      7  C   UNL     1      45.489   7.794  12.284  0.00  0.00    +0.000 A 
ATOM      8  C   UNL     1      45.672   6.452  11.944  0.00  0.00    +0.000 A 
ATOM      9  N   UNL     1      46.690   5.711  12.454  0.00  0.00    +0.000 NA
ATOM     10  C   UNL     1      47.565   6.337  13.286  0.00  0.00    +0.000 A 
BRANCH   8  11
ATOM     11  C   UNL     1      44.749   5.789  10.943  0.00  0.00    +0.000 C 
BRANCH  11  12
ATOM     12  N   UNL     1      45.446   5.142   9.861  0.00  0.00    +0.000 N 
ATOM     13  C   UNL     1      45.028   3.969   9.282  0.00  0.00    +0.000 C 
ATOM     14  O   UNL     1      44.028   3.355   9.648  0.00  0.00    +0.000 OA
ATOM     15  H   UNL     1      46.313   5.535   9.503  0.00  0.00    +0.000 HD
BRANCH  13  16
ATOM     16  C   UNL     1      45.888   3.515   8.180  0.00  0.00    +0.000 A 
ATOM     17  C   UNL     1      46.323   2.188   7.926  0.00  0.00    +0.000 A 
ATOM     18  C   UNL     1      47.090   2.266   6.790  0.00  0.00    +0.000 A 
ATOM     19  N   UNL     1      47.083   3.577   6.423  0.00  0.00    +0.000 N 
ATOM     20  N   UNL     1      46.363   4.364   7.242  0.00  0.00    +0.000 NA
ATOM     21  H   UNL     1      47.546   4.006   5.628  0.00  0.00    +0.000 HD
ENDBRANCH  13  16
ENDBRANCH  11  12
ENDBRANCH   8  11
ENDBRANCH   2   5
BRANCH   1  23
ATOM     22  C   UNL     1      51.752   8.303  15.006  0.00  0.00    +0.000 C 
ATOM     23  C   UNL     1      50.578   7.807  15.853  0.00  0.00    +0.000 C 
BRANCH  23  24
ATOM     24  C   UNL     1      50.915   6.700  16.830  0.00  0.00    +0.000 A 
ATOM     25  C   UNL     1      52.070   5.934  16.806  0.00  0.00    +0.000 A 
ATOM     26  S   UNL     1      52.091   4.696  17.981  0.00  0.00    +0.000 S 
ATOM     27  C   UNL     1      50.560   5.148  18.567  0.00  0.00    +0.000 A 
ATOM     28  N   UNL     1      49.949   4.446  19.559  0.00  0.00    +0.000 NA
ATOM     29  C   UNL     1      48.785   4.901  19.887  0.00  0.00    +0.000 A 
ATOM     30  N   UNL     1      48.190   6.011  19.340  0.00  0.00    +0.000 N 
ATOM     31  C   UNL     1      48.781   6.771  18.355  0.00  0.00    +0.000 A 
ATOM     32  O   UNL     1      48.249   7.787  17.914  0.00  0.00    +0.000 OA
ATOM     33  C   UNL     1      50.067   6.261  17.913  0.00  0.00    +0.000 A 
ATOM     34  H   UNL     1      47.289   6.324  19.667  0.00  0.00    +0.000 HD
ENDBRANCH  23  24
ENDBRANCH   1  23
TORSDOF 6
ENDMDL
