MODEL 1
REMARK VINA RESULT:    -7.191      0.000      0.000
REMARK INTER + INTRA:         -11.000
REMARK INTER:                 -10.134
REMARK INTRA:                  -0.866
REMARK UNBOUND:                -0.866
REMARK  Name = 
REMARK  8 active torsions:
REMARK  status: ('A' for Active; 'I' for Inactive)
REMARK    1  A    between atoms: C_1  and  C_2
REMARK    2  A    between atoms: C_4  and  C_5
REMARK    3  A    between atoms: C_5  and  N_6
REMARK    4  A    between atoms: C_7  and  C_9
REMARK    5  A    between atoms: C_21  and  C_22
REMARK    6  A    between atoms: C_22  and  N_23
REMARK    7  A    between atoms: N_23  and  C_24
REMARK    8  A    between atoms: C_24  and  C_26
REMARK                            x       y       z     vdW  Elec       q    Type
REMARK                         _______ _______ _______ _____ _____    ______ ____
ROOT
ATOM      1  C   UNL     1      51.681   1.116  17.414  0.00  0.00    +0.000 C 
ATOM      2  C   UNL     1      50.893   2.397  17.437  0.00  0.00    +0.000 A 
ATOM      3  C   UNL     1      49.519   2.339  17.135  0.00  0.00    +0.000 A 
ATOM      4  C   UNL     1      48.704   3.478  17.182  0.00  0.00    +0.000 A 
ATOM      5  C   UNL     1      49.293   4.707  17.488  0.00  0.00    +0.000 A 
ATOM      6  C   UNL     1      50.659   4.784  17.780  0.00  0.00    +0.000 A 
ATOM      7  C   UNL     1      51.474   3.636  17.781  0.00  0.00    +0.000 A 
ENDROOT
BRANCH   4   8
ATOM      8  C   UNL     1      47.233   3.372  16.869  0.00  0.00    +0.000 C 
BRANCH   8   9
ATOM      9  N   UNL     1      46.833   4.378  15.918  0.00  0.00    +0.000 N 
ATOM     10  C   UNL     1      46.883   4.146  14.567  0.00  0.00    +0.000 C 
ATOM     11  O   UNL     1      47.230   3.066  14.105  0.00  0.00    +0.000 OA
ATOM     12  H   UNL     1      46.774   5.331  16.260  0.00  0.00    +0.000 HD
BRANCH  10  13
ATOM     13  C   UNL     1      46.434   5.244  13.700  0.00  0.00    +0.000 A 
ATOM     14  C   UNL     1      47.260   6.341  13.497  0.00  0.00    +0.000 A 
ATOM     15  S   UNL     1      46.615   7.497  12.420  0.00  0.00    +0.000 S 
ATOM     16  C   UNL     1      45.183   6.597  12.230  0.00  0.00    +0.000 A 
ATOM     17  N   UNL     1      44.174   7.049  11.437  0.00  0.00    +0.000 NA
ATOM     18  C   UNL     1      43.135   6.286  11.408  0.00  0.00    +0.000 A 
ATOM     19  N   UNL     1      43.015   5.104  12.095  0.00  0.00    +0.000 N 
ATOM     20  C   UNL     1      44.016   4.593  12.884  0.00  0.00    +0.000 A 
ATOM     21  O   UNL     1      43.893   3.511  13.447  0.00  0.00    +0.000 OA
ATOM     22  C   UNL     1      45.205   5.423  12.962  0.00  0.00    +0.000 A 
ATOM     23  H   UNL     1      42.175   4.548  12.023  0.00  0.00    +0.000 HD
ENDBRANCH  10  13
ENDBRANCH   8   9
ENDBRANCH   4   8
BRANCH   7  24
ATOM     24  C   UNL     1      52.931   3.790  18.161  0.00  0.00    +0.000 C 
BRANCH  24  25
ATOM     25  N   UNL     1      53.222   3.249  19.479  0.00  0.00    +0.000 N 
ATOM     26  H   UNL     1      52.459   3.224  20.148  0.00  0.00    +0.000 HD
BRANCH  25  27
ATOM     27  C   UNL     1      54.438   2.739  19.898  0.00  0.00    +0.000 C 
ATOM     28  S   UNL     1      55.438   3.446  21.042  0.00  0.00    +0.000 S 
BRANCH  27  29
ATOM     29  C   UNL     1      54.847   1.505  19.268  0.00  0.00    +0.000 A 
ATOM     30  C   UNL     1      55.424   1.169  18.056  0.00  0.00    +0.000 A 
ATOM     31  N   UNL     1      55.584  -0.192  17.956  0.00  0.00    +0.000 NA
ATOM     32  C   UNL     1      55.105  -0.638  19.091  0.00  0.00    +0.000 A 
ATOM     33  O   UNL     1      54.648   0.317  19.945  0.00  0.00    +0.000 OA
ENDBRANCH  27  29
ENDBRANCH  25  27
ENDBRANCH  24  25
ENDBRANCH   7  24
TORSDOF 7
ENDMDL
MODEL 2
REMARK VINA RESULT:    -7.181      2.668      3.615
REMARK INTER + INTRA:         -10.986
REMARK INTER:                  -9.877
REMARK INTRA:                  -1.108
REMARK UNBOUND:                -0.866
REMARK  Name = 
REMARK  8 active torsions:
REMARK  status: ('A' for Active; 'I' for Inactive)
REMARK    1  A    between atoms: C_1  and  C_2
REMARK    2  A    between atoms: C_4  and  C_5
REMARK    3  A    between atoms: C_5  and  N_6
REMARK    4  A    between atoms: C_7  and  C_9
REMARK    5  A    between atoms: C_21  and  C_22
REMARK    6  A    between atoms: C_22  and  N_23
REMARK    7  A    between atoms: N_23  and  C_24
REMARK    8  A    between atoms: C_24  and  C_26
REMARK                            x       y       z     vdW  Elec       q    Type
REMARK                         _______ _______ _______ _____ _____    ______ ____
ROOT
ATOM      1  C   UNL     1      51.619   1.134  17.398  0.00  0.00    +0.000 C 
ATOM      2  C   UNL     1      50.848   2.426  17.393  0.00  0.00    +0.000 A 
ATOM      3  C   UNL     1      49.470   2.376  17.107  0.00  0.00    +0.000 A 
ATOM      4  C   UNL     1      48.670   3.527  17.130  0.00  0.00    +0.000 A 
ATOM      5  C   UNL     1      49.278   4.757  17.394  0.00  0.00    +0.000 A 
ATOM      6  C   UNL     1      50.648   4.825  17.669  0.00  0.00    +0.000 A 
ATOM      7  C   UNL     1      51.448   3.666  17.695  0.00  0.00    +0.000 A 
ENDROOT
BRANCH   4   8
ATOM      8  C   UNL     1      47.194   3.431  16.836  0.00  0.00    +0.000 C 
BRANCH   8   9
ATOM      9  N   UNL     1      46.795   4.417  15.864  0.00  0.00    +0.000 N 
ATOM     10  C   UNL     1      46.870   4.164  14.517  0.00  0.00    +0.000 C 
ATOM     11  O   UNL     1      47.238   3.082  14.077  0.00  0.00    +0.000 OA
ATOM     12  H   UNL     1      46.718   5.374  16.190  0.00  0.00    +0.000 HD
BRANCH  10  13
ATOM     13  C   UNL     1      46.419   5.243  13.627  0.00  0.00    +0.000 A 
ATOM     14  C   UNL     1      47.255   6.324  13.379  0.00  0.00    +0.000 A 
ATOM     15  S   UNL     1      46.606   7.456  12.280  0.00  0.00    +0.000 S 
ATOM     16  C   UNL     1      45.160   6.569  12.140  0.00  0.00    +0.000 A 
ATOM     17  N   UNL     1      44.143   7.012  11.351  0.00  0.00    +0.000 NA
ATOM     18  C   UNL     1      43.095   6.260  11.360  0.00  0.00    +0.000 A 
ATOM     19  N   UNL     1      42.972   5.100  12.083  0.00  0.00    +0.000 N 
ATOM     20  C   UNL     1      43.980   4.599  12.870  0.00  0.00    +0.000 A 
ATOM     21  O   UNL     1      43.854   3.535  13.466  0.00  0.00    +0.000 OA
ATOM     22  C   UNL     1      45.180   5.416  12.904  0.00  0.00    +0.000 A 
ATOM     23  H   UNL     1      42.125   4.553  12.041  0.00  0.00    +0.000 HD
ENDBRANCH  10  13
ENDBRANCH   8   9
ENDBRANCH   4   8
BRANCH   7  24
ATOM     24  C   UNL     1      52.911   3.812  18.054  0.00  0.00    +0.000 C 
BRANCH  24  25
ATOM     25  N   UNL     1      53.424   5.142  17.763  0.00  0.00    +0.000 N 
ATOM     26  H   UNL     1      53.157   5.890  18.394  0.00  0.00    +0.000 HD
BRANCH  25  27
ATOM     27  C   UNL     1      54.269   5.475  16.719  0.00  0.00    +0.000 C 
ATOM     28  S   UNL     1      55.775   4.795  16.440  0.00  0.00    +0.000 S 
BRANCH  27  29
ATOM     29  C   UNL     1      53.782   6.503  15.827  0.00  0.00    +0.000 A 
ATOM     30  C   UNL     1      52.614   7.238  15.725  0.00  0.00    +0.000 A 
ATOM     31  N   UNL     1      52.670   8.091  14.649  0.00  0.00    +0.000 NA
ATOM     32  C   UNL     1      53.851   7.852  14.134  0.00  0.00    +0.000 A 
ATOM     33  O   UNL     1      54.592   6.916  14.787  0.00  0.00    +0.000 OA
ENDBRANCH  27  29
ENDBRANCH  25  27
ENDBRANCH  24  25
ENDBRANCH   7  24
TORSDOF 7
ENDMDL
MODEL 3
REMARK VINA RESULT:    -7.108      4.445      9.692
REMARK INTER + INTRA:         -10.883
REMARK INTER:                  -9.847
REMARK INTRA:                  -1.036
REMARK UNBOUND:                -0.866
REMARK  Name = 
REMARK  8 active torsions:
REMARK  status: ('A' for Active; 'I' for Inactive)
REMARK    1  A    between atoms: C_1  and  C_2
REMARK    2  A    between atoms: C_4  and  C_5
REMARK    3  A    between atoms: C_5  and  N_6
REMARK    4  A    between atoms: C_7  and  C_9
REMARK    5  A    between atoms: C_21  and  C_22
REMARK    6  A    between atoms: C_22  and  N_23
REMARK    7  A    between atoms: N_23  and  C_24
REMARK    8  A    between atoms: C_24  and  C_26
REMARK                            x       y       z     vdW  Elec       q    Type
REMARK                         _______ _______ _______ _____ _____    ______ ____
ROOT
ATOM      1  C   UNL     1      45.574   3.569  12.508  0.00  0.00    +0.000 C 
ATOM      2  C   UNL     1      45.627   5.045  12.227  0.00  0.00    +0.000 A 
ATOM      3  C   UNL     1      46.499   5.838  12.998  0.00  0.00    +0.000 A 
ATOM      4  C   UNL     1      46.644   7.213  12.768  0.00  0.00    +0.000 A 
ATOM      5  C   UNL     1      45.859   7.810  11.778  0.00  0.00    +0.000 A 
ATOM      6  C   UNL     1      44.980   7.038  11.011  0.00  0.00    +0.000 A 
ATOM      7  C   UNL     1      44.865   5.648  11.205  0.00  0.00    +0.000 A 
ENDROOT
BRANCH   4   8
ATOM      8  C   UNL     1      47.601   8.026  13.602  0.00  0.00    +0.000 C 
BRANCH   8   9
ATOM      9  N   UNL     1      47.834   7.399  14.879  0.00  0.00    +0.000 N 
ATOM     10  C   UNL     1      49.102   7.090  15.304  0.00  0.00    +0.000 C 
ATOM     11  O   UNL     1      50.095   7.366  14.642  0.00  0.00    +0.000 OA
ATOM     12  H   UNL     1      47.037   6.957  15.322  0.00  0.00    +0.000 HD
BRANCH  10  13
ATOM     13  C   UNL     1      49.210   6.468  16.631  0.00  0.00    +0.000 A 
ATOM     14  C   UNL     1      49.865   7.141  17.654  0.00  0.00    +0.000 A 
ATOM     15  S   UNL     1      49.851   6.308  19.142  0.00  0.00    +0.000 S 
ATOM     16  C   UNL     1      49.018   4.991  18.458  0.00  0.00    +0.000 A 
ATOM     17  N   UNL     1      48.704   3.898  19.206  0.00  0.00    +0.000 NA
ATOM     18  C   UNL     1      48.101   2.962  18.555  0.00  0.00    +0.000 A 
ATOM     19  N   UNL     1      47.776   3.022  17.223  0.00  0.00    +0.000 N 
ATOM     20  C   UNL     1      48.045   4.114  16.435  0.00  0.00    +0.000 A 
ATOM     21  O   UNL     1      47.698   4.153  15.260  0.00  0.00    +0.000 OA
ATOM     22  C   UNL     1      48.737   5.193  17.118  0.00  0.00    +0.000 A 
ATOM     23  H   UNL     1      47.295   2.255  16.774  0.00  0.00    +0.000 HD
ENDBRANCH  10  13
ENDBRANCH   8   9
ENDBRANCH   4   8
BRANCH   7  24
ATOM     24  C   UNL     1      43.933   4.872  10.299  0.00  0.00    +0.000 C 
BRANCH  24  25
ATOM     25  N   UNL     1      44.603   4.374   9.108  0.00  0.00    +0.000 N 
ATOM     26  H   UNL     1      44.862   5.057   8.404  0.00  0.00    +0.000 HD
BRANCH  25  27
ATOM     27  C   UNL     1      44.945   3.057   8.859  0.00  0.00    +0.000 C 
ATOM     28  S   UNL     1      44.191   1.720   9.532  0.00  0.00    +0.000 S 
BRANCH  27  29
ATOM     29  C   UNL     1      46.052   2.862   7.951  0.00  0.00    +0.000 A 
ATOM     30  C   UNL     1      46.705   3.649   7.019  0.00  0.00    +0.000 A 
ATOM     31  N   UNL     1      47.706   2.939   6.401  0.00  0.00    +0.000 NA
ATOM     32  C   UNL     1      47.633   1.759   6.964  0.00  0.00    +0.000 A 
ATOM     33  O   UNL     1      46.670   1.627   7.916  0.00  0.00    +0.000 OA
ENDBRANCH  27  29
ENDBRANCH  25  27
ENDBRANCH  24  25
ENDBRANCH   7  24
TORSDOF 7
ENDMDL
MODEL 4
REMARK VINA RESULT:    -6.967      3.523      5.293
REMARK INTER + INTRA:         -10.685
REMARK INTER:                  -9.666
REMARK INTRA:                  -1.019
REMARK UNBOUND:                -0.866
REMARK  Name = 
REMARK  8 active torsions:
REMARK  status: ('A' for Active; 'I' for Inactive)
REMARK    1  A    between atoms: C_1  and  C_2
REMARK    2  A    between atoms: C_4  and  C_5
REMARK    3  A    between atoms: C_5  and  N_6
REMARK    4  A    between atoms: C_7  and  C_9
REMARK    5  A    between atoms: C_21  and  C_22
REMARK    6  A    between atoms: C_22  and  N_23
REMARK    7  A    between atoms: N_23  and  C_24
REMARK    8  A    between atoms: C_24  and  C_26
REMARK                            x       y       z     vdW  Elec       q    Type
REMARK                         _______ _______ _______ _____ _____    ______ ____
ROOT
ATOM      1  C   UNL     1      52.136   8.867  14.030  0.00  0.00    +0.000 C 
ATOM      2  C   UNL     1      50.795   8.202  14.175  0.00  0.00    +0.000 A 
ATOM      3  C   UNL     1      49.885   8.299  13.104  0.00  0.00    +0.000 A 
ATOM      4  C   UNL     1      48.634   7.669  13.139  0.00  0.00    +0.000 A 
ATOM      5  C   UNL     1      48.272   6.970  14.293  0.00  0.00    +0.000 A 
ATOM      6  C   UNL     1      49.160   6.872  15.370  0.00  0.00    +0.000 A 
ATOM      7  C   UNL     1      50.437   7.464  15.322  0.00  0.00    +0.000 A 
ENDROOT
BRANCH   4   8
ATOM      8  C   UNL     1      47.694   7.781  11.965  0.00  0.00    +0.000 C 
BRANCH   8   9
ATOM      9  N   UNL     1      46.981   6.547  11.755  0.00  0.00    +0.000 N 
ATOM     10  C   UNL     1      45.610   6.512  11.710  0.00  0.00    +0.000 C 
ATOM     11  O   UNL     1      44.929   7.526  11.805  0.00  0.00    +0.000 OA
ATOM     12  H   UNL     1      47.498   5.689  11.910  0.00  0.00    +0.000 HD
BRANCH  10  13
ATOM     13  C   UNL     1      45.000   5.196  11.473  0.00  0.00    +0.000 A 
ATOM     14  C   UNL     1      44.302   4.568  12.496  0.00  0.00    +0.000 A 
ATOM     15  S   UNL     1      43.608   3.078  12.040  0.00  0.00    +0.000 S 
ATOM     16  C   UNL     1      44.263   3.192  10.473  0.00  0.00    +0.000 A 
ATOM     17  N   UNL     1      44.062   2.205   9.558  0.00  0.00    +0.000 NA
ATOM     18  C   UNL     1      44.640   2.405   8.423  0.00  0.00    +0.000 A 
ATOM     19  N   UNL     1      45.397   3.508   8.115  0.00  0.00    +0.000 N 
ATOM     20  C   UNL     1      45.603   4.542   8.994  0.00  0.00    +0.000 A 
ATOM     21  O   UNL     1      46.246   5.535   8.670  0.00  0.00    +0.000 OA
ATOM     22  C   UNL     1      44.984   4.360  10.295  0.00  0.00    +0.000 A 
ATOM     23  H   UNL     1      45.816   3.607   7.202  0.00  0.00    +0.000 HD
ENDBRANCH  10  13
ENDBRANCH   8   9
ENDBRANCH   4   8
BRANCH   7  24
ATOM     24  C   UNL     1      51.363   7.269  16.503  0.00  0.00    +0.000 C 
BRANCH  24  25
ATOM     25  N   UNL     1      51.561   5.866  16.828  0.00  0.00    +0.000 N 
ATOM     26  H   UNL     1      52.306   5.378  16.340  0.00  0.00    +0.000 HD
BRANCH  25  27
ATOM     27  C   UNL     1      50.847   5.139  17.765  0.00  0.00    +0.000 C 
ATOM     28  S   UNL     1      50.455   5.672  19.305  0.00  0.00    +0.000 S 
BRANCH  27  29
ATOM     29  C   UNL     1      50.434   3.819  17.347  0.00  0.00    +0.000 A 
ATOM     30  C   UNL     1      51.042   2.577  17.284  0.00  0.00    +0.000 A 
ATOM     31  N   UNL     1      50.177   1.639  16.774  0.00  0.00    +0.000 NA
ATOM     32  C   UNL     1      49.086   2.327  16.543  0.00  0.00    +0.000 A 
ATOM     33  O   UNL     1      49.150   3.646  16.868  0.00  0.00    +0.000 OA
ENDBRANCH  27  29
ENDBRANCH  25  27
ENDBRANCH  24  25
ENDBRANCH   7  24
TORSDOF 7
ENDMDL
MODEL 5
REMARK VINA RESULT:    -6.819      3.057      4.481
REMARK INTER + INTRA:         -10.476
REMARK INTER:                  -8.976
REMARK INTRA:                  -1.500
REMARK UNBOUND:                -0.866
REMARK  Name = 
REMARK  8 active torsions:
REMARK  status: ('A' for Active; 'I' for Inactive)
REMARK    1  A    between atoms: C_1  and  C_2
REMARK    2  A    between atoms: C_4  and  C_5
REMARK    3  A    between atoms: C_5  and  N_6
REMARK    4  A    between atoms: C_7  and  C_9
REMARK    5  A    between atoms: C_21  and  C_22
REMARK    6  A    between atoms: C_22  and  N_23
REMARK    7  A    between atoms: N_23  and  C_24
REMARK    8  A    between atoms: C_24  and  C_26
REMARK                            x       y       z     vdW  Elec       q    Type
REMARK                         _______ _______ _______ _____ _____    ______ ____
ROOT
ATOM      1  C   UNL     1      47.253   5.981  19.255  0.00  0.00    +0.000 C 
ATOM      2  C   UNL     1      48.325   6.802  18.592  0.00  0.00    +0.000 A 
ATOM      3  C   UNL     1      47.948   7.669  17.548  0.00  0.00    +0.000 A 
ATOM      4  C   UNL     1      48.876   8.503  16.910  0.00  0.00    +0.000 A 
ATOM      5  C   UNL     1      50.217   8.426  17.295  0.00  0.00    +0.000 A 
ATOM      6  C   UNL     1      50.610   7.561  18.323  0.00  0.00    +0.000 A 
ATOM      7  C   UNL     1      49.675   6.756  19.000  0.00  0.00    +0.000 A 
ENDROOT
BRANCH   4   8
ATOM      8  C   UNL     1      48.431   9.432  15.809  0.00  0.00    +0.000 C 
BRANCH   8   9
ATOM      9  N   UNL     1      47.439   8.805  14.974  0.00  0.00    +0.000 N 
ATOM     10  C   UNL     1      47.790   8.109  13.844  0.00  0.00    +0.000 C 
ATOM     11  O   UNL     1      48.959   7.952  13.514  0.00  0.00    +0.000 OA
ATOM     12  H   UNL     1      46.481   9.116  15.092  0.00  0.00    +0.000 HD
BRANCH  10  13
ATOM     13  C   UNL     1      46.688   7.502  13.085  0.00  0.00    +0.000 A 
ATOM     14  C   UNL     1      45.880   8.302  12.287  0.00  0.00    +0.000 A 
ATOM     15  S   UNL     1      44.688   7.435  11.429  0.00  0.00    +0.000 S 
ATOM     16  C   UNL     1      45.173   5.965  12.137  0.00  0.00    +0.000 A 
ATOM     17  N   UNL     1      44.530   4.802  11.842  0.00  0.00    +0.000 NA
ATOM     18  C   UNL     1      44.979   3.770  12.472  0.00  0.00    +0.000 A 
ATOM     19  N   UNL     1      46.020   3.793  13.366  0.00  0.00    +0.000 N 
ATOM     20  C   UNL     1      46.718   4.935  13.673  0.00  0.00    +0.000 A 
ATOM     21  O   UNL     1      47.673   4.911  14.441  0.00  0.00    +0.000 OA
ATOM     22  C   UNL     1      46.242   6.130  13.000  0.00  0.00    +0.000 A 
ATOM     23  H   UNL     1      46.329   2.945  13.820  0.00  0.00    +0.000 HD
ENDBRANCH  10  13
ENDBRANCH   8   9
ENDBRANCH   4   8
BRANCH   7  24
ATOM     24  C   UNL     1      50.166   5.887  20.137  0.00  0.00    +0.000 C 
BRANCH  24  25
ATOM     25  N   UNL     1      50.308   4.492  19.750  0.00  0.00    +0.000 N 
ATOM     26  H   UNL     1      49.820   3.803  20.313  0.00  0.00    +0.000 HD
BRANCH  25  27
ATOM     27  C   UNL     1      51.024   4.019  18.665  0.00  0.00    +0.000 C 
ATOM     28  S   UNL     1      52.630   4.372  18.341  0.00  0.00    +0.000 S 
BRANCH  27  29
ATOM     29  C   UNL     1      50.291   3.166  17.757  0.00  0.00    +0.000 A 
ATOM     30  C   UNL     1      50.612   2.087  16.952  0.00  0.00    +0.000 A 
ATOM     31  N   UNL     1      49.508   1.653  16.260  0.00  0.00    +0.000 NA
ATOM     32  C   UNL     1      48.562   2.468  16.656  0.00  0.00    +0.000 A 
ATOM     33  O   UNL     1      48.944   3.405  17.565  0.00  0.00    +0.000 OA
ENDBRANCH  27  29
ENDBRANCH  25  27
ENDBRANCH  24  25
ENDBRANCH   7  24
TORSDOF 7
ENDMDL
MODEL 6
REMARK VINA RESULT:    -6.709      1.850      2.637
REMARK INTER + INTRA:         -10.321
REMARK INTER:                  -9.215
REMARK INTRA:                  -1.106
REMARK UNBOUND:                -0.866
REMARK  Name = 
REMARK  8 active torsions:
REMARK  status: ('A' for Active; 'I' for Inactive)
REMARK    1  A    between atoms: C_1  and  C_2
REMARK    2  A    between atoms: C_4  and  C_5
REMARK    3  A    between atoms: C_5  and  N_6
REMARK    4  A    between atoms: C_7  and  C_9
REMARK    5  A    between atoms: C_21  and  C_22
REMARK    6  A    between atoms: C_22  and  N_23
REMARK    7  A    between atoms: N_23  and  C_24
REMARK    8  A    between atoms: C_24  and  C_26
REMARK                            x       y       z     vdW  Elec       q    Type
REMARK                         _______ _______ _______ _____ _____    ______ ____
ROOT
ATOM      1  C   UNL     1      50.103   7.620  17.580  0.00  0.00    +0.000 C 
ATOM      2  C   UNL     1      49.593   6.278  18.028  0.00  0.00    +0.000 A 
ATOM      3  C   UNL     1      48.702   5.588  17.183  0.00  0.00    +0.000 A 
ATOM      4  C   UNL     1      48.219   4.312  17.504  0.00  0.00    +0.000 A 
ATOM      5  C   UNL     1      48.599   3.742  18.721  0.00  0.00    +0.000 A 
ATOM      6  C   UNL     1      49.474   4.419  19.577  0.00  0.00    +0.000 A 
ATOM      7  C   UNL     1      50.001   5.680  19.239  0.00  0.00    +0.000 A 
ENDROOT
BRANCH   4   8
ATOM      8  C   UNL     1      47.281   3.598  16.564  0.00  0.00    +0.000 C 
BRANCH   8   9
ATOM      9  N   UNL     1      46.722   4.510  15.599  0.00  0.00    +0.000 N 
ATOM     10  C   UNL     1      46.746   4.234  14.255  0.00  0.00    +0.000 C 
ATOM     11  O   UNL     1      47.204   3.187  13.814  0.00  0.00    +0.000 OA
ATOM     12  H   UNL     1      46.560   5.461  15.911  0.00  0.00    +0.000 HD
BRANCH  10  13
ATOM     13  C   UNL     1      46.130   5.235  13.373  0.00  0.00    +0.000 A 
ATOM     14  C   UNL     1      46.853   6.361  13.001  0.00  0.00    +0.000 A 
ATOM     15  S   UNL     1      46.015   7.391  11.930  0.00  0.00    +0.000 S 
ATOM     16  C   UNL     1      44.634   6.397  11.970  0.00  0.00    +0.000 A 
ATOM     17  N   UNL     1      43.515   6.727  11.270  0.00  0.00    +0.000 NA
ATOM     18  C   UNL     1      42.533   5.904  11.414  0.00  0.00    +0.000 A 
ATOM     19  N   UNL     1      42.570   4.772  12.190  0.00  0.00    +0.000 N 
ATOM     20  C   UNL     1      43.685   4.382  12.890  0.00  0.00    +0.000 A 
ATOM     21  O   UNL     1      43.699   3.340  13.537  0.00  0.00    +0.000 OA
ATOM     22  C   UNL     1      44.817   5.285  12.773  0.00  0.00    +0.000 A 
ATOM     23  H   UNL     1      41.767   4.164  12.254  0.00  0.00    +0.000 HD
ENDBRANCH  10  13
ENDBRANCH   8   9
ENDBRANCH   4   8
BRANCH   7  24
ATOM     24  C   UNL     1      50.985   6.326  20.190  0.00  0.00    +0.000 C 
BRANCH  24  25
ATOM     25  N   UNL     1      52.315   5.746  20.092  0.00  0.00    +0.000 N 
ATOM     26  H   UNL     1      52.833   5.628  20.957  0.00  0.00    +0.000 HD
BRANCH  25  27
ATOM     27  C   UNL     1      52.929   5.313  18.931  0.00  0.00    +0.000 C 
ATOM     28  S   UNL     1      53.565   6.313  17.745  0.00  0.00    +0.000 S 
BRANCH  27  29
ATOM     29  C   UNL     1      52.997   3.880  18.758  0.00  0.00    +0.000 A 
ATOM     30  C   UNL     1      53.719   2.856  19.345  0.00  0.00    +0.000 A 
ATOM     31  N   UNL     1      53.402   1.648  18.772  0.00  0.00    +0.000 NA
ATOM     32  C   UNL     1      52.512   1.968  17.865  0.00  0.00    +0.000 A 
ATOM     33  O   UNL     1      52.201   3.290  17.795  0.00  0.00    +0.000 OA
ENDBRANCH  27  29
ENDBRANCH  25  27
ENDBRANCH  24  25
ENDBRANCH   7  24
TORSDOF 7
ENDMDL
MODEL 7
REMARK VINA RESULT:    -6.586      1.718      2.400
REMARK INTER + INTRA:         -10.147
REMARK INTER:                  -9.217
REMARK INTRA:                  -0.930
REMARK UNBOUND:                -0.866
REMARK  Name = 
REMARK  8 active torsions:
REMARK  status: ('A' for Active; 'I' for Inactive)
REMARK    1  A    between atoms: C_1  and  C_2
REMARK    2  A    between atoms: C_4  and  C_5
REMARK    3  A    between atoms: C_5  and  N_6
REMARK    4  A    between atoms: C_7  and  C_9
REMARK    5  A    between atoms: C_21  and  C_22
REMARK    6  A    between atoms: C_22  and  N_23
REMARK    7  A    between atoms: N_23  and  C_24
REMARK    8  A    between atoms: C_24  and  C_26
REMARK                            x       y       z     vdW  Elec       q    Type
REMARK                         _______ _______ _______ _____ _____    ______ ____
ROOT
ATOM      1  C   UNL     1      48.695   2.216  17.196  0.00  0.00    +0.000 C 
ATOM      2  C   UNL     1      49.583   3.429  17.135  0.00  0.00    +0.000 A 
ATOM      3  C   UNL     1      49.007   4.656  16.751  0.00  0.00    +0.000 A 
ATOM      4  C   UNL     1      49.753   5.842  16.715  0.00  0.00    +0.000 A 
ATOM      5  C   UNL     1      51.115   5.783  17.023  0.00  0.00    +0.000 A 
ATOM      6  C   UNL     1      51.704   4.570  17.396  0.00  0.00    +0.000 A 
ATOM      7  C   UNL     1      50.950   3.384  17.480  0.00  0.00    +0.000 A 
ENDROOT
BRANCH   4   8
ATOM      8  C   UNL     1      49.097   7.140  16.316  0.00  0.00    +0.000 C 
BRANCH   8   9
ATOM      9  N   UNL     1      47.991   6.906  15.423  0.00  0.00    +0.000 N 
ATOM     10  C   UNL     1      48.185   6.712  14.079  0.00  0.00    +0.000 C 
ATOM     11  O   UNL     1      49.303   6.686  13.579  0.00  0.00    +0.000 OA
ATOM     12  H   UNL     1      47.069   7.156  15.764  0.00  0.00    +0.000 HD
BRANCH  10  13
ATOM     13  C   UNL     1      46.979   6.468  13.275  0.00  0.00    +0.000 A 
ATOM     14  C   UNL     1      46.296   7.541  12.717  0.00  0.00    +0.000 A 
ATOM     15  S   UNL     1      44.955   7.082  11.768  0.00  0.00    +0.000 S 
ATOM     16  C   UNL     1      45.206   5.435  12.115  0.00  0.00    +0.000 A 
ATOM     17  N   UNL     1      44.371   4.482  11.618  0.00  0.00    +0.000 NA
ATOM     18  C   UNL     1      44.658   3.279  11.985  0.00  0.00    +0.000 A 
ATOM     19  N   UNL     1      45.710   2.940  12.798  0.00  0.00    +0.000 N 
ATOM     20  C   UNL     1      46.596   3.862  13.299  0.00  0.00    +0.000 A 
ATOM     21  O   UNL     1      47.552   3.520  13.985  0.00  0.00    +0.000 OA
ATOM     22  C   UNL     1      46.309   5.236  12.927  0.00  0.00    +0.000 A 
ATOM     23  H   UNL     1      45.885   1.975  13.041  0.00  0.00    +0.000 HD
ENDBRANCH  10  13
ENDBRANCH   8   9
ENDBRANCH   4   8
BRANCH   7  24
ATOM     24  C   UNL     1      51.645   2.122  17.944  0.00  0.00    +0.000 C 
BRANCH  24  25
ATOM     25  N   UNL     1      52.788   2.400  18.799  0.00  0.00    +0.000 N 
ATOM     26  H   UNL     1      52.605   2.879  19.675  0.00  0.00    +0.000 HD
BRANCH  25  27
ATOM     27  C   UNL     1      54.100   2.045  18.543  0.00  0.00    +0.000 C 
ATOM     28  S   UNL     1      55.326   3.111  18.131  0.00  0.00    +0.000 S 
BRANCH  27  29
ATOM     29  C   UNL     1      54.393   0.633  18.636  0.00  0.00    +0.000 A 
ATOM     30  C   UNL     1      54.324  -0.442  17.766  0.00  0.00    +0.000 A 
ATOM     31  N   UNL     1      54.713  -1.600  18.395  0.00  0.00    +0.000 NA
ATOM     32  C   UNL     1      55.001  -1.204  19.609  0.00  0.00    +0.000 A 
ATOM     33  O   UNL     1      54.846   0.128  19.839  0.00  0.00    +0.000 OA
ENDBRANCH  27  29
ENDBRANCH  25  27
ENDBRANCH  24  25
ENDBRANCH   7  24
TORSDOF 7
ENDMDL
MODEL 8
REMARK VINA RESULT:    -6.447      1.976      2.877
REMARK INTER + INTRA:          -9.952
REMARK INTER:                  -8.902
REMARK INTRA:                  -1.049
REMARK UNBOUND:                -0.866
REMARK  Name = 
REMARK  8 active torsions:
REMARK  status: ('A' for Active; 'I' for Inactive)
REMARK    1  A    between atoms: C_1  and  C_2
REMARK    2  A    between atoms: C_4  and  C_5
REMARK    3  A    between atoms: C_5  and  N_6
REMARK    4  A    between atoms: C_7  and  C_9
REMARK    5  A    between atoms: C_21  and  C_22
REMARK    6  A    between atoms: C_22  and  N_23
REMARK    7  A    between atoms: N_23  and  C_24
REMARK    8  A    between atoms: C_24  and  C_26
REMARK                            x       y       z     vdW  Elec       q    Type
REMARK                         _______ _______ _______ _____ _____    ______ ____
ROOT
ATOM      1  C   UNL     1      47.879   3.644  17.502  0.00  0.00    +0.000 C 
ATOM      2  C   UNL     1      48.774   4.729  16.970  0.00  0.00    +0.000 A 
ATOM      3  C   UNL     1      48.244   5.621  16.018  0.00  0.00    +0.000 A 
ATOM      4  C   UNL     1      48.996   6.688  15.508  0.00  0.00    +0.000 A 
ATOM      5  C   UNL     1      50.321   6.830  15.925  0.00  0.00    +0.000 A 
ATOM      6  C   UNL     1      50.867   5.945  16.862  0.00  0.00    +0.000 A 
ATOM      7  C   UNL     1      50.102   4.900  17.414  0.00  0.00    +0.000 A 
ENDROOT
BRANCH   4   8
ATOM      8  C   UNL     1      48.387   7.633  14.503  0.00  0.00    +0.000 C 
BRANCH   8   9
ATOM      9  N   UNL     1      47.155   7.104  13.975  0.00  0.00    +0.000 N 
ATOM     10  C   UNL     1      46.932   7.024  12.624  0.00  0.00    +0.000 C 
ATOM     11  O   UNL     1      47.778   7.359  11.803  0.00  0.00    +0.000 OA
ATOM     12  H   UNL     1      46.371   7.048  14.616  0.00  0.00    +0.000 HD
BRANCH  10  13
ATOM     13  C   UNL     1      45.644   6.451  12.209  0.00  0.00    +0.000 A 
ATOM     14  C   UNL     1      44.673   7.273  11.651  0.00  0.00    +0.000 A 
ATOM     15  S   UNL     1      43.262   6.443  11.173  0.00  0.00    +0.000 S 
ATOM     16  C   UNL     1      43.876   4.962  11.746  0.00  0.00    +0.000 A 
ATOM     17  N   UNL     1      43.139   3.821  11.662  0.00  0.00    +0.000 NA
ATOM     18  C   UNL     1      43.711   2.779  12.162  0.00  0.00    +0.000 A 
ATOM     19  N   UNL     1      44.958   2.771  12.734  0.00  0.00    +0.000 N 
ATOM     20  C   UNL     1      45.751   3.890  12.814  0.00  0.00    +0.000 A 
ATOM     21  O   UNL     1      46.880   3.838  13.289  0.00  0.00    +0.000 OA
ATOM     22  C   UNL     1      45.147   5.096  12.277  0.00  0.00    +0.000 A 
ATOM     23  H   UNL     1      45.353   1.917  13.101  0.00  0.00    +0.000 HD
ENDBRANCH  10  13
ENDBRANCH   8   9
ENDBRANCH   4   8
BRANCH   7  24
ATOM     24  C   UNL     1      50.743   4.017  18.463  0.00  0.00    +0.000 C 
BRANCH  24  25
ATOM     25  N   UNL     1      52.020   3.474  18.027  0.00  0.00    +0.000 N 
ATOM     26  H   UNL     1      52.156   3.356  17.029  0.00  0.00    +0.000 HD
BRANCH  25  27
ATOM     27  C   UNL     1      53.079   3.130  18.848  0.00  0.00    +0.000 C 
ATOM     28  S   UNL     1      53.497   3.919  20.267  0.00  0.00    +0.000 S 
BRANCH  27  29
ATOM     29  C   UNL     1      53.870   2.004  18.407  0.00  0.00    +0.000 A 
ATOM     30  C   UNL     1      54.555   1.682  17.248  0.00  0.00    +0.000 A 
ATOM     31  N   UNL     1      55.135   0.441  17.356  0.00  0.00    +0.000 NA
ATOM     32  C   UNL     1      54.789   0.049  18.557  0.00  0.00    +0.000 A 
ATOM     33  O   UNL     1      54.034   0.933  19.264  0.00  0.00    +0.000 OA
ENDBRANCH  27  29
ENDBRANCH  25  27
ENDBRANCH  24  25
ENDBRANCH   7  24
TORSDOF 7
ENDMDL
MODEL 9
REMARK VINA RESULT:    -6.203      2.842      4.120
REMARK INTER + INTRA:          -9.608
REMARK INTER:                  -8.051
REMARK INTRA:                  -1.557
REMARK UNBOUND:                -0.866
REMARK  Name = 
REMARK  8 active torsions:
REMARK  status: ('A' for Active; 'I' for Inactive)
REMARK    1  A    between atoms: C_1  and  C_2
REMARK    2  A    between atoms: C_4  and  C_5
REMARK    3  A    between atoms: C_5  and  N_6
REMARK    4  A    between atoms: C_7  and  C_9
REMARK    5  A    between atoms: C_21  and  C_22
REMARK    6  A    between atoms: C_22  and  N_23
REMARK    7  A    between atoms: N_23  and  C_24
REMARK    8  A    between atoms: C_24  and  C_26
REMARK                            x       y       z     vdW  Elec       q    Type
REMARK                         _______ _______ _______ _____ _____    ______ ____
ROOT
ATOM      1  C   UNL     1      52.018   1.575  17.574  0.00  0.00    +0.000 C 
ATOM      2  C   UNL     1      51.087   2.748  17.720  0.00  0.00    +0.000 A 
ATOM      3  C   UNL     1      49.750   2.590  17.305  0.00  0.00    +0.000 A 
ATOM      4  C   UNL     1      48.806   3.617  17.450  0.00  0.00    +0.000 A 
ATOM      5  C   UNL     1      49.228   4.840  17.976  0.00  0.00    +0.000 A 
ATOM      6  C   UNL     1      50.555   5.016  18.384  0.00  0.00    +0.000 A 
ATOM      7  C   UNL     1      51.496   3.974  18.284  0.00  0.00    +0.000 A 
ENDROOT
BRANCH   4   8
ATOM      8  C   UNL     1      47.380   3.404  17.011  0.00  0.00    +0.000 C 
BRANCH   8   9
ATOM      9  N   UNL     1      47.006   4.355  15.994  0.00  0.00    +0.000 N 
ATOM     10  C   UNL     1      47.067   4.038  14.660  0.00  0.00    +0.000 C 
ATOM     11  O   UNL     1      47.402   2.926  14.271  0.00  0.00    +0.000 OA
ATOM     12  H   UNL     1      46.958   5.328  16.275  0.00  0.00    +0.000 HD
BRANCH  10  13
ATOM     13  C   UNL     1      46.644   5.086  13.722  0.00  0.00    +0.000 A 
ATOM     14  C   UNL     1      45.491   4.909  12.968  0.00  0.00    +0.000 A 
ATOM     15  S   UNL     1      45.111   6.242  11.973  0.00  0.00    +0.000 S 
ATOM     16  C   UNL     1      46.505   7.080  12.472  0.00  0.00    +0.000 A 
ATOM     17  N   UNL     1      46.799   8.309  11.968  0.00  0.00    +0.000 NA
ATOM     18  C   UNL     1      47.901   8.816  12.408  0.00  0.00    +0.000 A 
ATOM     19  N   UNL     1      48.733   8.209  13.314  0.00  0.00    +0.000 N 
ATOM     20  C   UNL     1      48.464   6.984  13.873  0.00  0.00    +0.000 A 
ATOM     21  O   UNL     1      49.206   6.491  14.715  0.00  0.00    +0.000 OA
ATOM     22  C   UNL     1      47.240   6.362  13.399  0.00  0.00    +0.000 A 
ATOM     23  H   UNL     1      49.579   8.665  13.625  0.00  0.00    +0.000 HD
ENDBRANCH  10  13
ENDBRANCH   8   9
ENDBRANCH   4   8
BRANCH   7  24
ATOM     24  C   UNL     1      52.899   4.221  18.796  0.00  0.00    +0.000 C 
BRANCH  24  25
ATOM     25  N   UNL     1      53.169   5.634  19.013  0.00  0.00    +0.000 N 
ATOM     26  H   UNL     1      52.647   6.097  19.750  0.00  0.00    +0.000 HD
BRANCH  25  27
ATOM     27  C   UNL     1      54.095   6.398  18.327  0.00  0.00    +0.000 C 
ATOM     28  S   UNL     1      55.623   6.799  18.888  0.00  0.00    +0.000 S 
BRANCH  27  29
ATOM     29  C   UNL     1      53.670   6.880  17.032  0.00  0.00    +0.000 A 
ATOM     30  C   UNL     1      52.506   7.434  16.528  0.00  0.00    +0.000 A 
ATOM     31  N   UNL     1      52.637   7.699  15.186  0.00  0.00    +0.000 NA
ATOM     32  C   UNL     1      53.857   7.303  14.917  0.00  0.00    +0.000 A 
ATOM     33  O   UNL     1      54.554   6.805  15.974  0.00  0.00    +0.000 OA
ENDBRANCH  27  29
ENDBRANCH  25  27
ENDBRANCH  24  25
ENDBRANCH   7  24
TORSDOF 7
ENDMDL
