MODEL 1
REMARK VINA RESULT:    -8.167      0.000      0.000
REMARK INTER + INTRA:         -13.229
REMARK INTER:                 -11.986
REMARK INTRA:                  -1.242
REMARK UNBOUND:                -1.242
REMARK  Name = 
REMARK  9 active torsions:
REMARK  status: ('A' for Active; 'I' for Inactive)
REMARK    1  A    between atoms: C_1  and  O_2
REMARK    2  A    between atoms: O_2  and  C_3
REMARK    3  A    between atoms: C_10  and  C_11
REMARK    4  A    between atoms: N_13  and  C_14
REMARK    5  A    between atoms: C_14  and  C_15
REMARK    6  A    between atoms: C_18  and  C_19
REMARK    7  A    between atoms: C_19  and  O_20
REMARK    8  A    between atoms: O_20  and  C_21
REMARK    9  A    between atoms: C_21  and  C_22
REMARK                            x       y       z     vdW  Elec       q    Type
REMARK                         _______ _______ _______ _____ _____    ______ ____
ROOT
ATOM      1  C   UNL     1      47.915   7.011  13.129  0.00  0.00    +0.000 C 
ENDROOT
BRANCH   1   2
ATOM      2  C   UNL     1      46.795   6.134  12.624  0.00  0.00    +0.000 A 
ATOM      3  C   UNL     1      46.268   5.107  13.419  0.00  0.00    +0.000 A 
ATOM      4  C   UNL     1      45.227   4.297  12.943  0.00  0.00    +0.000 A 
ATOM      5  C   UNL     1      44.697   4.489  11.660  0.00  0.00    +0.000 A 
ATOM      6  C   UNL     1      45.244   5.499  10.857  0.00  0.00    +0.000 A 
ATOM      7  C   UNL     1      46.284   6.307  11.331  0.00  0.00    +0.000 A 
BRANCH   5   8
ATOM      8  C   UNL     1      43.575   3.619  11.144  0.00  0.00    +0.000 C 
BRANCH   8   9
ATOM      9  O   UNL     1      43.801   3.328   9.768  0.00  0.00    +0.000 OA
BRANCH   9  10
ATOM     10  C   UNL     1      44.511   2.097   9.590  0.00  0.00    +0.000 C 
BRANCH  10  11
ATOM     11  C   UNL     1      45.547   2.221   8.491  0.00  0.00    +0.000 A 
ATOM     12  C   UNL     1      45.738   3.429   7.822  0.00  0.00    +0.000 A 
ATOM     13  C   UNL     1      46.703   3.508   6.822  0.00  0.00    +0.000 A 
ATOM     14  C   UNL     1      47.464   2.386   6.524  0.00  0.00    +0.000 A 
ATOM     15  C   UNL     1      47.231   1.228   7.246  0.00  0.00    +0.000 A 
ATOM     16  N   UNL     1      46.300   1.122   8.223  0.00  0.00    +0.000 NA
ENDBRANCH  10  11
ENDBRANCH   9  10
ENDBRANCH   8   9
ENDBRANCH   5   8
ENDBRANCH   1   2
BRANCH   1  19
ATOM     17  C   UNL     1      49.028   7.036  15.327  0.00  0.00    +0.000 C 
ATOM     18  O   UNL     1      50.137   6.891  14.816  0.00  0.00    +0.000 OA
ATOM     19  N   UNL     1      47.896   7.101  14.567  0.00  0.00    +0.000 N 
ATOM     20  H   UNL     1      46.990   7.143  15.012  0.00  0.00    +0.000 HD
BRANCH  17  28
ATOM     21  C   UNL     1      48.840   4.715  17.859  0.00  0.00    +0.000 A 
ATOM     22  N   UNL     1      48.742   4.034  19.018  0.00  0.00    +0.000 NA
ATOM     23  C   UNL     1      48.580   4.731  20.144  0.00  0.00    +0.000 A 
ATOM     24  N   UNL     1      48.505   6.056  20.263  0.00  0.00    +0.000 NA
ATOM     25  C   UNL     1      48.618   6.695  19.087  0.00  0.00    +0.000 A 
ATOM     26  S   UNL     1      48.547   8.392  19.045  0.00  0.00    +0.000 S 
ATOM     27  C   UNL     1      48.742   8.408  17.357  0.00  0.00    +0.000 A 
ATOM     28  C   UNL     1      48.867   7.144  16.791  0.00  0.00    +0.000 A 
ATOM     29  C   UNL     1      48.792   6.120  17.832  0.00  0.00    +0.000 A 
BRANCH  21  31
ATOM     30  C   UNL     1      47.868   3.312  16.265  0.00  0.00    +0.000 C 
ATOM     31  O   UNL     1      49.044   3.990  16.704  0.00  0.00    +0.000 OA
ENDBRANCH  21  31
ENDBRANCH  17  28
ENDBRANCH   1  19
TORSDOF 8
ENDMDL
MODEL 2
REMARK VINA RESULT:    -7.793      1.481      2.483
REMARK INTER + INTRA:         -12.680
REMARK INTER:                 -11.561
REMARK INTRA:                  -1.119
REMARK UNBOUND:                -1.242
REMARK  Name = 
REMARK  9 active torsions:
REMARK  status: ('A' for Active; 'I' for Inactive)
REMARK    1  A    between atoms: C_1  and  O_2
REMARK    2  A    between atoms: O_2  and  C_3
REMARK    3  A    between atoms: C_10  and  C_11
REMARK    4  A    between atoms: N_13  and  C_14
REMARK    5  A    between atoms: C_14  and  C_15
REMARK    6  A    between atoms: C_18  and  C_19
REMARK    7  A    between atoms: C_19  and  O_20
REMARK    8  A    between atoms: O_20  and  C_21
REMARK    9  A    between atoms: C_21  and  C_22
REMARK                            x       y       z     vdW  Elec       q    Type
REMARK                         _______ _______ _______ _____ _____    ______ ____
ROOT
ATOM      1  C   UNL     1      48.136   6.701  13.718  0.00  0.00    +0.000 C 
ENDROOT
BRANCH   1   2
ATOM      2  C   UNL     1      46.982   6.048  12.998  0.00  0.00    +0.000 A 
ATOM      3  C   UNL     1      46.268   4.995  13.585  0.00  0.00    +0.000 A 
ATOM      4  C   UNL     1      45.196   4.393  12.910  0.00  0.00    +0.000 A 
ATOM      5  C   UNL     1      44.822   4.823  11.630  0.00  0.00    +0.000 A 
ATOM      6  C   UNL     1      45.554   5.858  11.033  0.00  0.00    +0.000 A 
ATOM      7  C   UNL     1      46.625   6.459  11.706  0.00  0.00    +0.000 A 
BRANCH   5   8
ATOM      8  C   UNL     1      43.667   4.179  10.900  0.00  0.00    +0.000 C 
BRANCH   8   9
ATOM      9  O   UNL     1      44.083   3.823   9.585  0.00  0.00    +0.000 OA
BRANCH   9  10
ATOM     10  C   UNL     1      44.570   2.477   9.522  0.00  0.00    +0.000 C 
BRANCH  10  11
ATOM     11  C   UNL     1      45.584   2.318   8.408  0.00  0.00    +0.000 A 
ATOM     12  C   UNL     1      45.874   3.376   7.549  0.00  0.00    +0.000 A 
ATOM     13  C   UNL     1      46.816   3.195   6.540  0.00  0.00    +0.000 A 
ATOM     14  C   UNL     1      47.457   1.969   6.422  0.00  0.00    +0.000 A 
ATOM     15  C   UNL     1      47.130   0.973   7.326  0.00  0.00    +0.000 A 
ATOM     16  N   UNL     1      46.219   1.119   8.316  0.00  0.00    +0.000 NA
ENDBRANCH  10  11
ENDBRANCH   9  10
ENDBRANCH   8   9
ENDBRANCH   5   8
ENDBRANCH   1   2
BRANCH   1  19
ATOM     17  C   UNL     1      49.015   6.437  16.005  0.00  0.00    +0.000 C 
ATOM     18  O   UNL     1      50.168   6.324  15.596  0.00  0.00    +0.000 OA
ATOM     19  N   UNL     1      47.969   6.621  15.147  0.00  0.00    +0.000 N 
ATOM     20  H   UNL     1      47.023   6.636  15.499  0.00  0.00    +0.000 HD
BRANCH  17  28
ATOM     21  C   UNL     1      47.817   8.741  18.261  0.00  0.00    +0.000 A 
ATOM     22  N   UNL     1      47.367   9.428  19.329  0.00  0.00    +0.000 NA
ATOM     23  C   UNL     1      47.302   8.796  20.501  0.00  0.00    +0.000 A 
ATOM     24  N   UNL     1      47.635   7.529  20.748  0.00  0.00    +0.000 NA
ATOM     25  C   UNL     1      48.067   6.879  19.655  0.00  0.00    +0.000 A 
ATOM     26  S   UNL     1      48.535   5.250  19.780  0.00  0.00    +0.000 S 
ATOM     27  C   UNL     1      48.919   5.182  18.126  0.00  0.00    +0.000 A 
ATOM     28  C   UNL     1      48.703   6.376  17.447  0.00  0.00    +0.000 A 
ATOM     29  C   UNL     1      48.192   7.390  18.368  0.00  0.00    +0.000 A 
BRANCH  21  31
ATOM     30  C   UNL     1      48.668  10.556  17.064  0.00  0.00    +0.000 C 
ATOM     31  O   UNL     1      47.846   9.391  17.045  0.00  0.00    +0.000 OA
ENDBRANCH  21  31
ENDBRANCH  17  28
ENDBRANCH   1  19
TORSDOF 8
ENDMDL
MODEL 3
REMARK VINA RESULT:    -7.254      1.836      2.014
REMARK INTER + INTRA:         -11.889
REMARK INTER:                 -10.777
REMARK INTRA:                  -1.112
REMARK UNBOUND:                -1.242
REMARK  Name = 
REMARK  9 active torsions:
REMARK  status: ('A' for Active; 'I' for Inactive)
REMARK    1  A    between atoms: C_1  and  O_2
REMARK    2  A    between atoms: O_2  and  C_3
REMARK    3  A    between atoms: C_10  and  C_11
REMARK    4  A    between atoms: N_13  and  C_14
REMARK    5  A    between atoms: C_14  and  C_15
REMARK    6  A    between atoms: C_18  and  C_19
REMARK    7  A    between atoms: C_19  and  O_20
REMARK    8  A    between atoms: O_20  and  C_21
REMARK    9  A    between atoms: C_21  and  C_22
REMARK                            x       y       z     vdW  Elec       q    Type
REMARK                         _______ _______ _______ _____ _____    ______ ____
ROOT
ATOM      1  C   UNL     1      46.906   8.100  13.405  0.00  0.00    +0.000 C 
ENDROOT
BRANCH   1   2
ATOM      2  C   UNL     1      46.093   6.942  12.878  0.00  0.00    +0.000 A 
ATOM      3  C   UNL     1      46.338   5.632  13.310  0.00  0.00    +0.000 A 
ATOM      4  C   UNL     1      45.579   4.562  12.816  0.00  0.00    +0.000 A 
ATOM      5  C   UNL     1      44.567   4.776  11.871  0.00  0.00    +0.000 A 
ATOM      6  C   UNL     1      44.341   6.084  11.420  0.00  0.00    +0.000 A 
ATOM      7  C   UNL     1      45.100   7.153  11.912  0.00  0.00    +0.000 A 
BRANCH   5   8
ATOM      8  C   UNL     1      43.745   3.626  11.337  0.00  0.00    +0.000 C 
BRANCH   8   9
ATOM      9  O   UNL     1      44.567   2.806  10.511  0.00  0.00    +0.000 OA
BRANCH   9  10
ATOM     10  C   UNL     1      44.380   3.088   9.119  0.00  0.00    +0.000 C 
BRANCH  10  11
ATOM     11  C   UNL     1      45.546   2.577   8.299  0.00  0.00    +0.000 A 
ATOM     12  C   UNL     1      46.280   3.438   7.485  0.00  0.00    +0.000 A 
ATOM     13  C   UNL     1      47.349   2.934   6.751  0.00  0.00    +0.000 A 
ATOM     14  C   UNL     1      47.671   1.588   6.858  0.00  0.00    +0.000 A 
ATOM     15  C   UNL     1      46.910   0.800   7.703  0.00  0.00    +0.000 A 
ATOM     16  N   UNL     1      45.864   1.261   8.429  0.00  0.00    +0.000 NA
ENDBRANCH  10  11
ENDBRANCH   9  10
ENDBRANCH   8   9
ENDBRANCH   5   8
ENDBRANCH   1   2
BRANCH   1  19
ATOM     17  C   UNL     1      48.624   8.219  15.168  0.00  0.00    +0.000 C 
ATOM     18  O   UNL     1      48.073   9.180  15.701  0.00  0.00    +0.000 OA
ATOM     19  N   UNL     1      48.113   7.639  14.042  0.00  0.00    +0.000 N 
ATOM     20  H   UNL     1      48.623   6.900  13.579  0.00  0.00    +0.000 HD
BRANCH  17  28
ATOM     21  C   UNL     1      49.371   5.229  16.695  0.00  0.00    +0.000 A 
ATOM     22  N   UNL     1      49.927   4.163  17.304  0.00  0.00    +0.000 NA
ATOM     23  C   UNL     1      51.226   4.217  17.601  0.00  0.00    +0.000 A 
ATOM     24  N   UNL     1      52.063   5.225  17.359  0.00  0.00    +0.000 NA
ATOM     25  C   UNL     1      51.471   6.260  16.741  0.00  0.00    +0.000 A 
ATOM     26  S   UNL     1      52.386   7.637  16.349  0.00  0.00    +0.000 S 
ATOM     27  C   UNL     1      51.032   8.405  15.668  0.00  0.00    +0.000 A 
ATOM     28  C   UNL     1      49.868   7.646  15.719  0.00  0.00    +0.000 A 
ATOM     29  C   UNL     1      50.136   6.361  16.363  0.00  0.00    +0.000 A 
BRANCH  21  31
ATOM     30  C   UNL     1      47.530   3.819  16.421  0.00  0.00    +0.000 C 
ATOM     31  O   UNL     1      48.037   5.151  16.357  0.00  0.00    +0.000 OA
ENDBRANCH  21  31
ENDBRANCH  17  28
ENDBRANCH   1  19
TORSDOF 8
ENDMDL
MODEL 4
REMARK VINA RESULT:    -7.187      1.890      2.490
REMARK INTER + INTRA:         -11.790
REMARK INTER:                 -10.763
REMARK INTRA:                  -1.027
REMARK UNBOUND:                -1.242
REMARK  Name = 
REMARK  9 active torsions:
REMARK  status: ('A' for Active; 'I' for Inactive)
REMARK    1  A    between atoms: C_1  and  O_2
REMARK    2  A    between atoms: O_2  and  C_3
REMARK    3  A    between atoms: C_10  and  C_11
REMARK    4  A    between atoms: N_13  and  C_14
REMARK    5  A    between atoms: C_14  and  C_15
REMARK    6  A    between atoms: C_18  and  C_19
REMARK    7  A    between atoms: C_19  and  O_20
REMARK    8  A    between atoms: O_20  and  C_21
REMARK    9  A    between atoms: C_21  and  C_22
REMARK                            x       y       z     vdW  Elec       q    Type
REMARK                         _______ _______ _______ _____ _____    ______ ____
ROOT
ATOM      1  C   UNL     1      48.016   6.739  13.414  0.00  0.00    +0.000 C 
ENDROOT
BRANCH   1   2
ATOM      2  C   UNL     1      46.888   5.949  12.798  0.00  0.00    +0.000 A 
ATOM      3  C   UNL     1      46.245   6.395  11.636  0.00  0.00    +0.000 A 
ATOM      4  C   UNL     1      45.198   5.655  11.069  0.00  0.00    +0.000 A 
ATOM      5  C   UNL     1      44.763   4.459  11.657  0.00  0.00    +0.000 A 
ATOM      6  C   UNL     1      45.389   4.029  12.834  0.00  0.00    +0.000 A 
ATOM      7  C   UNL     1      46.435   4.768  13.401  0.00  0.00    +0.000 A 
BRANCH   5   8
ATOM      8  C   UNL     1      43.636   3.658  11.049  0.00  0.00    +0.000 C 
BRANCH   8   9
ATOM      9  O   UNL     1      43.912   3.432   9.670  0.00  0.00    +0.000 OA
BRANCH   9  10
ATOM     10  C   UNL     1      44.473   2.134   9.441  0.00  0.00    +0.000 C 
BRANCH  10  11
ATOM     11  C   UNL     1      45.563   2.192   8.391  0.00  0.00    +0.000 A 
ATOM     12  C   UNL     1      45.804   3.362   7.674  0.00  0.00    +0.000 A 
ATOM     13  C   UNL     1      46.819   3.380   6.721  0.00  0.00    +0.000 A 
ATOM     14  C   UNL     1      47.579   2.236   6.517  0.00  0.00    +0.000 A 
ATOM     15  C   UNL     1      47.293   1.118   7.282  0.00  0.00    +0.000 A 
ATOM     16  N   UNL     1      46.313   1.072   8.215  0.00  0.00    +0.000 NA
ENDBRANCH  10  11
ENDBRANCH   9  10
ENDBRANCH   8   9
ENDBRANCH   5   8
ENDBRANCH   1   2
BRANCH   1  19
ATOM     17  C   UNL     1      48.767   6.883  15.757  0.00  0.00    +0.000 C 
ATOM     18  O   UNL     1      48.699   8.110  15.749  0.00  0.00    +0.000 OA
ATOM     19  N   UNL     1      48.450   6.144  14.653  0.00  0.00    +0.000 N 
ATOM     20  H   UNL     1      48.586   5.144  14.659  0.00  0.00    +0.000 HD
BRANCH  17  28
ATOM     21  C   UNL     1      51.843   5.971  16.997  0.00  0.00    +0.000 A 
ATOM     22  N   UNL     1      52.896   5.500  17.694  0.00  0.00    +0.000 NA
ATOM     23  C   UNL     1      52.654   4.831  18.822  0.00  0.00    +0.000 A 
ATOM     24  N   UNL     1      51.463   4.568  19.359  0.00  0.00    +0.000 NA
ATOM     25  C   UNL     1      50.443   5.065  18.639  0.00  0.00    +0.000 A 
ATOM     26  S   UNL     1      48.848   4.828  19.172  0.00  0.00    +0.000 S 
ATOM     27  C   UNL     1      48.223   5.670  17.835  0.00  0.00    +0.000 A 
ATOM     28  C   UNL     1      49.195   6.147  16.963  0.00  0.00    +0.000 A 
ATOM     29  C   UNL     1      50.525   5.781  17.449  0.00  0.00    +0.000 A 
BRANCH  21  31
ATOM     30  C   UNL     1      53.495   6.941  15.662  0.00  0.00    +0.000 C 
ATOM     31  O   UNL     1      52.103   6.693  15.851  0.00  0.00    +0.000 OA
ENDBRANCH  21  31
ENDBRANCH  17  28
ENDBRANCH   1  19
TORSDOF 8
ENDMDL
MODEL 5
REMARK VINA RESULT:    -6.975      1.936      2.687
REMARK INTER + INTRA:         -11.479
REMARK INTER:                 -10.459
REMARK INTRA:                  -1.020
REMARK UNBOUND:                -1.242
REMARK  Name = 
REMARK  9 active torsions:
REMARK  status: ('A' for Active; 'I' for Inactive)
REMARK    1  A    between atoms: C_1  and  O_2
REMARK    2  A    between atoms: O_2  and  C_3
REMARK    3  A    between atoms: C_10  and  C_11
REMARK    4  A    between atoms: N_13  and  C_14
REMARK    5  A    between atoms: C_14  and  C_15
REMARK    6  A    between atoms: C_18  and  C_19
REMARK    7  A    between atoms: C_19  and  O_20
REMARK    8  A    between atoms: O_20  and  C_21
REMARK    9  A    between atoms: C_21  and  C_22
REMARK                            x       y       z     vdW  Elec       q    Type
REMARK                         _______ _______ _______ _____ _____    ______ ____
ROOT
ATOM      1  C   UNL     1      47.866   5.080  14.591  0.00  0.00    +0.000 C 
ENDROOT
BRANCH   1   2
ATOM      2  C   UNL     1      46.724   4.879  13.625  0.00  0.00    +0.000 A 
ATOM      3  C   UNL     1      46.326   3.593  13.235  0.00  0.00    +0.000 A 
ATOM      4  C   UNL     1      45.264   3.414  12.337  0.00  0.00    +0.000 A 
ATOM      5  C   UNL     1      44.583   4.516  11.802  0.00  0.00    +0.000 A 
ATOM      6  C   UNL     1      45.000   5.802  12.172  0.00  0.00    +0.000 A 
ATOM      7  C   UNL     1      46.061   5.981  13.068  0.00  0.00    +0.000 A 
BRANCH   5   8
ATOM      8  C   UNL     1      43.437   4.328  10.836  0.00  0.00    +0.000 C 
BRANCH   8   9
ATOM      9  O   UNL     1      43.834   3.426   9.807  0.00  0.00    +0.000 OA
BRANCH   9  10
ATOM     10  C   UNL     1      44.583   4.082   8.778  0.00  0.00    +0.000 C 
BRANCH  10  11
ATOM     11  C   UNL     1      45.580   3.134   8.144  0.00  0.00    +0.000 A 
ATOM     12  C   UNL     1      46.514   3.595   7.217  0.00  0.00    +0.000 A 
ATOM     13  C   UNL     1      47.420   2.696   6.660  0.00  0.00    +0.000 A 
ATOM     14  C   UNL     1      47.383   1.365   7.051  0.00  0.00    +0.000 A 
ATOM     15  C   UNL     1      46.440   0.987   7.992  0.00  0.00    +0.000 A 
ATOM     16  N   UNL     1      45.547   1.838   8.551  0.00  0.00    +0.000 NA
ENDBRANCH  10  11
ENDBRANCH   9  10
ENDBRANCH   8   9
ENDBRANCH   5   8
ENDBRANCH   1   2
BRANCH   1  19
ATOM     17  C   UNL     1      48.920   6.946  15.808  0.00  0.00    +0.000 C 
ATOM     18  O   UNL     1      49.950   6.301  15.992  0.00  0.00    +0.000 OA
ATOM     19  N   UNL     1      47.858   6.415  15.133  0.00  0.00    +0.000 N 
ATOM     20  H   UNL     1      46.995   6.935  15.060  0.00  0.00    +0.000 HD
BRANCH  17  28
ATOM     21  C   UNL     1      47.628   8.287  18.700  0.00  0.00    +0.000 A 
ATOM     22  N   UNL     1      47.199   9.060  19.717  0.00  0.00    +0.000 NA
ATOM     23  C   UNL     1      47.334  10.381  19.602  0.00  0.00    +0.000 A 
ATOM     24  N   UNL     1      47.860  11.047  18.574  0.00  0.00    +0.000 NA
ATOM     25  C   UNL     1      48.286  10.239  17.589  0.00  0.00    +0.000 A 
ATOM     26  S   UNL     1      48.988  10.912  16.197  0.00  0.00    +0.000 S 
ATOM     27  C   UNL     1      49.221   9.375  15.510  0.00  0.00    +0.000 A 
ATOM     28  C   UNL     1      48.780   8.327  16.310  0.00  0.00    +0.000 A 
ATOM     29  C   UNL     1      48.219   8.849  17.555  0.00  0.00    +0.000 A 
BRANCH  21  31
ATOM     30  C   UNL     1      48.631   6.348  19.529  0.00  0.00    +0.000 C 
ATOM     31  O   UNL     1      47.519   6.920  18.843  0.00  0.00    +0.000 OA
ENDBRANCH  21  31
ENDBRANCH  17  28
ENDBRANCH   1  19
TORSDOF 8
ENDMDL
MODEL 6
REMARK VINA RESULT:    -6.915      2.171      3.863
REMARK INTER + INTRA:         -11.392
REMARK INTER:                 -10.152
REMARK INTRA:                  -1.240
REMARK UNBOUND:                -1.242
REMARK  Name = 
REMARK  9 active torsions:
REMARK  status: ('A' for Active; 'I' for Inactive)
REMARK    1  A    between atoms: C_1  and  O_2
REMARK    2  A    between atoms: O_2  and  C_3
REMARK    3  A    between atoms: C_10  and  C_11
REMARK    4  A    between atoms: N_13  and  C_14
REMARK    5  A    between atoms: C_14  and  C_15
REMARK    6  A    between atoms: C_18  and  C_19
REMARK    7  A    between atoms: C_19  and  O_20
REMARK    8  A    between atoms: O_20  and  C_21
REMARK    9  A    between atoms: C_21  and  C_22
REMARK                            x       y       z     vdW  Elec       q    Type
REMARK                         _______ _______ _______ _____ _____    ______ ____
ROOT
ATOM      1  C   UNL     1      47.530   4.992  14.757  0.00  0.00    +0.000 C 
ENDROOT
BRANCH   1   2
ATOM      2  C   UNL     1      46.495   4.889  13.664  0.00  0.00    +0.000 A 
ATOM      3  C   UNL     1      46.046   3.642  13.209  0.00  0.00    +0.000 A 
ATOM      4  C   UNL     1      45.084   3.554  12.194  0.00  0.00    +0.000 A 
ATOM      5  C   UNL     1      44.557   4.711  11.603  0.00  0.00    +0.000 A 
ATOM      6  C   UNL     1      45.026   5.957  12.040  0.00  0.00    +0.000 A 
ATOM      7  C   UNL     1      45.988   6.044  13.054  0.00  0.00    +0.000 A 
BRANCH   5   8
ATOM      8  C   UNL     1      43.518   4.621  10.509  0.00  0.00    +0.000 C 
BRANCH   8   9
ATOM      9  O   UNL     1      43.981   3.735   9.494  0.00  0.00    +0.000 OA
BRANCH   9  10
ATOM     10  C   UNL     1      44.972   4.346   8.660  0.00  0.00    +0.000 C 
BRANCH  10  11
ATOM     11  C   UNL     1      45.822   3.299   7.971  0.00  0.00    +0.000 A 
ATOM     12  C   UNL     1      46.601   3.627   6.863  0.00  0.00    +0.000 A 
ATOM     13  C   UNL     1      47.374   2.640   6.258  0.00  0.00    +0.000 A 
ATOM     14  C   UNL     1      47.364   1.354   6.781  0.00  0.00    +0.000 A 
ATOM     15  C   UNL     1      46.580   1.110   7.896  0.00  0.00    +0.000 A 
ATOM     16  N   UNL     1      45.819   2.049   8.505  0.00  0.00    +0.000 NA
ENDBRANCH  10  11
ENDBRANCH   9  10
ENDBRANCH   8   9
ENDBRANCH   5   8
ENDBRANCH   1   2
BRANCH   1  19
ATOM     17  C   UNL     1      49.004   6.705  15.740  0.00  0.00    +0.000 C 
ATOM     18  O   UNL     1      49.671   5.856  16.328  0.00  0.00    +0.000 OA
ATOM     19  N   UNL     1      47.941   6.359  14.956  0.00  0.00    +0.000 N 
ATOM     20  H   UNL     1      47.362   7.076  14.545  0.00  0.00    +0.000 HD
BRANCH  17  28
ATOM     21  C   UNL     1      49.864   9.126  13.453  0.00  0.00    +0.000 A 
ATOM     22  N   UNL     1      50.207  10.244  12.784  0.00  0.00    +0.000 NA
ATOM     23  C   UNL     1      50.386  11.365  13.484  0.00  0.00    +0.000 A 
ATOM     24  N   UNL     1      50.259  11.515  14.802  0.00  0.00    +0.000 NA
ATOM     25  C   UNL     1      49.905  10.380  15.427  0.00  0.00    +0.000 A 
ATOM     26  S   UNL     1      49.695  10.383  17.113  0.00  0.00    +0.000 S 
ATOM     27  C   UNL     1      49.302   8.730  17.117  0.00  0.00    +0.000 A 
ATOM     28  C   UNL     1      49.318   8.143  15.856  0.00  0.00    +0.000 A 
ATOM     29  C   UNL     1      49.680   9.136  14.847  0.00  0.00    +0.000 A 
BRANCH  21  31
ATOM     30  C   UNL     1      48.636   8.150  11.722  0.00  0.00    +0.000 C 
ATOM     31  O   UNL     1      49.645   7.980  12.717  0.00  0.00    +0.000 OA
ENDBRANCH  21  31
ENDBRANCH  17  28
ENDBRANCH   1  19
TORSDOF 8
ENDMDL
MODEL 7
REMARK VINA RESULT:    -6.547      3.643      5.346
REMARK INTER + INTRA:         -10.851
REMARK INTER:                  -9.814
REMARK INTRA:                  -1.037
REMARK UNBOUND:                -1.242
REMARK  Name = 
REMARK  9 active torsions:
REMARK  status: ('A' for Active; 'I' for Inactive)
REMARK    1  A    between atoms: C_1  and  O_2
REMARK    2  A    between atoms: O_2  and  C_3
REMARK    3  A    between atoms: C_10  and  C_11
REMARK    4  A    between atoms: N_13  and  C_14
REMARK    5  A    between atoms: C_14  and  C_15
REMARK    6  A    between atoms: C_18  and  C_19
REMARK    7  A    between atoms: C_19  and  O_20
REMARK    8  A    between atoms: O_20  and  C_21
REMARK    9  A    between atoms: C_21  and  C_22
REMARK                            x       y       z     vdW  Elec       q    Type
REMARK                         _______ _______ _______ _____ _____    ______ ____
ROOT
ATOM      1  C   UNL     1      48.180   6.499  13.735  0.00  0.00    +0.000 C 
ENDROOT
BRANCH   1   2
ATOM      2  C   UNL     1      47.012   5.931  12.967  0.00  0.00    +0.000 A 
ATOM      3  C   UNL     1      46.640   6.460  11.723  0.00  0.00    +0.000 A 
ATOM      4  C   UNL     1      45.553   5.926  11.016  0.00  0.00    +0.000 A 
ATOM      5  C   UNL     1      44.808   4.861  11.540  0.00  0.00    +0.000 A 
ATOM      6  C   UNL     1      45.166   4.352  12.796  0.00  0.00    +0.000 A 
ATOM      7  C   UNL     1      46.250   4.884  13.503  0.00  0.00    +0.000 A 
BRANCH   5   8
ATOM      8  C   UNL     1      43.638   4.282  10.781  0.00  0.00    +0.000 C 
BRANCH   8   9
ATOM      9  O   UNL     1      44.072   3.879   9.485  0.00  0.00    +0.000 OA
BRANCH   9  10
ATOM     10  C   UNL     1      44.606   2.551   9.487  0.00  0.00    +0.000 C 
BRANCH  10  11
ATOM     11  C   UNL     1      45.618   2.370   8.375  0.00  0.00    +0.000 A 
ATOM     12  C   UNL     1      45.917   3.416   7.503  0.00  0.00    +0.000 A 
ATOM     13  C   UNL     1      46.857   3.216   6.496  0.00  0.00    +0.000 A 
ATOM     14  C   UNL     1      47.488   1.984   6.392  0.00  0.00    +0.000 A 
ATOM     15  C   UNL     1      47.154   1.000   7.308  0.00  0.00    +0.000 A 
ATOM     16  N   UNL     1      46.244   1.166   8.296  0.00  0.00    +0.000 NA
ENDBRANCH  10  11
ENDBRANCH   9  10
ENDBRANCH   8   9
ENDBRANCH   5   8
ENDBRANCH   1   2
BRANCH   1  19
ATOM     17  C   UNL     1      49.668   8.437  13.407  0.00  0.00    +0.000 C 
ATOM     18  O   UNL     1      49.656   8.704  14.607  0.00  0.00    +0.000 OA
ATOM     19  N   UNL     1      48.969   7.376  12.906  0.00  0.00    +0.000 N 
ATOM     20  H   UNL     1      48.931   7.222  11.909  0.00  0.00    +0.000 HD
BRANCH  17  28
ATOM     21  C   UNL     1      53.031   8.972  12.926  0.00  0.00    +0.000 A 
ATOM     22  N   UNL     1      54.262   9.349  12.526  0.00  0.00    +0.000 NA
ATOM     23  C   UNL     1      54.356  10.204  11.507  0.00  0.00    +0.000 A 
ATOM     24  N   UNL     1      53.351  10.744  10.817  0.00  0.00    +0.000 NA
ATOM     25  C   UNL     1      52.145  10.333  11.241  0.00  0.00    +0.000 A 
ATOM     26  S   UNL     1      50.744  10.916  10.477  0.00  0.00    +0.000 S 
ATOM     27  C   UNL     1      49.743  10.011  11.510  0.00  0.00    +0.000 A 
ATOM     28  C   UNL     1      50.436   9.254  12.447  0.00  0.00    +0.000 A 
ATOM     29  C   UNL     1      51.876   9.450  12.282  0.00  0.00    +0.000 A 
BRANCH  21  31
ATOM     30  C   UNL     1      53.210   8.641  15.231  0.00  0.00    +0.000 C 
ATOM     31  O   UNL     1      52.943   8.060  13.956  0.00  0.00    +0.000 OA
ENDBRANCH  21  31
ENDBRANCH  17  28
ENDBRANCH   1  19
TORSDOF 8
ENDMDL
MODEL 8
REMARK VINA RESULT:    -6.384      2.328      2.871
REMARK INTER + INTRA:         -10.612
REMARK INTER:                  -9.432
REMARK INTRA:                  -1.180
REMARK UNBOUND:                -1.242
REMARK  Name = 
REMARK  9 active torsions:
REMARK  status: ('A' for Active; 'I' for Inactive)
REMARK    1  A    between atoms: C_1  and  O_2
REMARK    2  A    between atoms: O_2  and  C_3
REMARK    3  A    between atoms: C_10  and  C_11
REMARK    4  A    between atoms: N_13  and  C_14
REMARK    5  A    between atoms: C_14  and  C_15
REMARK    6  A    between atoms: C_18  and  C_19
REMARK    7  A    between atoms: C_19  and  O_20
REMARK    8  A    between atoms: O_20  and  C_21
REMARK    9  A    between atoms: C_21  and  C_22
REMARK                            x       y       z     vdW  Elec       q    Type
REMARK                         _______ _______ _______ _____ _____    ______ ____
ROOT
ATOM      1  C   UNL     1      49.255   8.687  12.881  0.00  0.00    +0.000 C 
ENDROOT
BRANCH   1   2
ATOM      2  C   UNL     1      47.933   7.967  12.775  0.00  0.00    +0.000 A 
ATOM      3  C   UNL     1      46.721   8.663  12.879  0.00  0.00    +0.000 A 
ATOM      4  C   UNL     1      45.497   7.986  12.779  0.00  0.00    +0.000 A 
ATOM      5  C   UNL     1      45.458   6.598  12.584  0.00  0.00    +0.000 A 
ATOM      6  C   UNL     1      46.671   5.901  12.508  0.00  0.00    +0.000 A 
ATOM      7  C   UNL     1      47.893   6.576  12.608  0.00  0.00    +0.000 A 
BRANCH   5   8
ATOM      8  C   UNL     1      44.141   5.866  12.474  0.00  0.00    +0.000 C 
BRANCH   8   9
ATOM      9  O   UNL     1      43.825   5.672  11.099  0.00  0.00    +0.000 OA
BRANCH   9  10
ATOM     10  C   UNL     1      43.459   4.316  10.818  0.00  0.00    +0.000 C 
BRANCH  10  11
ATOM     11  C   UNL     1      44.383   3.707   9.784  0.00  0.00    +0.000 A 
ATOM     12  C   UNL     1      45.147   4.515   8.944  0.00  0.00    +0.000 A 
ATOM     13  C   UNL     1      45.990   3.920   8.009  0.00  0.00    +0.000 A 
ATOM     14  C   UNL     1      46.063   2.536   7.946  0.00  0.00    +0.000 A 
ATOM     15  C   UNL     1      45.290   1.800   8.828  0.00  0.00    +0.000 A 
ATOM     16  N   UNL     1      44.462   2.350   9.746  0.00  0.00    +0.000 NA
ENDBRANCH  10  11
ENDBRANCH   9  10
ENDBRANCH   8   9
ENDBRANCH   5   8
ENDBRANCH   1   2
BRANCH   1  19
ATOM     17  C   UNL     1      50.254   8.138  15.065  0.00  0.00    +0.000 C 
ATOM     18  O   UNL     1      49.531   8.943  15.648  0.00  0.00    +0.000 OA
ATOM     19  N   UNL     1      50.178   7.959  13.714  0.00  0.00    +0.000 N 
ATOM     20  H   UNL     1      50.833   7.348  13.247  0.00  0.00    +0.000 HD
BRANCH  17  28
ATOM     21  C   UNL     1      50.037   5.220  16.874  0.00  0.00    +0.000 A 
ATOM     22  N   UNL     1      50.231   4.113  17.618  0.00  0.00    +0.000 NA
ATOM     23  C   UNL     1      51.463   3.864  18.064  0.00  0.00    +0.000 A 
ATOM     24  N   UNL     1      52.555   4.598  17.854  0.00  0.00    +0.000 NA
ATOM     25  C   UNL     1      52.319   5.684  17.099  0.00  0.00    +0.000 A 
ATOM     26  S   UNL     1      53.597   6.738  16.725  0.00  0.00    +0.000 S 
ATOM     27  C   UNL     1      52.566   7.754  15.836  0.00  0.00    +0.000 A 
ATOM     28  C   UNL     1      51.244   7.324  15.799  0.00  0.00    +0.000 A 
ATOM     29  C   UNL     1      51.101   6.083  16.558  0.00  0.00    +0.000 A 
BRANCH  21  31
ATOM     30  C   UNL     1      47.886   4.351  16.606  0.00  0.00    +0.000 C 
ATOM     31  O   UNL     1      48.768   5.450  16.386  0.00  0.00    +0.000 OA
ENDBRANCH  21  31
ENDBRANCH  17  28
ENDBRANCH   1  19
TORSDOF 8
ENDMDL
MODEL 9
REMARK VINA RESULT:    -6.056      2.866      4.063
REMARK INTER + INTRA:         -10.130
REMARK INTER:                 -10.059
REMARK INTRA:                  -0.071
REMARK UNBOUND:                -1.242
REMARK  Name = 
REMARK  9 active torsions:
REMARK  status: ('A' for Active; 'I' for Inactive)
REMARK    1  A    between atoms: C_1  and  O_2
REMARK    2  A    between atoms: O_2  and  C_3
REMARK    3  A    between atoms: C_10  and  C_11
REMARK    4  A    between atoms: N_13  and  C_14
REMARK    5  A    between atoms: C_14  and  C_15
REMARK    6  A    between atoms: C_18  and  C_19
REMARK    7  A    between atoms: C_19  and  O_20
REMARK    8  A    between atoms: O_20  and  C_21
REMARK    9  A    between atoms: C_21  and  C_22
REMARK                            x       y       z     vdW  Elec       q    Type
REMARK                         _______ _______ _______ _____ _____    ______ ____
ROOT
ATOM      1  C   UNL     1      45.649   8.012  12.821  0.00  0.00    +0.000 C 
ENDROOT
BRANCH   1   2
ATOM      2  C   UNL     1      45.138   6.663  12.377  0.00  0.00    +0.000 A 
ATOM      3  C   UNL     1      44.919   6.385  11.021  0.00  0.00    +0.000 A 
ATOM      4  C   UNL     1      44.445   5.130  10.615  0.00  0.00    +0.000 A 
ATOM      5  C   UNL     1      44.169   4.128  11.557  0.00  0.00    +0.000 A 
ATOM      6  C   UNL     1      44.364   4.417  12.914  0.00  0.00    +0.000 A 
ATOM      7  C   UNL     1      44.836   5.671  13.319  0.00  0.00    +0.000 A 
BRANCH   5   8
ATOM      8  C   UNL     1      43.660   2.773  11.124  0.00  0.00    +0.000 C 
BRANCH   8   9
ATOM      9  O   UNL     1      44.556   2.219  10.165  0.00  0.00    +0.000 OA
BRANCH   9  10
ATOM     10  C   UNL     1      44.419   2.840   8.882  0.00  0.00    +0.000 C 
BRANCH  10  11
ATOM     11  C   UNL     1      45.588   2.492   7.983  0.00  0.00    +0.000 A 
ATOM     12  C   UNL     1      46.005   3.368   6.983  0.00  0.00    +0.000 A 
ATOM     13  C   UNL     1      47.087   3.018   6.179  0.00  0.00    +0.000 A 
ATOM     14  C   UNL     1      47.736   1.812   6.403  0.00  0.00    +0.000 A 
ATOM     15  C   UNL     1      47.277   1.004   7.430  0.00  0.00    +0.000 A 
ATOM     16  N   UNL     1      46.228   1.318   8.226  0.00  0.00    +0.000 NA
ENDBRANCH  10  11
ENDBRANCH   9  10
ENDBRANCH   8   9
ENDBRANCH   5   8
ENDBRANCH   1   2
BRANCH   1  19
ATOM     17  C   UNL     1      48.061   7.635  13.152  0.00  0.00    +0.000 C 
ATOM     18  O   UNL     1      48.253   7.516  11.944  0.00  0.00    +0.000 OA
ATOM     19  N   UNL     1      46.815   7.876  13.656  0.00  0.00    +0.000 N 
ATOM     20  H   UNL     1      46.669   7.894  14.655  0.00  0.00    +0.000 HD
BRANCH  17  28
ATOM     21  C   UNL     1      51.383   8.525  13.053  0.00  0.00    +0.000 A 
ATOM     22  N   UNL     1      52.689   8.769  13.278  0.00  0.00    +0.000 NA
ATOM     23  C   UNL     1      53.203   8.401  14.452  0.00  0.00    +0.000 A 
ATOM     24  N   UNL     1      52.562   7.806  15.458  0.00  0.00    +0.000 NA
ATOM     25  C   UNL     1      51.262   7.593  15.196  0.00  0.00    +0.000 A 
ATOM     26  S   UNL     1      50.283   6.845  16.366  0.00  0.00    +0.000 S 
ATOM     27  C   UNL     1      48.921   6.929  15.353  0.00  0.00    +0.000 A 
ATOM     28  C   UNL     1      49.171   7.520  14.120  0.00  0.00    +0.000 A 
ATOM     29  C   UNL     1      50.575   7.916  14.030  0.00  0.00    +0.000 A 
BRANCH  21  31
ATOM     30  C   UNL     1      51.633   9.956  11.225  0.00  0.00    +0.000 C 
ATOM     31  O   UNL     1      50.850   8.943  11.852  0.00  0.00    +0.000 OA
ENDBRANCH  21  31
ENDBRANCH  17  28
ENDBRANCH   1  19
TORSDOF 8
ENDMDL
