MODEL 1
REMARK VINA RESULT:    -8.167      0.000      0.000
REMARK INTER + INTRA:         -10.628
REMARK INTER:                 -10.077
REMARK INTRA:                  -0.551
REMARK UNBOUND:                -0.551
REMARK  Name = 
REMARK  7 active torsions:
REMARK  status: ('A' for Active; 'I' for Inactive)
REMARK    1  A    between atoms: C_1  and  C_2
REMARK    2  A    between atoms: C_2  and  C_3
REMARK    3  A    between atoms: C_2  and  C_4
REMARK    4  A    between atoms: C_2  and  C_5
REMARK    5  A    between atoms: C_8  and  C_9
REMARK    6  A    between atoms: C_9  and  N_10
REMARK    7  A    between atoms: C_14  and  C_15
REMARK                            x       y       z     vdW  Elec       q    Type
REMARK                         _______ _______ _______ _____ _____    ______ ____
ROOT
ATOM      1  N   UNL     1      43.786   4.848   9.651  0.00  0.00    +0.000 N 
ATOM      2  C   UNL     1      44.631   3.961   9.005  0.00  0.00    +0.000 A 
ATOM      3  N   UNL     1      44.758   2.709   9.467  0.00  0.00    +0.000 NA
ATOM      4  C   UNL     1      45.625   1.896   8.828  0.00  0.00    +0.000 A 
ATOM      5  C   UNL     1      46.350   2.277   7.724  0.00  0.00    +0.000 A 
ATOM      6  C   UNL     1      46.147   3.574   7.319  0.00  0.00    +0.000 A 
ATOM      7  N   UNL     1      45.298   4.430   7.940  0.00  0.00    +0.000 NA
ATOM      8  H   UNL     1      44.103   5.780   9.420  0.00  0.00    +0.000 HD
ENDROOT
BRANCH   5   9
ATOM      9  C   UNL     1      47.287   1.334   7.104  0.00  0.00    +0.000 C 
ATOM     10  N   UNL     1      48.403   1.836   6.500  0.00  0.00    +0.000 N 
ATOM     11  O   UNL     1      47.056   0.131   7.102  0.00  0.00    +0.000 OA
ATOM     12  H   UNL     1      48.528   2.810   6.265  0.00  0.00    +0.000 HD
ATOM     13  H   UNL     1      48.971   1.163   5.996  0.00  0.00    +0.000 HD
ENDBRANCH   5   9
BRANCH   1  14
ATOM     14  C   UNL     1      43.703   4.589  11.085  0.00  0.00    +0.000 C 
BRANCH  14  18
ATOM     15  C   UNL     1      46.957   6.501  13.132  0.00  0.00    +0.000 A 
ATOM     16  C   UNL     1      46.539   5.221  13.520  0.00  0.00    +0.000 A 
ATOM     17  C   UNL     1      45.486   4.586  12.863  0.00  0.00    +0.000 A 
ATOM     18  C   UNL     1      44.851   5.247  11.820  0.00  0.00    +0.000 A 
ATOM     19  N   UNL     1      45.229   6.480  11.410  0.00  0.00    +0.000 NA
ATOM     20  C   UNL     1      46.262   7.065  12.063  0.00  0.00    +0.000 A 
BRANCH  15  22
ATOM     21  C   UNL     1      47.668   8.655  14.227  0.00  0.00    +0.000 C 
ATOM     22  C   UNL     1      48.098   7.218  13.862  0.00  0.00    +0.000 C 
ATOM     23  C   UNL     1      49.340   7.281  12.949  0.00  0.00    +0.000 C 
ATOM     24  C   UNL     1      48.525   6.515  15.171  0.00  0.00    +0.000 C 
ENDBRANCH  15  22
ENDBRANCH  14  18
ENDBRANCH   1  14
TORSDOF 4
ENDMDL
MODEL 2
REMARK VINA RESULT:    -7.414      2.689      6.912
REMARK INTER + INTRA:          -9.698
REMARK INTER:                  -9.180
REMARK INTRA:                  -0.518
REMARK UNBOUND:                -0.551
REMARK  Name = 
REMARK  7 active torsions:
REMARK  status: ('A' for Active; 'I' for Inactive)
REMARK    1  A    between atoms: C_1  and  C_2
REMARK    2  A    between atoms: C_2  and  C_3
REMARK    3  A    between atoms: C_2  and  C_4
REMARK    4  A    between atoms: C_2  and  C_5
REMARK    5  A    between atoms: C_8  and  C_9
REMARK    6  A    between atoms: C_9  and  N_10
REMARK    7  A    between atoms: C_14  and  C_15
REMARK                            x       y       z     vdW  Elec       q    Type
REMARK                         _______ _______ _______ _____ _____    ______ ____
ROOT
ATOM      1  N   UNL     1      43.915   3.523  12.341  0.00  0.00    +0.000 N 
ATOM      2  C   UNL     1      44.919   4.368  12.786  0.00  0.00    +0.000 A 
ATOM      3  N   UNL     1      44.896   5.664  12.443  0.00  0.00    +0.000 NA
ATOM      4  C   UNL     1      45.919   6.436  12.865  0.00  0.00    +0.000 A 
ATOM      5  C   UNL     1      46.951   5.969  13.643  0.00  0.00    +0.000 A 
ATOM      6  C   UNL     1      46.884   4.631  13.950  0.00  0.00    +0.000 A 
ATOM      7  N   UNL     1      45.885   3.815  13.535  0.00  0.00    +0.000 NA
ATOM      8  H   UNL     1      44.288   2.583  12.363  0.00  0.00    +0.000 HD
ENDROOT
BRANCH   5   9
ATOM      9  C   UNL     1      48.035   6.875  14.040  0.00  0.00    +0.000 C 
ATOM     10  N   UNL     1      47.702   8.068  14.613  0.00  0.00    +0.000 N 
ATOM     11  O   UNL     1      49.206   6.580  13.832  0.00  0.00    +0.000 OA
ATOM     12  H   UNL     1      46.773   8.464  14.594  0.00  0.00    +0.000 HD
ATOM     13  H   UNL     1      48.472   8.708  14.777  0.00  0.00    +0.000 HD
ENDBRANCH   5   9
BRANCH   1  14
ATOM     14  C   UNL     1      43.389   3.923  11.041  0.00  0.00    +0.000 C 
BRANCH  14  18
ATOM     15  C   UNL     1      46.023   2.645   7.899  0.00  0.00    +0.000 A 
ATOM     16  C   UNL     1      45.777   4.011   8.096  0.00  0.00    +0.000 A 
ATOM     17  C   UNL     1      44.927   4.441   9.114  0.00  0.00    +0.000 A 
ATOM     18  C   UNL     1      44.320   3.493   9.927  0.00  0.00    +0.000 A 
ATOM     19  N   UNL     1      44.537   2.166   9.774  0.00  0.00    +0.000 NA
ATOM     20  C   UNL     1      45.376   1.781   8.782  0.00  0.00    +0.000 A 
BRANCH  15  22
ATOM     21  C   UNL     1      46.336   2.550   5.401  0.00  0.00    +0.000 C 
ATOM     22  C   UNL     1      46.936   2.159   6.769  0.00  0.00    +0.000 C 
ATOM     23  C   UNL     1      47.075   0.624   6.837  0.00  0.00    +0.000 C 
ATOM     24  C   UNL     1      48.362   2.753   6.835  0.00  0.00    +0.000 C 
ENDBRANCH  15  22
ENDBRANCH  14  18
ENDBRANCH   1  14
TORSDOF 4
ENDMDL
MODEL 3
REMARK VINA RESULT:    -6.810      5.539      8.250
REMARK INTER + INTRA:          -8.953
REMARK INTER:                  -8.523
REMARK INTRA:                  -0.430
REMARK UNBOUND:                -0.551
REMARK  Name = 
REMARK  7 active torsions:
REMARK  status: ('A' for Active; 'I' for Inactive)
REMARK    1  A    between atoms: C_1  and  C_2
REMARK    2  A    between atoms: C_2  and  C_3
REMARK    3  A    between atoms: C_2  and  C_4
REMARK    4  A    between atoms: C_2  and  C_5
REMARK    5  A    between atoms: C_8  and  C_9
REMARK    6  A    between atoms: C_9  and  N_10
REMARK    7  A    between atoms: C_14  and  C_15
REMARK                            x       y       z     vdW  Elec       q    Type
REMARK                         _______ _______ _______ _____ _____    ______ ____
ROOT
ATOM      1  N   UNL     1      47.622   3.199  16.048  0.00  0.00    +0.000 N 
ATOM      2  C   UNL     1      48.886   3.046  16.593  0.00  0.00    +0.000 A 
ATOM      3  N   UNL     1      49.484   4.090  17.186  0.00  0.00    +0.000 NA
ATOM      4  C   UNL     1      50.732   3.902  17.663  0.00  0.00    +0.000 A 
ATOM      5  C   UNL     1      51.396   2.701  17.598  0.00  0.00    +0.000 A 
ATOM      6  C   UNL     1      50.701   1.688  16.983  0.00  0.00    +0.000 A 
ATOM      7  N   UNL     1      49.453   1.836  16.474  0.00  0.00    +0.000 NA
ATOM      8  H   UNL     1      47.512   2.476  15.349  0.00  0.00    +0.000 HD
ENDROOT
BRANCH   5   9
ATOM      9  C   UNL     1      52.761   2.592  18.125  0.00  0.00    +0.000 C 
ATOM     10  N   UNL     1      53.153   1.400  18.661  0.00  0.00    +0.000 N 
ATOM     11  O   UNL     1      53.518   3.556  18.111  0.00  0.00    +0.000 OA
ATOM     12  H   UNL     1      52.516   0.658  18.913  0.00  0.00    +0.000 HD
ATOM     13  H   UNL     1      54.065   1.396  19.106  0.00  0.00    +0.000 HD
ENDBRANCH   5   9
BRANCH   1  14
ATOM     14  C   UNL     1      47.394   4.549  15.545  0.00  0.00    +0.000 C 
BRANCH  14  18
ATOM     15  C   UNL     1      45.475   4.389  11.708  0.00  0.00    +0.000 A 
ATOM     16  C   UNL     1      45.835   5.626  12.261  0.00  0.00    +0.000 A 
ATOM     17  C   UNL     1      46.461   5.694  13.505  0.00  0.00    +0.000 A 
ATOM     18  C   UNL     1      46.717   4.514  14.192  0.00  0.00    +0.000 A 
ATOM     19  N   UNL     1      46.393   3.301  13.688  0.00  0.00    +0.000 NA
ATOM     20  C   UNL     1      45.794   3.269  12.474  0.00  0.00    +0.000 A 
BRANCH  15  22
ATOM     21  C   UNL     1      45.593   5.039   9.277  0.00  0.00    +0.000 C 
ATOM     22  C   UNL     1      44.765   4.305  10.352  0.00  0.00    +0.000 C 
ATOM     23  C   UNL     1      43.373   4.964  10.453  0.00  0.00    +0.000 C 
ATOM     24  C   UNL     1      44.551   2.854   9.862  0.00  0.00    +0.000 C 
ENDBRANCH  15  22
ENDBRANCH  14  18
ENDBRANCH   1  14
TORSDOF 4
ENDMDL
MODEL 4
REMARK VINA RESULT:    -6.708      2.864      7.133
REMARK INTER + INTRA:          -8.828
REMARK INTER:                  -8.699
REMARK INTRA:                  -0.129
REMARK UNBOUND:                -0.551
REMARK  Name = 
REMARK  7 active torsions:
REMARK  status: ('A' for Active; 'I' for Inactive)
REMARK    1  A    between atoms: C_1  and  C_2
REMARK    2  A    between atoms: C_2  and  C_3
REMARK    3  A    between atoms: C_2  and  C_4
REMARK    4  A    between atoms: C_2  and  C_5
REMARK    5  A    between atoms: C_8  and  C_9
REMARK    6  A    between atoms: C_9  and  N_10
REMARK    7  A    between atoms: C_14  and  C_15
REMARK                            x       y       z     vdW  Elec       q    Type
REMARK                         _______ _______ _______ _____ _____    ______ ____
ROOT
ATOM      1  N   UNL     1      43.997   6.259  10.690  0.00  0.00    +0.000 N 
ATOM      2  C   UNL     1      44.969   6.759  11.541  0.00  0.00    +0.000 A 
ATOM      3  N   UNL     1      46.010   5.986  11.887  0.00  0.00    +0.000 NA
ATOM      4  C   UNL     1      46.907   6.503  12.751  0.00  0.00    +0.000 A 
ATOM      5  C   UNL     1      46.822   7.776  13.262  0.00  0.00    +0.000 A 
ATOM      6  C   UNL     1      45.728   8.495  12.844  0.00  0.00    +0.000 A 
ATOM      7  N   UNL     1      44.793   8.010  11.990  0.00  0.00    +0.000 NA
ATOM      8  H   UNL     1      43.157   6.798  10.853  0.00  0.00    +0.000 HD
ENDROOT
BRANCH   5   9
ATOM      9  C   UNL     1      47.833   8.250  14.214  0.00  0.00    +0.000 C 
ATOM     10  N   UNL     1      47.434   9.092  15.213  0.00  0.00    +0.000 N 
ATOM     11  O   UNL     1      49.008   7.924  14.096  0.00  0.00    +0.000 OA
ATOM     12  H   UNL     1      46.548   9.575  15.223  0.00  0.00    +0.000 HD
ATOM     13  H   UNL     1      48.177   9.477  15.786  0.00  0.00    +0.000 HD
ENDBRANCH   5   9
BRANCH   1  14
ATOM     14  C   UNL     1      43.816   4.819  10.840  0.00  0.00    +0.000 C 
BRANCH  14  18
ATOM     15  C   UNL     1      46.092   2.728   7.859  0.00  0.00    +0.000 A 
ATOM     16  C   UNL     1      45.416   2.011   8.856  0.00  0.00    +0.000 A 
ATOM     17  C   UNL     1      44.670   2.676   9.829  0.00  0.00    +0.000 A 
ATOM     18  C   UNL     1      44.614   4.064   9.799  0.00  0.00    +0.000 A 
ATOM     19  N   UNL     1      45.246   4.791   8.849  0.00  0.00    +0.000 NA
ATOM     20  C   UNL     1      45.954   4.114   7.913  0.00  0.00    +0.000 A 
BRANCH  15  22
ATOM     21  C   UNL     1      46.994   0.498   7.110  0.00  0.00    +0.000 C 
ATOM     22  C   UNL     1      46.933   2.009   6.799  0.00  0.00    +0.000 C 
ATOM     23  C   UNL     1      48.367   2.580   6.799  0.00  0.00    +0.000 C 
ATOM     24  C   UNL     1      46.376   2.164   5.365  0.00  0.00    +0.000 C 
ENDBRANCH  15  22
ENDBRANCH  14  18
ENDBRANCH   1  14
TORSDOF 4
ENDMDL
MODEL 5
REMARK VINA RESULT:    -6.419      4.365      6.499
REMARK INTER + INTRA:          -8.471
REMARK INTER:                  -8.094
REMARK INTRA:                  -0.377
REMARK UNBOUND:                -0.551
REMARK  Name = 
REMARK  7 active torsions:
REMARK  status: ('A' for Active; 'I' for Inactive)
REMARK    1  A    between atoms: C_1  and  C_2
REMARK    2  A    between atoms: C_2  and  C_3
REMARK    3  A    between atoms: C_2  and  C_4
REMARK    4  A    between atoms: C_2  and  C_5
REMARK    5  A    between atoms: C_8  and  C_9
REMARK    6  A    between atoms: C_9  and  N_10
REMARK    7  A    between atoms: C_14  and  C_15
REMARK                            x       y       z     vdW  Elec       q    Type
REMARK                         _______ _______ _______ _____ _____    ______ ____
ROOT
ATOM      1  N   UNL     1      47.266   3.344  14.588  0.00  0.00    +0.000 N 
ATOM      2  C   UNL     1      46.305   3.843  13.723  0.00  0.00    +0.000 A 
ATOM      3  N   UNL     1      45.956   5.136  13.793  0.00  0.00    +0.000 NA
ATOM      4  C   UNL     1      44.987   5.563  12.958  0.00  0.00    +0.000 A 
ATOM      5  C   UNL     1      44.372   4.755  12.033  0.00  0.00    +0.000 A 
ATOM      6  C   UNL     1      44.801   3.450  12.028  0.00  0.00    +0.000 A 
ATOM      7  N   UNL     1      45.761   2.973  12.860  0.00  0.00    +0.000 NA
ATOM      8  H   UNL     1      47.117   2.346  14.651  0.00  0.00    +0.000 HD
ENDROOT
BRANCH   5   9
ATOM      9  C   UNL     1      43.311   5.299  11.178  0.00  0.00    +0.000 C 
ATOM     10  N   UNL     1      42.294   5.990  11.772  0.00  0.00    +0.000 N 
ATOM     11  O   UNL     1      43.322   5.111   9.967  0.00  0.00    +0.000 OA
ATOM     12  H   UNL     1      42.106   5.975  12.764  0.00  0.00    +0.000 HD
ATOM     13  H   UNL     1      41.530   6.260  11.161  0.00  0.00    +0.000 HD
ENDBRANCH   5   9
BRANCH   1  14
ATOM     14  C   UNL     1      47.259   4.027  15.877  0.00  0.00    +0.000 C 
BRANCH  14  18
ATOM     15  C   UNL     1      51.121   3.853  17.745  0.00  0.00    +0.000 A 
ATOM     16  C   UNL     1      50.372   2.681  17.572  0.00  0.00    +0.000 A 
ATOM     17  C   UNL     1      49.118   2.721  16.964  0.00  0.00    +0.000 A 
ATOM     18  C   UNL     1      48.617   3.945  16.539  0.00  0.00    +0.000 A 
ATOM     19  N   UNL     1      49.313   5.097  16.681  0.00  0.00    +0.000 NA
ATOM     20  C   UNL     1      50.532   5.023  17.266  0.00  0.00    +0.000 A 
BRANCH  15  22
ATOM     21  C   UNL     1      53.475   4.748  17.684  0.00  0.00    +0.000 C 
ATOM     22  C   UNL     1      52.491   3.825  18.432  0.00  0.00    +0.000 C 
ATOM     23  C   UNL     1      53.046   2.385  18.423  0.00  0.00    +0.000 C 
ATOM     24  C   UNL     1      52.447   4.291  19.906  0.00  0.00    +0.000 C 
ENDBRANCH  15  22
ENDBRANCH  14  18
ENDBRANCH   1  14
TORSDOF 4
ENDMDL
MODEL 6
REMARK VINA RESULT:    -6.206      1.528      2.281
REMARK INTER + INTRA:          -8.207
REMARK INTER:                  -8.413
REMARK INTRA:                   0.205
REMARK UNBOUND:                -0.551
REMARK  Name = 
REMARK  7 active torsions:
REMARK  status: ('A' for Active; 'I' for Inactive)
REMARK    1  A    between atoms: C_1  and  C_2
REMARK    2  A    between atoms: C_2  and  C_3
REMARK    3  A    between atoms: C_2  and  C_4
REMARK    4  A    between atoms: C_2  and  C_5
REMARK    5  A    between atoms: C_8  and  C_9
REMARK    6  A    between atoms: C_9  and  N_10
REMARK    7  A    between atoms: C_14  and  C_15
REMARK                            x       y       z     vdW  Elec       q    Type
REMARK                         _______ _______ _______ _____ _____    ______ ____
ROOT
ATOM      1  N   UNL     1      44.509   2.861  10.824  0.00  0.00    +0.000 N 
ATOM      2  C   UNL     1      45.222   2.796   9.638  0.00  0.00    +0.000 A 
ATOM      3  N   UNL     1      45.629   3.928   9.046  0.00  0.00    +0.000 NA
ATOM      4  C   UNL     1      46.282   3.814   7.871  0.00  0.00    +0.000 A 
ATOM      5  C   UNL     1      46.572   2.609   7.278  0.00  0.00    +0.000 A 
ATOM      6  C   UNL     1      46.123   1.505   7.962  0.00  0.00    +0.000 A 
ATOM      7  N   UNL     1      45.449   1.573   9.137  0.00  0.00    +0.000 NA
ATOM      8  H   UNL     1      43.984   2.000  10.901  0.00  0.00    +0.000 HD
ENDROOT
BRANCH   5   9
ATOM      9  C   UNL     1      47.269   2.578   5.987  0.00  0.00    +0.000 C 
ATOM     10  N   UNL     1      48.621   2.388   5.988  0.00  0.00    +0.000 N 
ATOM     11  O   UNL     1      46.657   2.751   4.940  0.00  0.00    +0.000 OA
ATOM     12  H   UNL     1      49.203   2.475   6.808  0.00  0.00    +0.000 HD
ATOM     13  H   UNL     1      49.077   2.476   5.086  0.00  0.00    +0.000 HD
ENDBRANCH   5   9
BRANCH   1  14
ATOM     14  C   UNL     1      43.689   4.065  10.913  0.00  0.00    +0.000 C 
BRANCH  14  18
ATOM     15  C   UNL     1      46.074   7.389  12.218  0.00  0.00    +0.000 A 
ATOM     16  C   UNL     1      44.907   7.612  11.474  0.00  0.00    +0.000 A 
ATOM     17  C   UNL     1      44.120   6.543  11.046  0.00  0.00    +0.000 A 
ATOM     18  C   UNL     1      44.517   5.249  11.363  0.00  0.00    +0.000 A 
ATOM     19  N   UNL     1      45.633   4.994  12.085  0.00  0.00    +0.000 NA
ATOM     20  C   UNL     1      46.369   6.054  12.493  0.00  0.00    +0.000 A 
BRANCH  15  22
ATOM     21  C   UNL     1      47.154   8.501  14.203  0.00  0.00    +0.000 C 
ATOM     22  C   UNL     1      46.958   8.555  12.673  0.00  0.00    +0.000 C 
ATOM     23  C   UNL     1      46.287   9.893  12.298  0.00  0.00    +0.000 C 
ATOM     24  C   UNL     1      48.362   8.548  12.025  0.00  0.00    +0.000 C 
ENDBRANCH  15  22
ENDBRANCH  14  18
ENDBRANCH   1  14
TORSDOF 4
ENDMDL
MODEL 7
REMARK VINA RESULT:    -5.950      4.861      7.040
REMARK INTER + INTRA:          -7.892
REMARK INTER:                  -7.436
REMARK INTRA:                  -0.457
REMARK UNBOUND:                -0.551
REMARK  Name = 
REMARK  7 active torsions:
REMARK  status: ('A' for Active; 'I' for Inactive)
REMARK    1  A    between atoms: C_1  and  C_2
REMARK    2  A    between atoms: C_2  and  C_3
REMARK    3  A    between atoms: C_2  and  C_4
REMARK    4  A    between atoms: C_2  and  C_5
REMARK    5  A    between atoms: C_8  and  C_9
REMARK    6  A    between atoms: C_9  and  N_10
REMARK    7  A    between atoms: C_14  and  C_15
REMARK                            x       y       z     vdW  Elec       q    Type
REMARK                         _______ _______ _______ _____ _____    ______ ____
ROOT
ATOM      1  N   UNL     1      47.306   3.796  15.659  0.00  0.00    +0.000 N 
ATOM      2  C   UNL     1      46.891   4.409  14.488  0.00  0.00    +0.000 A 
ATOM      3  N   UNL     1      47.539   5.495  14.041  0.00  0.00    +0.000 NA
ATOM      4  C   UNL     1      47.070   6.079  12.920  0.00  0.00    +0.000 A 
ATOM      5  C   UNL     1      45.996   5.603  12.208  0.00  0.00    +0.000 A 
ATOM      6  C   UNL     1      45.403   4.482  12.737  0.00  0.00    +0.000 A 
ATOM      7  N   UNL     1      45.830   3.871  13.870  0.00  0.00    +0.000 NA
ATOM      8  H   UNL     1      46.515   3.280  16.019  0.00  0.00    +0.000 HD
ENDROOT
BRANCH   5   9
ATOM      9  C   UNL     1      45.540   6.315  11.008  0.00  0.00    +0.000 C 
ATOM     10  N   UNL     1      45.642   5.681   9.804  0.00  0.00    +0.000 N 
ATOM     11  O   UNL     1      45.110   7.459  11.084  0.00  0.00    +0.000 OA
ATOM     12  H   UNL     1      46.195   4.851   9.648  0.00  0.00    +0.000 HD
ATOM     13  H   UNL     1      45.414   6.243   8.990  0.00  0.00    +0.000 HD
ENDBRANCH   5   9
BRANCH   1  14
ATOM     14  C   UNL     1      47.876   4.745  16.609  0.00  0.00    +0.000 C 
BRANCH  14  18
ATOM     15  C   UNL     1      51.803   3.478  17.799  0.00  0.00    +0.000 A 
ATOM     16  C   UNL     1      51.475   4.841  17.799  0.00  0.00    +0.000 A 
ATOM     17  C   UNL     1      50.204   5.268  17.419  0.00  0.00    +0.000 A 
ATOM     18  C   UNL     1      49.266   4.319  17.031  0.00  0.00    +0.000 A 
ATOM     19  N   UNL     1      49.541   2.994  17.024  0.00  0.00    +0.000 NA
ATOM     20  C   UNL     1      50.782   2.612  17.408  0.00  0.00    +0.000 A 
BRANCH  15  22
ATOM     21  C   UNL     1      53.434   3.228  19.702  0.00  0.00    +0.000 C 
ATOM     22  C   UNL     1      53.204   3.000  18.193  0.00  0.00    +0.000 C 
ATOM     23  C   UNL     1      54.265   3.790  17.398  0.00  0.00    +0.000 C 
ATOM     24  C   UNL     1      53.441   1.499  17.910  0.00  0.00    +0.000 C 
ENDBRANCH  15  22
ENDBRANCH  14  18
ENDBRANCH   1  14
TORSDOF 4
ENDMDL
MODEL 8
REMARK VINA RESULT:    -5.883      3.340      5.055
REMARK INTER + INTRA:          -7.809
REMARK INTER:                  -7.435
REMARK INTRA:                  -0.375
REMARK UNBOUND:                -0.551
REMARK  Name = 
REMARK  7 active torsions:
REMARK  status: ('A' for Active; 'I' for Inactive)
REMARK    1  A    between atoms: C_1  and  C_2
REMARK    2  A    between atoms: C_2  and  C_3
REMARK    3  A    between atoms: C_2  and  C_4
REMARK    4  A    between atoms: C_2  and  C_5
REMARK    5  A    between atoms: C_8  and  C_9
REMARK    6  A    between atoms: C_9  and  N_10
REMARK    7  A    between atoms: C_14  and  C_15
REMARK                            x       y       z     vdW  Elec       q    Type
REMARK                         _______ _______ _______ _____ _____    ______ ____
ROOT
ATOM      1  N   UNL     1      46.266   5.327  14.110  0.00  0.00    +0.000 N 
ATOM      2  C   UNL     1      45.898   4.965  12.825  0.00  0.00    +0.000 A 
ATOM      3  N   UNL     1      45.498   3.709  12.578  0.00  0.00    +0.000 NA
ATOM      4  C   UNL     1      45.192   3.395  11.302  0.00  0.00    +0.000 A 
ATOM      5  C   UNL     1      45.240   4.296  10.266  0.00  0.00    +0.000 A 
ATOM      6  C   UNL     1      45.652   5.559  10.617  0.00  0.00    +0.000 A 
ATOM      7  N   UNL     1      45.985   5.915  11.882  0.00  0.00    +0.000 NA
ATOM      8  H   UNL     1      46.871   6.134  14.029  0.00  0.00    +0.000 HD
ENDROOT
BRANCH   5   9
ATOM      9  C   UNL     1      44.909   3.862   8.904  0.00  0.00    +0.000 C 
ATOM     10  N   UNL     1      44.189   2.713   8.750  0.00  0.00    +0.000 N 
ATOM     11  O   UNL     1      45.298   4.498   7.932  0.00  0.00    +0.000 OA
ATOM     12  H   UNL     1      44.046   2.033   9.483  0.00  0.00    +0.000 HD
ATOM     13  H   UNL     1      44.070   2.393   7.794  0.00  0.00    +0.000 HD
ENDBRANCH   5   9
BRANCH   1  14
ATOM     14  C   UNL     1      46.853   4.218  14.853  0.00  0.00    +0.000 C 
BRANCH  14  18
ATOM     15  C   UNL     1      48.976   5.661  18.295  0.00  0.00    +0.000 A 
ATOM     16  C   UNL     1      47.883   4.798  18.455  0.00  0.00    +0.000 A 
ATOM     17  C   UNL     1      47.186   4.319  17.347  0.00  0.00    +0.000 A 
ATOM     18  C   UNL     1      47.588   4.716  16.078  0.00  0.00    +0.000 A 
ATOM     19  N   UNL     1      48.642   5.542  15.881  0.00  0.00    +0.000 NA
ATOM     20  C   UNL     1      49.304   5.982  16.978  0.00  0.00    +0.000 A 
BRANCH  15  22
ATOM     21  C   UNL     1      49.999   5.082  20.522  0.00  0.00    +0.000 C 
ATOM     22  C   UNL     1      49.735   6.213  19.506  0.00  0.00    +0.000 C 
ATOM     23  C   UNL     1      48.895   7.314  20.187  0.00  0.00    +0.000 C 
ATOM     24  C   UNL     1      51.102   6.837  19.141  0.00  0.00    +0.000 C 
ENDBRANCH  15  22
ENDBRANCH  14  18
ENDBRANCH   1  14
TORSDOF 4
ENDMDL
MODEL 9
REMARK VINA RESULT:    -5.779      4.880      8.561
REMARK INTER + INTRA:          -7.681
REMARK INTER:                  -7.222
REMARK INTRA:                  -0.459
REMARK UNBOUND:                -0.551
REMARK  Name = 
REMARK  7 active torsions:
REMARK  status: ('A' for Active; 'I' for Inactive)
REMARK    1  A    between atoms: C_1  and  C_2
REMARK    2  A    between atoms: C_2  and  C_3
REMARK    3  A    between atoms: C_2  and  C_4
REMARK    4  A    between atoms: C_2  and  C_5
REMARK    5  A    between atoms: C_8  and  C_9
REMARK    6  A    between atoms: C_9  and  N_10
REMARK    7  A    between atoms: C_14  and  C_15
REMARK                            x       y       z     vdW  Elec       q    Type
REMARK                         _______ _______ _______ _____ _____    ______ ____
ROOT
ATOM      1  N   UNL     1      48.269   7.367  15.166  0.00  0.00    +0.000 N 
ATOM      2  C   UNL     1      48.949   6.754  16.206  0.00  0.00    +0.000 A 
ATOM      3  N   UNL     1      50.169   6.240  15.989  0.00  0.00    +0.000 NA
ATOM      4  C   UNL     1      50.771   5.616  17.022  0.00  0.00    +0.000 A 
ATOM      5  C   UNL     1      50.215   5.510  18.274  0.00  0.00    +0.000 A 
ATOM      6  C   UNL     1      48.969   6.073  18.402  0.00  0.00    +0.000 A 
ATOM      7  N   UNL     1      48.319   6.696  17.388  0.00  0.00    +0.000 NA
ATOM      8  H   UNL     1      47.285   7.336  15.397  0.00  0.00    +0.000 HD
ENDROOT
BRANCH   5   9
ATOM      9  C   UNL     1      50.933   4.794  19.335  0.00  0.00    +0.000 C 
ATOM     10  N   UNL     1      50.242   4.440  20.457  0.00  0.00    +0.000 N 
ATOM     11  O   UNL     1      52.129   4.550  19.227  0.00  0.00    +0.000 OA
ATOM     12  H   UNL     1      49.336   4.812  20.702  0.00  0.00    +0.000 HD
ATOM     13  H   UNL     1      50.795   4.040  21.207  0.00  0.00    +0.000 HD
ENDBRANCH   5   9
BRANCH   1  14
ATOM     14  C   UNL     1      48.592   6.781  13.870  0.00  0.00    +0.000 C 
BRANCH  14  18
ATOM     15  C   UNL     1      45.093   5.042  12.090  0.00  0.00    +0.000 A 
ATOM     16  C   UNL     1      45.798   6.048  11.414  0.00  0.00    +0.000 A 
ATOM     17  C   UNL     1      46.938   6.620  11.978  0.00  0.00    +0.000 A 
ATOM     18  C   UNL     1      47.361   6.182  13.226  0.00  0.00    +0.000 A 
ATOM     19  N   UNL     1      46.712   5.208  13.907  0.00  0.00    +0.000 NA
ATOM     20  C   UNL     1      45.614   4.667  13.327  0.00  0.00    +0.000 A 
BRANCH  15  22
ATOM     21  C   UNL     1      43.962   4.326   9.956  0.00  0.00    +0.000 C 
ATOM     22  C   UNL     1      43.826   4.423  11.490  0.00  0.00    +0.000 C 
ATOM     23  C   UNL     1      42.606   5.304  11.832  0.00  0.00    +0.000 C 
ATOM     24  C   UNL     1      43.529   3.002  12.020  0.00  0.00    +0.000 C 
ENDBRANCH  15  22
ENDBRANCH  14  18
ENDBRANCH   1  14
TORSDOF 4
ENDMDL
