MODEL 1
REMARK VINA RESULT:    -7.832      0.000      0.000
REMARK INTER + INTRA:         -10.195
REMARK INTER:                  -9.663
REMARK INTRA:                  -0.532
REMARK UNBOUND:                -0.532
REMARK  Name = 
REMARK  5 active torsions:
REMARK  status: ('A' for Active; 'I' for Inactive)
REMARK    1  A    between atoms: C_1  and  C_2
REMARK    2  A    between atoms: C_2  and  O_3
REMARK    3  A    between atoms: C_2  and  C_13
REMARK    4  A    between atoms: O_3  and  C_4
REMARK    5  A    between atoms: C_7  and  C_8
REMARK                            x       y       z     vdW  Elec       q    Type
REMARK                         _______ _______ _______ _____ _____    ______ ____
ROOT
ATOM      1  C   UNL     1      44.524   3.680   9.217  0.00  0.00    +0.000 A 
ATOM      2  C   UNL     1      45.380   4.309   8.315  0.00  0.00    +0.000 A 
ATOM      3  C   UNL     1      46.316   3.558   7.605  0.00  0.00    +0.000 A 
ATOM      4  C   UNL     1      46.375   2.191   7.841  0.00  0.00    +0.000 A 
ATOM      5  N   UNL     1      45.589   1.546   8.749  0.00  0.00    +0.000 NA
ATOM      6  C   UNL     1      44.692   2.314   9.416  0.00  0.00    +0.000 A 
ENDROOT
BRANCH   4   7
ATOM      7  C   UNL     1      47.333   1.337   7.064  0.00  0.00    +0.000 C 
ATOM      8  N   UNL     1      48.395   1.997   6.516  0.00  0.00    +0.000 N 
ATOM      9  O   UNL     1      47.180   0.130   6.932  0.00  0.00    +0.000 OA
ATOM     10  H   UNL     1      48.488   2.998   6.649  0.00  0.00    +0.000 HD
ATOM     11  H   UNL     1      49.081   1.483   5.982  0.00  0.00    +0.000 HD
ENDBRANCH   4   7
BRANCH   1  12
ATOM     12  O   UNL     1      43.595   4.481   9.820  0.00  0.00    +0.000 OA
BRANCH  12  14
ATOM     13  C   UNL     1      42.583   5.592  11.746  0.00  0.00    +0.000 C 
ATOM     14  C   UNL     1      43.628   4.581  11.257  0.00  0.00    +0.000 C 
BRANCH  14  15
ATOM     15  C   UNL     1      45.058   5.001  11.706  0.00  0.00    +0.000 C 
ATOM     16  C   UNL     1      45.324   4.729  13.199  0.00  0.00    +0.000 C 
ATOM     17  C   UNL     1      46.707   5.205  13.638  0.00  0.00    +0.000 C 
ATOM     18  C   UNL     1      46.916   6.678  13.314  0.00  0.00    +0.000 C 
ATOM     19  C   UNL     1      46.709   6.940  11.827  0.00  0.00    +0.000 C 
ATOM     20  C   UNL     1      45.327   6.480  11.365  0.00  0.00    +0.000 C 
ENDBRANCH  14  15
ENDBRANCH  12  14
ENDBRANCH   1  12
TORSDOF 4
ENDMDL
MODEL 2
REMARK VINA RESULT:    -7.402      1.057      1.866
REMARK INTER + INTRA:          -9.665
REMARK INTER:                  -9.048
REMARK INTRA:                  -0.617
REMARK UNBOUND:                -0.532
REMARK  Name = 
REMARK  5 active torsions:
REMARK  status: ('A' for Active; 'I' for Inactive)
REMARK    1  A    between atoms: C_1  and  C_2
REMARK    2  A    between atoms: C_2  and  O_3
REMARK    3  A    between atoms: C_2  and  C_13
REMARK    4  A    between atoms: O_3  and  C_4
REMARK    5  A    between atoms: C_7  and  C_8
REMARK                            x       y       z     vdW  Elec       q    Type
REMARK                         _______ _______ _______ _____ _____    ______ ____
ROOT
ATOM      1  C   UNL     1      44.842   4.085   9.252  0.00  0.00    +0.000 A 
ATOM      2  C   UNL     1      44.571   2.753   9.561  0.00  0.00    +0.000 A 
ATOM      3  C   UNL     1      45.291   1.734   8.940  0.00  0.00    +0.000 A 
ATOM      4  C   UNL     1      46.257   2.088   8.007  0.00  0.00    +0.000 A 
ATOM      5  N   UNL     1      46.519   3.375   7.642  0.00  0.00    +0.000 NA
ATOM      6  C   UNL     1      45.796   4.334   8.271  0.00  0.00    +0.000 A 
ENDROOT
BRANCH   4   7
ATOM      7  C   UNL     1      47.090   1.027   7.351  0.00  0.00    +0.000 C 
ATOM      8  N   UNL     1      46.777  -0.258   7.691  0.00  0.00    +0.000 N 
ATOM      9  O   UNL     1      47.986   1.289   6.560  0.00  0.00    +0.000 OA
ATOM     10  H   UNL     1      46.027  -0.435   8.349  0.00  0.00    +0.000 HD
ATOM     11  H   UNL     1      47.296  -1.023   7.285  0.00  0.00    +0.000 HD
ENDBRANCH   4   7
BRANCH   1  12
ATOM     12  O   UNL     1      44.136   5.019   9.954  0.00  0.00    +0.000 OA
BRANCH  12  14
ATOM     13  C   UNL     1      42.419   5.233  11.678  0.00  0.00    +0.000 C 
ATOM     14  C   UNL     1      43.825   4.731  11.331  0.00  0.00    +0.000 C 
BRANCH  14  15
ATOM     15  C   UNL     1      44.894   5.401  12.245  0.00  0.00    +0.000 C 
ATOM     16  C   UNL     1      45.664   6.534  11.539  0.00  0.00    +0.000 C 
ATOM     17  C   UNL     1      46.750   7.137  12.426  0.00  0.00    +0.000 C 
ATOM     18  C   UNL     1      47.710   6.068  12.934  0.00  0.00    +0.000 C 
ATOM     19  C   UNL     1      46.956   4.974  13.681  0.00  0.00    +0.000 C 
ATOM     20  C   UNL     1      45.868   4.349  12.809  0.00  0.00    +0.000 C 
ENDBRANCH  14  15
ENDBRANCH  12  14
ENDBRANCH   1  12
TORSDOF 4
ENDMDL
MODEL 3
REMARK VINA RESULT:    -6.604      3.499      5.939
REMARK INTER + INTRA:          -8.680
REMARK INTER:                  -8.034
REMARK INTRA:                  -0.646
REMARK UNBOUND:                -0.532
REMARK  Name = 
REMARK  5 active torsions:
REMARK  status: ('A' for Active; 'I' for Inactive)
REMARK    1  A    between atoms: C_1  and  C_2
REMARK    2  A    between atoms: C_2  and  O_3
REMARK    3  A    between atoms: C_2  and  C_13
REMARK    4  A    between atoms: O_3  and  C_4
REMARK    5  A    between atoms: C_7  and  C_8
REMARK                            x       y       z     vdW  Elec       q    Type
REMARK                         _______ _______ _______ _____ _____    ______ ____
ROOT
ATOM      1  C   UNL     1      45.954   5.337  12.652  0.00  0.00    +0.000 A 
ATOM      2  C   UNL     1      46.289   6.528  12.010  0.00  0.00    +0.000 A 
ATOM      3  C   UNL     1      47.459   7.201  12.359  0.00  0.00    +0.000 A 
ATOM      4  C   UNL     1      48.251   6.661  13.363  0.00  0.00    +0.000 A 
ATOM      5  N   UNL     1      47.934   5.526  14.048  0.00  0.00    +0.000 NA
ATOM      6  C   UNL     1      46.789   4.903  13.676  0.00  0.00    +0.000 A 
ENDROOT
BRANCH   4   7
ATOM      7  C   UNL     1      49.543   7.325  13.736  0.00  0.00    +0.000 C 
ATOM      8  N   UNL     1      50.416   7.531  12.707  0.00  0.00    +0.000 N 
ATOM      9  O   UNL     1      49.801   7.667  14.883  0.00  0.00    +0.000 OA
ATOM     10  H   UNL     1      50.166   7.235  11.770  0.00  0.00    +0.000 HD
ATOM     11  H   UNL     1      51.304   7.976  12.886  0.00  0.00    +0.000 HD
ENDBRANCH   4   7
BRANCH   1  12
ATOM     12  O   UNL     1      44.825   4.711  12.203  0.00  0.00    +0.000 OA
BRANCH  12  14
ATOM     13  C   UNL     1      42.678   5.529  11.375  0.00  0.00    +0.000 C 
ATOM     14  C   UNL     1      44.156   5.273  11.058  0.00  0.00    +0.000 C 
BRANCH  14  15
ATOM     15  C   UNL     1      44.304   4.299   9.852  0.00  0.00    +0.000 C 
ATOM     16  C   UNL     1      44.426   2.824  10.283  0.00  0.00    +0.000 C 
ATOM     17  C   UNL     1      44.634   1.888   9.094  0.00  0.00    +0.000 C 
ATOM     18  C   UNL     1      45.838   2.308   8.261  0.00  0.00    +0.000 C 
ATOM     19  C   UNL     1      45.693   3.749   7.787  0.00  0.00    +0.000 C 
ATOM     20  C   UNL     1      45.492   4.707   8.961  0.00  0.00    +0.000 C 
ENDBRANCH  14  15
ENDBRANCH  12  14
ENDBRANCH   1  12
TORSDOF 4
ENDMDL
MODEL 4
REMARK VINA RESULT:    -6.242      3.152      6.001
REMARK INTER + INTRA:          -8.234
REMARK INTER:                  -8.600
REMARK INTRA:                   0.366
REMARK UNBOUND:                -0.532
REMARK  Name = 
REMARK  5 active torsions:
REMARK  status: ('A' for Active; 'I' for Inactive)
REMARK    1  A    between atoms: C_1  and  C_2
REMARK    2  A    between atoms: C_2  and  O_3
REMARK    3  A    between atoms: C_2  and  C_13
REMARK    4  A    between atoms: O_3  and  C_4
REMARK    5  A    between atoms: C_7  and  C_8
REMARK                            x       y       z     vdW  Elec       q    Type
REMARK                         _______ _______ _______ _____ _____    ______ ____
ROOT
ATOM      1  C   UNL     1      45.106   5.079  11.817  0.00  0.00    +0.000 A 
ATOM      2  C   UNL     1      46.207   5.933  11.874  0.00  0.00    +0.000 A 
ATOM      3  C   UNL     1      47.066   5.887  12.970  0.00  0.00    +0.000 A 
ATOM      4  C   UNL     1      46.780   4.991  13.991  0.00  0.00    +0.000 A 
ATOM      5  N   UNL     1      45.689   4.174  13.996  0.00  0.00    +0.000 NA
ATOM      6  C   UNL     1      44.880   4.250  12.911  0.00  0.00    +0.000 A 
ENDROOT
BRANCH   4   7
ATOM      7  C   UNL     1      47.706   4.873  15.166  0.00  0.00    +0.000 C 
ATOM      8  N   UNL     1      48.210   6.051  15.637  0.00  0.00    +0.000 N 
ATOM      9  O   UNL     1      47.988   3.796  15.676  0.00  0.00    +0.000 OA
ATOM     10  H   UNL     1      47.951   6.922  15.188  0.00  0.00    +0.000 HD
ATOM     11  H   UNL     1      48.837   6.046  16.427  0.00  0.00    +0.000 HD
ENDBRANCH   4   7
BRANCH   1  12
ATOM     12  O   UNL     1      44.354   5.145  10.679  0.00  0.00    +0.000 OA
BRANCH  12  14
ATOM     13  C   UNL     1      43.563   2.857  11.005  0.00  0.00    +0.000 C 
ATOM     14  C   UNL     1      44.051   3.910  10.002  0.00  0.00    +0.000 C 
BRANCH  14  15
ATOM     15  C   UNL     1      45.323   3.414   9.253  0.00  0.00    +0.000 C 
ATOM     16  C   UNL     1      45.690   4.293   8.042  0.00  0.00    +0.000 C 
ATOM     17  C   UNL     1      46.900   3.757   7.282  0.00  0.00    +0.000 C 
ATOM     18  C   UNL     1      46.691   2.311   6.853  0.00  0.00    +0.000 C 
ATOM     19  C   UNL     1      46.384   1.428   8.057  0.00  0.00    +0.000 C 
ATOM     20  C   UNL     1      45.169   1.940   8.830  0.00  0.00    +0.000 C 
ENDBRANCH  14  15
ENDBRANCH  12  14
ENDBRANCH   1  12
TORSDOF 4
ENDMDL
MODEL 5
REMARK VINA RESULT:    -5.986      3.921      6.551
REMARK INTER + INTRA:          -7.918
REMARK INTER:                  -7.376
REMARK INTRA:                  -0.542
REMARK UNBOUND:                -0.532
REMARK  Name = 
REMARK  5 active torsions:
REMARK  status: ('A' for Active; 'I' for Inactive)
REMARK    1  A    between atoms: C_1  and  C_2
REMARK    2  A    between atoms: C_2  and  O_3
REMARK    3  A    between atoms: C_2  and  C_13
REMARK    4  A    between atoms: O_3  and  C_4
REMARK    5  A    between atoms: C_7  and  C_8
REMARK                            x       y       z     vdW  Elec       q    Type
REMARK                         _______ _______ _______ _____ _____    ______ ____
ROOT
ATOM      1  C   UNL     1      45.876   5.795  12.723  0.00  0.00    +0.000 A 
ATOM      2  C   UNL     1      46.974   5.308  13.430  0.00  0.00    +0.000 A 
ATOM      3  C   UNL     1      47.881   6.196  14.005  0.00  0.00    +0.000 A 
ATOM      4  C   UNL     1      47.665   7.557  13.834  0.00  0.00    +0.000 A 
ATOM      5  N   UNL     1      46.631   8.073  13.111  0.00  0.00    +0.000 NA
ATOM      6  C   UNL     1      45.772   7.174  12.570  0.00  0.00    +0.000 A 
ENDROOT
BRANCH   4   7
ATOM      7  C   UNL     1      48.588   8.549  14.477  0.00  0.00    +0.000 C 
ATOM      8  N   UNL     1      48.019   9.740  14.825  0.00  0.00    +0.000 N 
ATOM      9  O   UNL     1      49.770   8.310  14.685  0.00  0.00    +0.000 OA
ATOM     10  H   UNL     1      47.035   9.900  14.639  0.00  0.00    +0.000 HD
ATOM     11  H   UNL     1      48.581  10.453  15.266  0.00  0.00    +0.000 HD
ENDBRANCH   4   7
BRANCH   1  12
ATOM     12  O   UNL     1      45.003   4.857  12.250  0.00  0.00    +0.000 OA
BRANCH  12  14
ATOM     13  C   UNL     1      42.635   5.203  11.759  0.00  0.00    +0.000 C 
ATOM     14  C   UNL     1      44.072   5.263  11.228  0.00  0.00    +0.000 C 
BRANCH  14  15
ATOM     15  C   UNL     1      44.243   4.337   9.987  0.00  0.00    +0.000 C 
ATOM     16  C   UNL     1      44.353   2.846  10.360  0.00  0.00    +0.000 C 
ATOM     17  C   UNL     1      44.583   1.958   9.139  0.00  0.00    +0.000 C 
ATOM     18  C   UNL     1      45.805   2.407   8.349  0.00  0.00    +0.000 C 
ATOM     19  C   UNL     1      45.674   3.867   7.930  0.00  0.00    +0.000 C 
ATOM     20  C   UNL     1      45.451   4.777   9.138  0.00  0.00    +0.000 C 
ENDBRANCH  14  15
ENDBRANCH  12  14
ENDBRANCH   1  12
TORSDOF 4
ENDMDL
MODEL 6
REMARK VINA RESULT:    -5.712      3.113      5.228
REMARK INTER + INTRA:          -7.579
REMARK INTER:                  -7.025
REMARK INTRA:                  -0.554
REMARK UNBOUND:                -0.532
REMARK  Name = 
REMARK  5 active torsions:
REMARK  status: ('A' for Active; 'I' for Inactive)
REMARK    1  A    between atoms: C_1  and  C_2
REMARK    2  A    between atoms: C_2  and  O_3
REMARK    3  A    between atoms: C_2  and  C_13
REMARK    4  A    between atoms: O_3  and  C_4
REMARK    5  A    between atoms: C_7  and  C_8
REMARK                            x       y       z     vdW  Elec       q    Type
REMARK                         _______ _______ _______ _____ _____    ______ ____
ROOT
ATOM      1  C   UNL     1      46.403   5.837  12.669  0.00  0.00    +0.000 A 
ATOM      2  C   UNL     1      45.957   5.967  11.355  0.00  0.00    +0.000 A 
ATOM      3  C   UNL     1      45.170   4.967  10.786  0.00  0.00    +0.000 A 
ATOM      4  C   UNL     1      44.870   3.851  11.555  0.00  0.00    +0.000 A 
ATOM      5  N   UNL     1      45.326   3.663  12.825  0.00  0.00    +0.000 NA
ATOM      6  C   UNL     1      46.087   4.660  13.341  0.00  0.00    +0.000 A 
ENDROOT
BRANCH   4   7
ATOM      7  C   UNL     1      43.985   2.774  11.000  0.00  0.00    +0.000 C 
ATOM      8  N   UNL     1      44.441   2.167   9.865  0.00  0.00    +0.000 N 
ATOM      9  O   UNL     1      42.929   2.453  11.527  0.00  0.00    +0.000 OA
ATOM     10  H   UNL     1      45.323   2.459   9.459  0.00  0.00    +0.000 HD
ATOM     11  H   UNL     1      43.898   1.431   9.439  0.00  0.00    +0.000 HD
ENDBRANCH   4   7
BRANCH   1  12
ATOM     12  O   UNL     1      47.113   6.892  13.169  0.00  0.00    +0.000 OA
BRANCH  12  14
ATOM     13  C   UNL     1      49.188   7.092  14.443  0.00  0.00    +0.000 C 
ATOM     14  C   UNL     1      48.550   6.839  13.072  0.00  0.00    +0.000 C 
BRANCH  14  15
ATOM     15  C   UNL     1      49.029   7.897  12.034  0.00  0.00    +0.000 C 
ATOM     16  C   UNL     1      50.553   8.124  12.067  0.00  0.00    +0.000 C 
ATOM     17  C   UNL     1      50.999   9.209  11.089  0.00  0.00    +0.000 C 
ATOM     18  C   UNL     1      50.255  10.515  11.332  0.00  0.00    +0.000 C 
ATOM     19  C   UNL     1      48.748  10.305  11.245  0.00  0.00    +0.000 C 
ATOM     20  C   UNL     1      48.276   9.228  12.222  0.00  0.00    +0.000 C 
ENDBRANCH  14  15
ENDBRANCH  12  14
ENDBRANCH   1  12
TORSDOF 4
ENDMDL
MODEL 7
REMARK VINA RESULT:    -5.624      3.834      6.147
REMARK INTER + INTRA:          -7.471
REMARK INTER:                  -6.937
REMARK INTRA:                  -0.534
REMARK UNBOUND:                -0.532
REMARK  Name = 
REMARK  5 active torsions:
REMARK  status: ('A' for Active; 'I' for Inactive)
REMARK    1  A    between atoms: C_1  and  C_2
REMARK    2  A    between atoms: C_2  and  O_3
REMARK    3  A    between atoms: C_2  and  C_13
REMARK    4  A    between atoms: O_3  and  C_4
REMARK    5  A    between atoms: C_7  and  C_8
REMARK                            x       y       z     vdW  Elec       q    Type
REMARK                         _______ _______ _______ _____ _____    ______ ____
ROOT
ATOM      1  C   UNL     1      47.022   5.161  13.374  0.00  0.00    +0.000 A 
ATOM      2  C   UNL     1      46.239   6.138  12.760  0.00  0.00    +0.000 A 
ATOM      3  C   UNL     1      45.003   5.796  12.214  0.00  0.00    +0.000 A 
ATOM      4  C   UNL     1      44.598   4.470  12.285  0.00  0.00    +0.000 A 
ATOM      5  N   UNL     1      45.354   3.477  12.834  0.00  0.00    +0.000 NA
ATOM      6  C   UNL     1      46.549   3.854  13.354  0.00  0.00    +0.000 A 
ENDROOT
BRANCH   4   7
ATOM      7  C   UNL     1      43.254   4.067  11.755  0.00  0.00    +0.000 C 
ATOM      8  N   UNL     1      42.295   5.037  11.788  0.00  0.00    +0.000 N 
ATOM      9  O   UNL     1      43.029   2.947  11.315  0.00  0.00    +0.000 OA
ATOM     10  H   UNL     1      42.521   5.954  12.158  0.00  0.00    +0.000 HD
ATOM     11  H   UNL     1      41.368   4.836  11.444  0.00  0.00    +0.000 HD
ENDBRANCH   4   7
BRANCH   1  12
ATOM     12  O   UNL     1      48.187   5.595  13.939  0.00  0.00    +0.000 OA
BRANCH  12  14
ATOM     13  C   UNL     1      49.038   7.345  15.417  0.00  0.00    +0.000 C 
ATOM     14  C   UNL     1      48.128   6.118  15.280  0.00  0.00    +0.000 C 
BRANCH  14  15
ATOM     15  C   UNL     1      48.551   5.001  16.281  0.00  0.00    +0.000 C 
ATOM     16  C   UNL     1      47.348   4.269  16.908  0.00  0.00    +0.000 C 
ATOM     17  C   UNL     1      47.777   3.222  17.933  0.00  0.00    +0.000 C 
ATOM     18  C   UNL     1      48.659   3.832  19.014  0.00  0.00    +0.000 C 
ATOM     19  C   UNL     1      49.879   4.510  18.401  0.00  0.00    +0.000 C 
ATOM     20  C   UNL     1      49.474   5.569  17.376  0.00  0.00    +0.000 C 
ENDBRANCH  14  15
ENDBRANCH  12  14
ENDBRANCH   1  12
TORSDOF 4
ENDMDL
MODEL 8
REMARK VINA RESULT:    -5.198      2.349      4.262
REMARK INTER + INTRA:          -6.945
REMARK INTER:                  -6.372
REMARK INTRA:                  -0.573
REMARK UNBOUND:                -0.532
REMARK  Name = 
REMARK  5 active torsions:
REMARK  status: ('A' for Active; 'I' for Inactive)
REMARK    1  A    between atoms: C_1  and  C_2
REMARK    2  A    between atoms: C_2  and  O_3
REMARK    3  A    between atoms: C_2  and  C_13
REMARK    4  A    between atoms: O_3  and  C_4
REMARK    5  A    between atoms: C_7  and  C_8
REMARK                            x       y       z     vdW  Elec       q    Type
REMARK                         _______ _______ _______ _____ _____    ______ ____
ROOT
ATOM      1  C   UNL     1      45.738   5.291  12.338  0.00  0.00    +0.000 A 
ATOM      2  C   UNL     1      45.296   3.988  12.565  0.00  0.00    +0.000 A 
ATOM      3  C   UNL     1      44.917   3.185  11.491  0.00  0.00    +0.000 A 
ATOM      4  C   UNL     1      44.977   3.727  10.214  0.00  0.00    +0.000 A 
ATOM      5  N   UNL     1      45.358   5.009   9.954  0.00  0.00    +0.000 NA
ATOM      6  C   UNL     1      45.719   5.755  11.027  0.00  0.00    +0.000 A 
ENDROOT
BRANCH   4   7
ATOM      7  C   UNL     1      44.627   2.883   9.024  0.00  0.00    +0.000 C 
ATOM      8  N   UNL     1      44.497   1.546   9.271  0.00  0.00    +0.000 N 
ATOM      9  O   UNL     1      44.460   3.355   7.908  0.00  0.00    +0.000 OA
ATOM     10  H   UNL     1      44.641   1.193  10.210  0.00  0.00    +0.000 HD
ATOM     11  H   UNL     1      44.259   0.919   8.516  0.00  0.00    +0.000 HD
ENDBRANCH   4   7
BRANCH   1  12
ATOM     12  O   UNL     1      46.151   5.984  13.440  0.00  0.00    +0.000 OA
BRANCH  12  14
ATOM     13  C   UNL     1      47.755   5.577  15.237  0.00  0.00    +0.000 C 
ATOM     14  C   UNL     1      47.554   5.955  13.765  0.00  0.00    +0.000 C 
BRANCH  14  15
ATOM     15  C   UNL     1      48.176   7.350  13.462  0.00  0.00    +0.000 C 
ATOM     16  C   UNL     1      47.127   8.477  13.401  0.00  0.00    +0.000 C 
ATOM     17  C   UNL     1      47.744   9.826  13.040  0.00  0.00    +0.000 C 
ATOM     18  C   UNL     1      48.526   9.748  11.735  0.00  0.00    +0.000 C 
ATOM     19  C   UNL     1      49.603   8.672  11.813  0.00  0.00    +0.000 C 
ATOM     20  C   UNL     1      49.007   7.309  12.165  0.00  0.00    +0.000 C 
ENDBRANCH  14  15
ENDBRANCH  12  14
ENDBRANCH   1  12
TORSDOF 4
ENDMDL
MODEL 9
REMARK VINA RESULT:    -5.120      3.960      6.120
REMARK INTER + INTRA:          -6.849
REMARK INTER:                  -6.296
REMARK INTRA:                  -0.553
REMARK UNBOUND:                -0.532
REMARK  Name = 
REMARK  5 active torsions:
REMARK  status: ('A' for Active; 'I' for Inactive)
REMARK    1  A    between atoms: C_1  and  C_2
REMARK    2  A    between atoms: C_2  and  O_3
REMARK    3  A    between atoms: C_2  and  C_13
REMARK    4  A    between atoms: O_3  and  C_4
REMARK    5  A    between atoms: C_7  and  C_8
REMARK                            x       y       z     vdW  Elec       q    Type
REMARK                         _______ _______ _______ _____ _____    ______ ____
ROOT
ATOM      1  C   UNL     1      47.154   5.724  12.813  0.00  0.00    +0.000 A 
ATOM      2  C   UNL     1      46.626   6.438  11.739  0.00  0.00    +0.000 A 
ATOM      3  C   UNL     1      45.313   6.209  11.330  0.00  0.00    +0.000 A 
ATOM      4  C   UNL     1      44.572   5.250  12.007  0.00  0.00    +0.000 A 
ATOM      5  N   UNL     1      45.066   4.498  13.031  0.00  0.00    +0.000 NA
ATOM      6  C   UNL     1      46.347   4.753  13.397  0.00  0.00    +0.000 A 
ENDROOT
BRANCH   4   7
ATOM      7  C   UNL     1      43.140   5.007  11.633  0.00  0.00    +0.000 C 
ATOM      8  N   UNL     1      42.325   6.101  11.691  0.00  0.00    +0.000 N 
ATOM      9  O   UNL     1      42.726   3.907  11.292  0.00  0.00    +0.000 OA
ATOM     10  H   UNL     1      42.706   6.996  11.977  0.00  0.00    +0.000 HD
ATOM     11  H   UNL     1      41.349   6.010  11.450  0.00  0.00    +0.000 HD
ENDBRANCH   4   7
BRANCH   1  12
ATOM     12  O   UNL     1      48.425   6.056  13.188  0.00  0.00    +0.000 OA
BRANCH  12  14
ATOM     13  C   UNL     1      50.041   7.874  12.962  0.00  0.00    +0.000 C 
ATOM     14  C   UNL     1      48.686   7.432  13.527  0.00  0.00    +0.000 C 
BRANCH  14  15
ATOM     15  C   UNL     1      48.653   7.589  15.077  0.00  0.00    +0.000 C 
ATOM     16  C   UNL     1      48.263   9.010  15.529  0.00  0.00    +0.000 C 
ATOM     17  C   UNL     1      48.298   9.165  17.047  0.00  0.00    +0.000 C 
ATOM     18  C   UNL     1      49.656   8.774  17.615  0.00  0.00    +0.000 C 
ATOM     19  C   UNL     1      50.019   7.348  17.215  0.00  0.00    +0.000 C 
ATOM     20  C   UNL     1      50.000   7.170  15.698  0.00  0.00    +0.000 C 
ENDBRANCH  14  15
ENDBRANCH  12  14
ENDBRANCH   1  12
TORSDOF 4
ENDMDL
