MODEL 1
REMARK VINA RESULT:    -8.702      0.000      0.000
REMARK INTER + INTRA:         -12.007
REMARK INTER:                 -11.246
REMARK INTRA:                  -0.761
REMARK UNBOUND:                -0.761
REMARK  Name = 
REMARK  5 active torsions:
REMARK  status: ('A' for Active; 'I' for Inactive)
REMARK    1  A    between atoms: C_2  and  C_4
REMARK    2  A    between atoms: C_7  and  N_8
REMARK    3  A    between atoms: N_8  and  C_9
REMARK    4  A    between atoms: C_9  and  C_10
REMARK    5  A    between atoms: C_14  and  C_15
REMARK                            x       y       z     vdW  Elec       q    Type
REMARK                         _______ _______ _______ _____ _____    ______ ____
ROOT
ATOM      1  C   UNL     1      43.380   4.831  11.109  0.00  0.00    +0.000 C 
ENDROOT
BRANCH   1   2
ATOM      2  C   UNL     1      44.613   5.090  11.930  0.00  0.00    +0.000 A 
ATOM      3  C   UNL     1      45.031   4.208  12.912  0.00  0.00    +0.000 A 
ATOM      4  N   UNL     1      46.151   4.380  13.645  0.00  0.00    +0.000 NA
ATOM      5  C   UNL     1      46.892   5.487  13.380  0.00  0.00    +0.000 A 
ATOM      6  C   UNL     1      46.596   6.447  12.411  0.00  0.00    +0.000 A 
ATOM      7  C   UNL     1      45.421   6.212  11.680  0.00  0.00    +0.000 A 
BRANCH   6   8
ATOM      8  C   UNL     1      47.455   7.628  12.164  0.00  0.00    +0.000 A 
ATOM      9  C   UNL     1      46.952   8.941  12.277  0.00  0.00    +0.000 A 
ATOM     10  C   UNL     1      47.756  10.062  12.040  0.00  0.00    +0.000 A 
ATOM     11  C   UNL     1      49.092   9.896  11.692  0.00  0.00    +0.000 A 
ATOM     12  C   UNL     1      49.605   8.613  11.579  0.00  0.00    +0.000 A 
ATOM     13  F   UNL     1      50.892   8.446  11.248  0.00  0.00    +0.000 F 
ATOM     14  C   UNL     1      48.807   7.491  11.803  0.00  0.00    +0.000 A 
ENDBRANCH   6   8
ENDBRANCH   1   2
BRANCH   1  15
ATOM     15  N   UNL     1      43.732   4.804   9.696  0.00  0.00    +0.000 N 
ATOM     16  H   UNL     1      42.950   4.995   9.074  0.00  0.00    +0.000 HD
BRANCH  15  20
ATOM     17  C   UNL     1      46.283   1.994   8.004  0.00  0.00    +0.000 A 
ATOM     18  C   UNL     1      46.458   3.321   7.642  0.00  0.00    +0.000 A 
ATOM     19  C   UNL     1      45.637   4.285   8.228  0.00  0.00    +0.000 A 
ATOM     20  C   UNL     1      44.676   3.925   9.178  0.00  0.00    +0.000 A 
ATOM     21  C   UNL     1      44.594   2.555   9.464  0.00  0.00    +0.000 A 
ATOM     22  N   UNL     1      45.367   1.579   8.919  0.00  0.00    +0.000 NA
BRANCH  17  24
ATOM     23  N   UNL     1      46.795  -0.350   7.659  0.00  0.00    +0.000 N 
ATOM     24  C   UNL     1      47.113   0.942   7.339  0.00  0.00    +0.000 C 
ATOM     25  O   UNL     1      48.010   1.208   6.549  0.00  0.00    +0.000 OA
ATOM     26  H   UNL     1      47.294  -1.106   7.216  0.00  0.00    +0.000 HD
ATOM     27  H   UNL     1      46.026  -0.534   8.291  0.00  0.00    +0.000 HD
ENDBRANCH  17  24
ENDBRANCH  15  20
ENDBRANCH   1  15
TORSDOF 5
ENDMDL
MODEL 2
REMARK VINA RESULT:    -8.475      3.961      7.147
REMARK INTER + INTRA:         -11.714
REMARK INTER:                 -11.254
REMARK INTRA:                  -0.460
REMARK UNBOUND:                -0.761
REMARK  Name = 
REMARK  5 active torsions:
REMARK  status: ('A' for Active; 'I' for Inactive)
REMARK    1  A    between atoms: C_2  and  C_4
REMARK    2  A    between atoms: C_7  and  N_8
REMARK    3  A    between atoms: N_8  and  C_9
REMARK    4  A    between atoms: C_9  and  C_10
REMARK    5  A    between atoms: C_14  and  C_15
REMARK                            x       y       z     vdW  Elec       q    Type
REMARK                         _______ _______ _______ _____ _____    ______ ____
ROOT
ATOM      1  C   UNL     1      45.951   7.256  11.816  0.00  0.00    +0.000 C 
ENDROOT
BRANCH   1   2
ATOM      2  C   UNL     1      45.189   6.177  11.097  0.00  0.00    +0.000 A 
ATOM      3  C   UNL     1      43.825   6.012  11.269  0.00  0.00    +0.000 A 
ATOM      4  N   UNL     1      43.095   5.085  10.616  0.00  0.00    +0.000 NA
ATOM      5  C   UNL     1      43.761   4.284   9.744  0.00  0.00    +0.000 A 
ATOM      6  C   UNL     1      45.127   4.352   9.464  0.00  0.00    +0.000 A 
ATOM      7  C   UNL     1      45.831   5.337  10.173  0.00  0.00    +0.000 A 
BRANCH   6   8
ATOM      8  C   UNL     1      45.791   3.454   8.491  0.00  0.00    +0.000 A 
ATOM      9  C   UNL     1      46.435   3.960   7.343  0.00  0.00    +0.000 A 
ATOM     10  C   UNL     1      47.060   3.117   6.415  0.00  0.00    +0.000 A 
ATOM     11  C   UNL     1      47.064   1.742   6.620  0.00  0.00    +0.000 A 
ATOM     12  C   UNL     1      46.438   1.227   7.746  0.00  0.00    +0.000 A 
ATOM     13  F   UNL     1      46.442  -0.097   7.951  0.00  0.00    +0.000 F 
ATOM     14  C   UNL     1      45.805   2.059   8.668  0.00  0.00    +0.000 A 
ENDBRANCH   6   8
ENDBRANCH   1   2
BRANCH   1  15
ATOM     15  N   UNL     1      47.180   6.700  12.365  0.00  0.00    +0.000 N 
ATOM     16  H   UNL     1      47.819   6.341  11.660  0.00  0.00    +0.000 HD
BRANCH  15  20
ATOM     17  C   UNL     1      47.405   4.366  15.795  0.00  0.00    +0.000 A 
ATOM     18  C   UNL     1      48.147   5.537  15.766  0.00  0.00    +0.000 A 
ATOM     19  C   UNL     1      48.055   6.354  14.638  0.00  0.00    +0.000 A 
ATOM     20  C   UNL     1      47.216   6.013  13.573  0.00  0.00    +0.000 A 
ATOM     21  C   UNL     1      46.514   4.808  13.719  0.00  0.00    +0.000 A 
ATOM     22  N   UNL     1      46.572   3.978  14.793  0.00  0.00    +0.000 NA
BRANCH  17  24
ATOM     23  N   UNL     1      48.818   3.220  17.398  0.00  0.00    +0.000 N 
ATOM     24  C   UNL     1      47.539   3.448  16.969  0.00  0.00    +0.000 C 
ATOM     25  O   UNL     1      46.572   2.941  17.525  0.00  0.00    +0.000 OA
ATOM     26  H   UNL     1      48.972   2.638  18.208  0.00  0.00    +0.000 HD
ATOM     27  H   UNL     1      49.591   3.682  16.934  0.00  0.00    +0.000 HD
ENDBRANCH  17  24
ENDBRANCH  15  20
ENDBRANCH   1  15
TORSDOF 5
ENDMDL
MODEL 3
REMARK VINA RESULT:    -8.365      3.324      6.727
REMARK INTER + INTRA:         -11.571
REMARK INTER:                 -10.731
REMARK INTRA:                  -0.840
REMARK UNBOUND:                -0.761
REMARK  Name = 
REMARK  5 active torsions:
REMARK  status: ('A' for Active; 'I' for Inactive)
REMARK    1  A    between atoms: C_2  and  C_4
REMARK    2  A    between atoms: C_7  and  N_8
REMARK    3  A    between atoms: N_8  and  C_9
REMARK    4  A    between atoms: C_9  and  C_10
REMARK    5  A    between atoms: C_14  and  C_15
REMARK                            x       y       z     vdW  Elec       q    Type
REMARK                         _______ _______ _______ _____ _____    ______ ____
ROOT
ATOM      1  C   UNL     1      43.453   6.342  11.388  0.00  0.00    +0.000 C 
ENDROOT
BRANCH   1   2
ATOM      2  C   UNL     1      43.678   4.891  11.065  0.00  0.00    +0.000 A 
ATOM      3  C   UNL     1      43.041   3.882  11.768  0.00  0.00    +0.000 A 
ATOM      4  N   UNL     1      43.183   2.570  11.487  0.00  0.00    +0.000 NA
ATOM      5  C   UNL     1      44.000   2.251  10.450  0.00  0.00    +0.000 A 
ATOM      6  C   UNL     1      44.690   3.165   9.652  0.00  0.00    +0.000 A 
ATOM      7  C   UNL     1      44.500   4.513   9.991  0.00  0.00    +0.000 A 
BRANCH   6   8
ATOM      8  C   UNL     1      45.558   2.749   8.526  0.00  0.00    +0.000 A 
ATOM      9  C   UNL     1      46.026   3.678   7.574  0.00  0.00    +0.000 A 
ATOM     10  C   UNL     1      46.842   3.292   6.504  0.00  0.00    +0.000 A 
ATOM     11  C   UNL     1      47.221   1.962   6.366  0.00  0.00    +0.000 A 
ATOM     12  C   UNL     1      46.774   1.034   7.295  0.00  0.00    +0.000 A 
ATOM     13  F   UNL     1      47.138  -0.249   7.170  0.00  0.00    +0.000 F 
ATOM     14  C   UNL     1      45.952   1.409   8.357  0.00  0.00    +0.000 A 
ENDBRANCH   6   8
ENDBRANCH   1   2
BRANCH   1  15
ATOM     15  N   UNL     1      44.130   6.675  12.633  0.00  0.00    +0.000 N 
ATOM     16  H   UNL     1      43.554   7.199  13.287  0.00  0.00    +0.000 HD
BRANCH  15  20
ATOM     17  C   UNL     1      48.237   7.308  12.598  0.00  0.00    +0.000 A 
ATOM     18  C   UNL     1      47.427   8.317  12.099  0.00  0.00    +0.000 A 
ATOM     19  C   UNL     1      46.044   8.139  12.137  0.00  0.00    +0.000 A 
ATOM     20  C   UNL     1      45.485   6.983  12.688  0.00  0.00    +0.000 A 
ATOM     21  C   UNL     1      46.403   6.036  13.163  0.00  0.00    +0.000 A 
ATOM     22  N   UNL     1      47.756   6.160  13.146  0.00  0.00    +0.000 NA
BRANCH  17  24
ATOM     23  N   UNL     1      50.391   7.441  13.702  0.00  0.00    +0.000 N 
ATOM     24  C   UNL     1      49.723   7.455  12.508  0.00  0.00    +0.000 C 
ATOM     25  O   UNL     1      50.313   7.566  11.441  0.00  0.00    +0.000 OA
ATOM     26  H   UNL     1      51.398   7.500  13.707  0.00  0.00    +0.000 HD
ATOM     27  H   UNL     1      49.873   7.315  14.564  0.00  0.00    +0.000 HD
ENDBRANCH  17  24
ENDBRANCH  15  20
ENDBRANCH   1  15
TORSDOF 5
ENDMDL
MODEL 4
REMARK VINA RESULT:    -8.258      2.712      3.780
REMARK INTER + INTRA:         -11.433
REMARK INTER:                 -10.794
REMARK INTRA:                  -0.640
REMARK UNBOUND:                -0.761
REMARK  Name = 
REMARK  5 active torsions:
REMARK  status: ('A' for Active; 'I' for Inactive)
REMARK    1  A    between atoms: C_2  and  C_4
REMARK    2  A    between atoms: C_7  and  N_8
REMARK    3  A    between atoms: N_8  and  C_9
REMARK    4  A    between atoms: C_9  and  C_10
REMARK    5  A    between atoms: C_14  and  C_15
REMARK                            x       y       z     vdW  Elec       q    Type
REMARK                         _______ _______ _______ _____ _____    ______ ____
ROOT
ATOM      1  C   UNL     1      43.753   4.667  11.458  0.00  0.00    +0.000 C 
ENDROOT
BRANCH   1   2
ATOM      2  C   UNL     1      44.957   5.408  11.972  0.00  0.00    +0.000 A 
ATOM      3  C   UNL     1      45.423   6.556  11.353  0.00  0.00    +0.000 A 
ATOM      4  N   UNL     1      46.474   7.273  11.802  0.00  0.00    +0.000 NA
ATOM      5  C   UNL     1      47.087   6.824  12.927  0.00  0.00    +0.000 A 
ATOM      6  C   UNL     1      46.712   5.694  13.657  0.00  0.00    +0.000 A 
ATOM      7  C   UNL     1      45.613   4.991  13.142  0.00  0.00    +0.000 A 
BRANCH   6   8
ATOM      8  C   UNL     1      47.418   5.264  14.886  0.00  0.00    +0.000 A 
ATOM      9  C   UNL     1      48.418   6.062  15.479  0.00  0.00    +0.000 A 
ATOM     10  C   UNL     1      49.094   5.660  16.637  0.00  0.00    +0.000 A 
ATOM     11  C   UNL     1      48.777   4.448  17.239  0.00  0.00    +0.000 A 
ATOM     12  C   UNL     1      47.794   3.650  16.673  0.00  0.00    +0.000 A 
ATOM     13  F   UNL     1      47.482   2.483  17.250  0.00  0.00    +0.000 F 
ATOM     14  C   UNL     1      47.125   4.040  15.513  0.00  0.00    +0.000 A 
ENDBRANCH   6   8
ENDBRANCH   1   2
BRANCH   1  15
ATOM     15  N   UNL     1      43.806   4.602  10.005  0.00  0.00    +0.000 N 
ATOM     16  H   UNL     1      42.891   4.595   9.560  0.00  0.00    +0.000 HD
BRANCH  15  20
ATOM     17  C   UNL     1      46.450   2.252   7.824  0.00  0.00    +0.000 A 
ATOM     18  C   UNL     1      46.487   3.622   7.616  0.00  0.00    +0.000 A 
ATOM     19  C   UNL     1      45.633   4.432   8.366  0.00  0.00    +0.000 A 
ATOM     20  C   UNL     1      44.779   3.879   9.324  0.00  0.00    +0.000 A 
ATOM     21  C   UNL     1      44.834   2.483   9.447  0.00  0.00    +0.000 A 
ATOM     22  N   UNL     1      45.643   1.652   8.739  0.00  0.00    +0.000 NA
BRANCH  17  24
ATOM     23  N   UNL     1      48.393   1.969   6.402  0.00  0.00    +0.000 N 
ATOM     24  C   UNL     1      47.313   1.364   6.985  0.00  0.00    +0.000 C 
ATOM     25  O   UNL     1      47.085   0.170   6.836  0.00  0.00    +0.000 OA
ATOM     26  H   UNL     1      49.034   1.416   5.854  0.00  0.00    +0.000 HD
ATOM     27  H   UNL     1      48.569   2.952   6.574  0.00  0.00    +0.000 HD
ENDBRANCH  17  24
ENDBRANCH  15  20
ENDBRANCH   1  15
TORSDOF 5
ENDMDL
MODEL 5
REMARK VINA RESULT:    -7.340      3.744      7.136
REMARK INTER + INTRA:         -10.247
REMARK INTER:                  -9.563
REMARK INTRA:                  -0.684
REMARK UNBOUND:                -0.761
REMARK  Name = 
REMARK  5 active torsions:
REMARK  status: ('A' for Active; 'I' for Inactive)
REMARK    1  A    between atoms: C_2  and  C_4
REMARK    2  A    between atoms: C_7  and  N_8
REMARK    3  A    between atoms: N_8  and  C_9
REMARK    4  A    between atoms: C_9  and  C_10
REMARK    5  A    between atoms: C_14  and  C_15
REMARK                            x       y       z     vdW  Elec       q    Type
REMARK                         _______ _______ _______ _____ _____    ______ ____
ROOT
ATOM      1  C   UNL     1      45.550   4.704  13.432  0.00  0.00    +0.000 C 
ENDROOT
BRANCH   1   2
ATOM      2  C   UNL     1      44.915   4.568  12.076  0.00  0.00    +0.000 A 
ATOM      3  C   UNL     1      43.690   5.146  11.785  0.00  0.00    +0.000 A 
ATOM      4  N   UNL     1      43.102   5.082  10.573  0.00  0.00    +0.000 NA
ATOM      5  C   UNL     1      43.773   4.411   9.601  0.00  0.00    +0.000 A 
ATOM      6  C   UNL     1      45.017   3.796   9.753  0.00  0.00    +0.000 A 
ATOM      7  C   UNL     1      45.578   3.898  11.035  0.00  0.00    +0.000 A 
BRANCH   6   8
ATOM      8  C   UNL     1      45.701   3.089   8.647  0.00  0.00    +0.000 A 
ATOM      9  C   UNL     1      46.203   3.783   7.527  0.00  0.00    +0.000 A 
ATOM     10  C   UNL     1      46.846   3.121   6.474  0.00  0.00    +0.000 A 
ATOM     11  C   UNL     1      47.012   1.741   6.522  0.00  0.00    +0.000 A 
ATOM     12  C   UNL     1      46.528   1.041   7.616  0.00  0.00    +0.000 A 
ATOM     13  F   UNL     1      46.687  -0.287   7.670  0.00  0.00    +0.000 F 
ATOM     14  C   UNL     1      45.877   1.693   8.663  0.00  0.00    +0.000 A 
ENDBRANCH   6   8
ENDBRANCH   1   2
BRANCH   1  15
ATOM     15  N   UNL     1      45.981   6.081  13.632  0.00  0.00    +0.000 N 
ATOM     16  H   UNL     1      45.257   6.770  13.445  0.00  0.00    +0.000 HD
BRANCH  15  20
ATOM     17  C   UNL     1      49.691   7.673  12.647  0.00  0.00    +0.000 A 
ATOM     18  C   UNL     1      49.502   7.246  13.952  0.00  0.00    +0.000 A 
ATOM     19  C   UNL     1      48.276   6.673  14.293  0.00  0.00    +0.000 A 
ATOM     20  C   UNL     1      47.270   6.510  13.336  0.00  0.00    +0.000 A 
ATOM     21  C   UNL     1      47.579   6.977  12.050  0.00  0.00    +0.000 A 
ATOM     22  N   UNL     1      48.754   7.544  11.670  0.00  0.00    +0.000 NA
BRANCH  17  24
ATOM     23  N   UNL     1      51.655   7.788  11.231  0.00  0.00    +0.000 N 
ATOM     24  C   UNL     1      50.976   8.345  12.279  0.00  0.00    +0.000 C 
ATOM     25  O   UNL     1      51.393   9.338  12.863  0.00  0.00    +0.000 OA
ATOM     26  H   UNL     1      52.511   8.216  10.911  0.00  0.00    +0.000 HD
ATOM     27  H   UNL     1      51.264   6.986  10.751  0.00  0.00    +0.000 HD
ENDBRANCH  17  24
ENDBRANCH  15  20
ENDBRANCH   1  15
TORSDOF 5
ENDMDL
MODEL 6
REMARK VINA RESULT:    -7.303      4.750      8.173
REMARK INTER + INTRA:         -10.199
REMARK INTER:                  -9.697
REMARK INTRA:                  -0.502
REMARK UNBOUND:                -0.761
REMARK  Name = 
REMARK  5 active torsions:
REMARK  status: ('A' for Active; 'I' for Inactive)
REMARK    1  A    between atoms: C_2  and  C_4
REMARK    2  A    between atoms: C_7  and  N_8
REMARK    3  A    between atoms: N_8  and  C_9
REMARK    4  A    between atoms: C_9  and  C_10
REMARK    5  A    between atoms: C_14  and  C_15
REMARK                            x       y       z     vdW  Elec       q    Type
REMARK                         _______ _______ _______ _____ _____    ______ ____
ROOT
ATOM      1  C   UNL     1      45.973   5.004  13.739  0.00  0.00    +0.000 C 
ENDROOT
BRANCH   1   2
ATOM      2  C   UNL     1      45.133   4.468  12.613  0.00  0.00    +0.000 A 
ATOM      3  C   UNL     1      43.750   4.434  12.689  0.00  0.00    +0.000 A 
ATOM      4  N   UNL     1      42.956   3.998  11.689  0.00  0.00    +0.000 NA
ATOM      5  C   UNL     1      43.574   3.580  10.555  0.00  0.00    +0.000 A 
ATOM      6  C   UNL     1      44.954   3.574  10.339  0.00  0.00    +0.000 A 
ATOM      7  C   UNL     1      45.726   4.040  11.414  0.00  0.00    +0.000 A 
BRANCH   6   8
ATOM      8  C   UNL     1      45.564   3.114   9.070  0.00  0.00    +0.000 A 
ATOM      9  C   UNL     1      45.936   4.024   8.059  0.00  0.00    +0.000 A 
ATOM     10  C   UNL     1      46.508   3.596   6.854  0.00  0.00    +0.000 A 
ATOM     11  C   UNL     1      46.733   2.242   6.636  0.00  0.00    +0.000 A 
ATOM     12  C   UNL     1      46.377   1.332   7.621  0.00  0.00    +0.000 A 
ATOM     13  F   UNL     1      46.594   0.027   7.418  0.00  0.00    +0.000 F 
ATOM     14  C   UNL     1      45.797   1.750   8.818  0.00  0.00    +0.000 A 
ENDBRANCH   6   8
ENDBRANCH   1   2
BRANCH   1  15
ATOM     15  N   UNL     1      46.834   3.947  14.250  0.00  0.00    +0.000 N 
ATOM     16  H   UNL     1      46.527   3.010  13.999  0.00  0.00    +0.000 HD
BRANCH  15  20
ATOM     17  C   UNL     1      48.486   4.433  18.031  0.00  0.00    +0.000 A 
ATOM     18  C   UNL     1      48.090   3.157  17.663  0.00  0.00    +0.000 A 
ATOM     19  C   UNL     1      47.568   2.965  16.383  0.00  0.00    +0.000 A 
ATOM     20  C   UNL     1      47.470   4.031  15.483  0.00  0.00    +0.000 A 
ATOM     21  C   UNL     1      47.904   5.272  15.968  0.00  0.00    +0.000 A 
ATOM     22  N   UNL     1      48.416   5.510  17.204  0.00  0.00    +0.000 NA
BRANCH  17  24
ATOM     23  N   UNL     1      48.627   3.728  20.347  0.00  0.00    +0.000 N 
ATOM     24  C   UNL     1      48.989   4.667  19.420  0.00  0.00    +0.000 C 
ATOM     25  O   UNL     1      49.692   5.626  19.716  0.00  0.00    +0.000 OA
ATOM     26  H   UNL     1      48.965   3.810  21.293  0.00  0.00    +0.000 HD
ATOM     27  H   UNL     1      48.072   2.930  20.060  0.00  0.00    +0.000 HD
ENDBRANCH  17  24
ENDBRANCH  15  20
ENDBRANCH   1  15
TORSDOF 5
ENDMDL
MODEL 7
REMARK VINA RESULT:    -6.676      4.292      7.675
REMARK INTER + INTRA:          -9.389
REMARK INTER:                  -8.816
REMARK INTRA:                  -0.572
REMARK UNBOUND:                -0.761
REMARK  Name = 
REMARK  5 active torsions:
REMARK  status: ('A' for Active; 'I' for Inactive)
REMARK    1  A    between atoms: C_2  and  C_4
REMARK    2  A    between atoms: C_7  and  N_8
REMARK    3  A    between atoms: N_8  and  C_9
REMARK    4  A    between atoms: C_9  and  C_10
REMARK    5  A    between atoms: C_14  and  C_15
REMARK                            x       y       z     vdW  Elec       q    Type
REMARK                         _______ _______ _______ _____ _____    ______ ____
ROOT
ATOM      1  C   UNL     1      48.338   7.666  13.563  0.00  0.00    +0.000 C 
ENDROOT
BRANCH   1   2
ATOM      2  C   UNL     1      47.048   7.557  12.799  0.00  0.00    +0.000 A 
ATOM      3  C   UNL     1      46.131   8.595  12.767  0.00  0.00    +0.000 A 
ATOM      4  N   UNL     1      44.980   8.555  12.063  0.00  0.00    +0.000 NA
ATOM      5  C   UNL     1      44.735   7.424  11.353  0.00  0.00    +0.000 A 
ATOM      6  C   UNL     1      45.577   6.312  11.285  0.00  0.00    +0.000 A 
ATOM      7  C   UNL     1      46.759   6.414  12.035  0.00  0.00    +0.000 A 
BRANCH   6   8
ATOM      8  C   UNL     1      45.255   5.112  10.480  0.00  0.00    +0.000 A 
ATOM      9  C   UNL     1      44.550   4.022  11.032  0.00  0.00    +0.000 A 
ATOM     10  C   UNL     1      44.247   2.881  10.279  0.00  0.00    +0.000 A 
ATOM     11  C   UNL     1      44.634   2.807   8.946  0.00  0.00    +0.000 A 
ATOM     12  C   UNL     1      45.325   3.870   8.385  0.00  0.00    +0.000 A 
ATOM     13  F   UNL     1      45.698   3.806   7.100  0.00  0.00    +0.000 F 
ATOM     14  C   UNL     1      45.640   5.005   9.131  0.00  0.00    +0.000 A 
ENDBRANCH   6   8
ENDBRANCH   1   2
BRANCH   1  15
ATOM     15  N   UNL     1      48.072   7.532  14.988  0.00  0.00    +0.000 N 
ATOM     16  H   UNL     1      47.893   8.417  15.458  0.00  0.00    +0.000 HD
BRANCH  15  20
ATOM     17  C   UNL     1      49.966   4.476  17.071  0.00  0.00    +0.000 A 
ATOM     18  C   UNL     1      50.609   5.702  17.005  0.00  0.00    +0.000 A 
ATOM     19  C   UNL     1      49.972   6.752  16.343  0.00  0.00    +0.000 A 
ATOM     20  C   UNL     1      48.704   6.580  15.781  0.00  0.00    +0.000 A 
ATOM     21  C   UNL     1      48.153   5.298  15.915  0.00  0.00    +0.000 A 
ATOM     22  N   UNL     1      48.734   4.244  16.545  0.00  0.00    +0.000 NA
BRANCH  17  24
ATOM     23  N   UNL     1      51.296   3.606  18.902  0.00  0.00    +0.000 N 
ATOM     24  C   UNL     1      50.662   3.323  17.724  0.00  0.00    +0.000 C 
ATOM     25  O   UNL     1      50.656   2.194  17.249  0.00  0.00    +0.000 OA
ATOM     26  H   UNL     1      51.753   2.863  19.409  0.00  0.00    +0.000 HD
ATOM     27  H   UNL     1      51.252   4.544  19.281  0.00  0.00    +0.000 HD
ENDBRANCH  17  24
ENDBRANCH  15  20
ENDBRANCH   1  15
TORSDOF 5
ENDMDL
MODEL 8
REMARK VINA RESULT:    -6.071      5.630      7.420
REMARK INTER + INTRA:          -8.608
REMARK INTER:                  -8.041
REMARK INTRA:                  -0.567
REMARK UNBOUND:                -0.761
REMARK  Name = 
REMARK  5 active torsions:
REMARK  status: ('A' for Active; 'I' for Inactive)
REMARK    1  A    between atoms: C_2  and  C_4
REMARK    2  A    between atoms: C_7  and  N_8
REMARK    3  A    between atoms: N_8  and  C_9
REMARK    4  A    between atoms: C_9  and  C_10
REMARK    5  A    between atoms: C_14  and  C_15
REMARK                            x       y       z     vdW  Elec       q    Type
REMARK                         _______ _______ _______ _____ _____    ______ ____
ROOT
ATOM      1  C   UNL     1      46.877   3.905  16.210  0.00  0.00    +0.000 C 
ENDROOT
BRANCH   1   2
ATOM      2  C   UNL     1      48.085   4.245  17.039  0.00  0.00    +0.000 A 
ATOM      3  C   UNL     1      48.090   5.322  17.909  0.00  0.00    +0.000 A 
ATOM      4  N   UNL     1      49.136   5.641  18.699  0.00  0.00    +0.000 NA
ATOM      5  C   UNL     1      50.231   4.842  18.618  0.00  0.00    +0.000 A 
ATOM      6  C   UNL     1      50.355   3.720  17.796  0.00  0.00    +0.000 A 
ATOM      7  C   UNL     1      49.234   3.438  17.001  0.00  0.00    +0.000 A 
BRANCH   6   8
ATOM      8  C   UNL     1      51.576   2.882  17.764  0.00  0.00    +0.000 A 
ATOM      9  C   UNL     1      51.516   1.504  17.469  0.00  0.00    +0.000 A 
ATOM     10  C   UNL     1      52.666   0.704  17.442  0.00  0.00    +0.000 A 
ATOM     11  C   UNL     1      53.909   1.269  17.700  0.00  0.00    +0.000 A 
ATOM     12  C   UNL     1      53.988   2.623  17.989  0.00  0.00    +0.000 A 
ATOM     13  F   UNL     1      55.184   3.174  18.235  0.00  0.00    +0.000 F 
ATOM     14  C   UNL     1      52.847   3.423  18.028  0.00  0.00    +0.000 A 
ENDBRANCH   6   8
ENDBRANCH   1   2
BRANCH   1  15
ATOM     15  N   UNL     1      47.276   3.715  14.823  0.00  0.00    +0.000 N 
ATOM     16  H   UNL     1      48.277   3.811  14.666  0.00  0.00    +0.000 HD
BRANCH  15  20
ATOM     17  C   UNL     1      44.665   4.729  11.754  0.00  0.00    +0.000 A 
ATOM     18  C   UNL     1      45.121   5.751  12.572  0.00  0.00    +0.000 A 
ATOM     19  C   UNL     1      46.029   5.436  13.585  0.00  0.00    +0.000 A 
ATOM     20  C   UNL     1      46.487   4.127  13.755  0.00  0.00    +0.000 A 
ATOM     21  C   UNL     1      45.958   3.182  12.865  0.00  0.00    +0.000 A 
ATOM     22  N   UNL     1      45.072   3.436  11.867  0.00  0.00    +0.000 NA
BRANCH  17  24
ATOM     23  N   UNL     1      43.879   4.484   9.474  0.00  0.00    +0.000 N 
ATOM     24  C   UNL     1      43.646   5.037  10.703  0.00  0.00    +0.000 C 
ATOM     25  O   UNL     1      42.658   5.727  10.923  0.00  0.00    +0.000 OA
ATOM     26  H   UNL     1      43.209   4.625   8.733  0.00  0.00    +0.000 HD
ATOM     27  H   UNL     1      44.690   3.893   9.337  0.00  0.00    +0.000 HD
ENDBRANCH  17  24
ENDBRANCH  15  20
ENDBRANCH   1  15
TORSDOF 5
ENDMDL
