MODEL 1
REMARK VINA RESULT:    -7.817      0.000      0.000
REMARK INTER + INTRA:         -10.919
REMARK INTER:                 -10.559
REMARK INTRA:                  -0.360
REMARK UNBOUND:                -0.360
REMARK  Name = 
REMARK  7 active torsions:
REMARK  status: ('A' for Active; 'I' for Inactive)
REMARK    1  A    between atoms: N_1  and  C_2
REMARK    2  A    between atoms: C_2  and  C_3
REMARK    3  A    between atoms: C_3  and  C_4
REMARK    4  A    between atoms: C_7  and  C_8
REMARK    5  A    between atoms: C_8  and  N_9
REMARK    6  A    between atoms: C_14  and  C_15
REMARK    7  A    between atoms: C_15  and  O_17
REMARK                            x       y       z     vdW  Elec       q    Type
REMARK                         _______ _______ _______ _____ _____    ______ ____
ROOT
ATOM      1  N   UNL     1      44.584   5.476  11.355  0.00  0.00    +0.000 N 
ATOM      2  C   UNL     1      44.755   6.836  11.407  0.00  0.00    +0.000 A 
ATOM      3  N   UNL     1      45.590   7.190  12.362  0.00  0.00    +0.000 NA
ATOM      4  C   UNL     1      45.975   6.013  12.947  0.00  0.00    +0.000 A 
ATOM      5  C   UNL     1      46.831   5.771  14.028  0.00  0.00    +0.000 A 
ATOM      6  C   UNL     1      47.000   4.436  14.409  0.00  0.00    +0.000 A 
ATOM      7  C   UNL     1      46.377   3.428  13.671  0.00  0.00    +0.000 A 
ATOM      8  N   UNL     1      45.547   3.617  12.607  0.00  0.00    +0.000 NA
ATOM      9  C   UNL     1      45.382   4.923  12.320  0.00  0.00    +0.000 A 
ENDROOT
BRANCH   6  10
ATOM     10  C   UNL     1      47.835   4.041  15.560  0.00  0.00    +0.000 C 
ATOM     11  O   UNL     1      48.110   4.814  16.464  0.00  0.00    +0.000 OA
BRANCH  10  12
ATOM     12  O   UNL     1      48.304   2.779  15.501  0.00  0.00    +0.000 OA
ATOM     13  H   UNL     1      48.411   2.400  14.608  0.00  0.00    +0.000 HD
ENDBRANCH  10  12
ENDBRANCH   6  10
BRANCH   1  14
ATOM     14  C   UNL     1      43.737   4.762  10.418  0.00  0.00    +0.000 C 
BRANCH  14  18
ATOM     15  C   UNL     1      46.158   2.244   7.853  0.00  0.00    +0.000 A 
ATOM     16  C   UNL     1      45.283   1.673   8.786  0.00  0.00    +0.000 A 
ATOM     17  C   UNL     1      44.490   2.480   9.607  0.00  0.00    +0.000 A 
ATOM     18  C   UNL     1      44.547   3.878   9.503  0.00  0.00    +0.000 A 
ATOM     19  C   UNL     1      45.405   4.445   8.551  0.00  0.00    +0.000 A 
ATOM     20  C   UNL     1      46.197   3.637   7.730  0.00  0.00    +0.000 A 
BRANCH  15  21
ATOM     21  C   UNL     1      47.061   1.374   7.010  0.00  0.00    +0.000 C 
BRANCH  21  22
ATOM     22  C   UNL     1      48.348   2.084   6.580  0.00  0.00    +0.000 C 
BRANCH  22  23
ATOM     23  N   UNL     1      48.392   2.240   5.125  0.00  0.00    +0.000 NA
ATOM     24  H   UNL     1      48.436   1.320   4.687  0.00  0.00    +0.000 HD
ATOM     25  H   UNL     1      49.247   2.724   4.856  0.00  0.00    +0.000 HD
ENDBRANCH  22  23
ENDBRANCH  21  22
ENDBRANCH  15  21
ENDBRANCH  14  18
ENDBRANCH   1  14
TORSDOF 7
ENDMDL
MODEL 2
REMARK VINA RESULT:    -7.680      1.658      2.234
REMARK INTER + INTRA:         -10.734
REMARK INTER:                 -10.229
REMARK INTRA:                  -0.505
REMARK UNBOUND:                -0.360
REMARK  Name = 
REMARK  7 active torsions:
REMARK  status: ('A' for Active; 'I' for Inactive)
REMARK    1  A    between atoms: N_1  and  C_2
REMARK    2  A    between atoms: C_2  and  C_3
REMARK    3  A    between atoms: C_3  and  C_4
REMARK    4  A    between atoms: C_7  and  C_8
REMARK    5  A    between atoms: C_8  and  N_9
REMARK    6  A    between atoms: C_14  and  C_15
REMARK    7  A    between atoms: C_15  and  O_17
REMARK                            x       y       z     vdW  Elec       q    Type
REMARK                         _______ _______ _______ _____ _____    ______ ____
ROOT
ATOM      1  N   UNL     1      44.540   4.782  11.768  0.00  0.00    +0.000 N 
ATOM      2  C   UNL     1      44.124   4.127  12.899  0.00  0.00    +0.000 A 
ATOM      3  N   UNL     1      44.921   4.354  13.922  0.00  0.00    +0.000 NA
ATOM      4  C   UNL     1      45.889   5.192  13.434  0.00  0.00    +0.000 A 
ATOM      5  C   UNL     1      47.011   5.747  14.059  0.00  0.00    +0.000 A 
ATOM      6  C   UNL     1      47.836   6.555  13.268  0.00  0.00    +0.000 A 
ATOM      7  C   UNL     1      47.474   6.816  11.945  0.00  0.00    +0.000 A 
ATOM      8  N   UNL     1      46.386   6.307  11.301  0.00  0.00    +0.000 NA
ATOM      9  C   UNL     1      45.660   5.498  12.096  0.00  0.00    +0.000 A 
ENDROOT
BRANCH   6  10
ATOM     10  C   UNL     1      49.077   7.165  13.784  0.00  0.00    +0.000 C 
ATOM     11  O   UNL     1      49.112   7.786  14.833  0.00  0.00    +0.000 OA
BRANCH  10  12
ATOM     12  O   UNL     1      50.146   7.020  12.976  0.00  0.00    +0.000 OA
ATOM     13  H   UNL     1      50.227   7.664  12.247  0.00  0.00    +0.000 HD
ENDBRANCH  10  12
ENDBRANCH   6  10
BRANCH   1  14
ATOM     14  C   UNL     1      43.884   4.747  10.476  0.00  0.00    +0.000 C 
BRANCH  14  18
ATOM     15  C   UNL     1      46.148   2.294   7.712  0.00  0.00    +0.000 A 
ATOM     16  C   UNL     1      45.407   1.701   8.743  0.00  0.00    +0.000 A 
ATOM     17  C   UNL     1      44.663   2.487   9.629  0.00  0.00    +0.000 A 
ATOM     18  C   UNL     1      44.637   3.882   9.496  0.00  0.00    +0.000 A 
ATOM     19  C   UNL     1      45.360   4.470   8.449  0.00  0.00    +0.000 A 
ATOM     20  C   UNL     1      46.102   3.684   7.562  0.00  0.00    +0.000 A 
BRANCH  15  21
ATOM     21  C   UNL     1      47.001   1.450   6.794  0.00  0.00    +0.000 C 
BRANCH  21  22
ATOM     22  C   UNL     1      48.301   2.144   6.377  0.00  0.00    +0.000 C 
BRANCH  22  23
ATOM     23  N   UNL     1      48.258   2.518   4.962  0.00  0.00    +0.000 NA
ATOM     24  H   UNL     1      47.509   2.005   4.499  0.00  0.00    +0.000 HD
ATOM     25  H   UNL     1      49.123   2.234   4.505  0.00  0.00    +0.000 HD
ENDBRANCH  22  23
ENDBRANCH  21  22
ENDBRANCH  15  21
ENDBRANCH  14  18
ENDBRANCH   1  14
TORSDOF 7
ENDMDL
MODEL 3
REMARK VINA RESULT:    -7.346      3.578      6.878
REMARK INTER + INTRA:         -10.283
REMARK INTER:                  -9.919
REMARK INTRA:                  -0.364
REMARK UNBOUND:                -0.360
REMARK  Name = 
REMARK  7 active torsions:
REMARK  status: ('A' for Active; 'I' for Inactive)
REMARK    1  A    between atoms: N_1  and  C_2
REMARK    2  A    between atoms: C_2  and  C_3
REMARK    3  A    between atoms: C_3  and  C_4
REMARK    4  A    between atoms: C_7  and  C_8
REMARK    5  A    between atoms: C_8  and  N_9
REMARK    6  A    between atoms: C_14  and  C_15
REMARK    7  A    between atoms: C_15  and  O_17
REMARK                            x       y       z     vdW  Elec       q    Type
REMARK                         _______ _______ _______ _____ _____    ______ ____
ROOT
ATOM      1  N   UNL     1      44.147   4.097  10.193  0.00  0.00    +0.000 N 
ATOM      2  C   UNL     1      43.763   2.878  10.691  0.00  0.00    +0.000 A 
ATOM      3  N   UNL     1      44.358   1.882  10.067  0.00  0.00    +0.000 NA
ATOM      4  C   UNL     1      45.160   2.482   9.132  0.00  0.00    +0.000 A 
ATOM      5  C   UNL     1      46.006   1.924   8.167  0.00  0.00    +0.000 A 
ATOM      6  C   UNL     1      46.679   2.819   7.329  0.00  0.00    +0.000 A 
ATOM      7  C   UNL     1      46.531   4.193   7.531  0.00  0.00    +0.000 A 
ATOM      8  N   UNL     1      45.728   4.777   8.464  0.00  0.00    +0.000 NA
ATOM      9  C   UNL     1      45.068   3.868   9.206  0.00  0.00    +0.000 A 
ENDROOT
BRANCH   6  10
ATOM     10  C   UNL     1      47.566   2.369   6.238  0.00  0.00    +0.000 C 
ATOM     11  O   UNL     1      48.306   1.406   6.354  0.00  0.00    +0.000 OA
BRANCH  10  12
ATOM     12  O   UNL     1      47.522   3.138   5.132  0.00  0.00    +0.000 OA
ATOM     13  H   UNL     1      48.049   2.830   4.371  0.00  0.00    +0.000 HD
ENDBRANCH  10  12
ENDBRANCH   6  10
BRANCH   1  14
ATOM     14  C   UNL     1      43.683   5.389  10.660  0.00  0.00    +0.000 C 
BRANCH  14  18
ATOM     15  C   UNL     1      46.747   7.322  13.038  0.00  0.00    +0.000 A 
ATOM     16  C   UNL     1      45.909   8.080  12.210  0.00  0.00    +0.000 A 
ATOM     17  C   UNL     1      44.909   7.463  11.451  0.00  0.00    +0.000 A 
ATOM     18  C   UNL     1      44.720   6.075  11.513  0.00  0.00    +0.000 A 
ATOM     19  C   UNL     1      45.545   5.323  12.361  0.00  0.00    +0.000 A 
ATOM     20  C   UNL     1      46.543   5.940  13.121  0.00  0.00    +0.000 A 
BRANCH  15  21
ATOM     21  C   UNL     1      47.867   7.980  13.809  0.00  0.00    +0.000 C 
BRANCH  21  22
ATOM     22  C   UNL     1      49.230   7.326  13.563  0.00  0.00    +0.000 C 
BRANCH  22  23
ATOM     23  N   UNL     1      49.698   6.634  14.765  0.00  0.00    +0.000 NA
ATOM     24  H   UNL     1      49.185   6.980  15.575  0.00  0.00    +0.000 HD
ATOM     25  H   UNL     1      50.678   6.858  14.932  0.00  0.00    +0.000 HD
ENDBRANCH  22  23
ENDBRANCH  21  22
ENDBRANCH  15  21
ENDBRANCH  14  18
ENDBRANCH   1  14
TORSDOF 7
ENDMDL
MODEL 4
REMARK VINA RESULT:    -6.696      1.775      2.375
REMARK INTER + INTRA:          -9.404
REMARK INTER:                  -9.176
REMARK INTRA:                  -0.228
REMARK UNBOUND:                -0.360
REMARK  Name = 
REMARK  7 active torsions:
REMARK  status: ('A' for Active; 'I' for Inactive)
REMARK    1  A    between atoms: N_1  and  C_2
REMARK    2  A    between atoms: C_2  and  C_3
REMARK    3  A    between atoms: C_3  and  C_4
REMARK    4  A    between atoms: C_7  and  C_8
REMARK    5  A    between atoms: C_8  and  N_9
REMARK    6  A    between atoms: C_14  and  C_15
REMARK    7  A    between atoms: C_15  and  O_17
REMARK                            x       y       z     vdW  Elec       q    Type
REMARK                         _______ _______ _______ _____ _____    ______ ____
ROOT
ATOM      1  N   UNL     1      44.756   6.417  11.787  0.00  0.00    +0.000 N 
ATOM      2  C   UNL     1      44.391   7.696  11.450  0.00  0.00    +0.000 A 
ATOM      3  N   UNL     1      45.211   8.592  11.960  0.00  0.00    +0.000 NA
ATOM      4  C   UNL     1      46.144   7.863  12.650  0.00  0.00    +0.000 A 
ATOM      5  C   UNL     1      47.242   8.278  13.411  0.00  0.00    +0.000 A 
ATOM      6  C   UNL     1      47.998   7.273  14.024  0.00  0.00    +0.000 A 
ATOM      7  C   UNL     1      47.670   5.935  13.799  0.00  0.00    +0.000 A 
ATOM      8  N   UNL     1      46.618   5.487  13.058  0.00  0.00    +0.000 NA
ATOM      9  C   UNL     1      45.898   6.498  12.536  0.00  0.00    +0.000 A 
ENDROOT
BRANCH   6  10
ATOM     10  C   UNL     1      49.153   7.570  14.893  0.00  0.00    +0.000 C 
ATOM     11  O   UNL     1      49.489   8.711  15.166  0.00  0.00    +0.000 OA
BRANCH  10  12
ATOM     12  O   UNL     1      49.828   6.482  15.313  0.00  0.00    +0.000 OA
ATOM     13  H   UNL     1      49.908   5.750  14.673  0.00  0.00    +0.000 HD
ENDBRANCH  10  12
ENDBRANCH   6  10
BRANCH   1  14
ATOM     14  C   UNL     1      44.069   5.205  11.384  0.00  0.00    +0.000 C 
BRANCH  14  18
ATOM     15  C   UNL     1      45.828   3.422   7.847  0.00  0.00    +0.000 A 
ATOM     16  C   UNL     1      46.198   4.712   8.250  0.00  0.00    +0.000 A 
ATOM     17  C   UNL     1      45.644   5.287   9.398  0.00  0.00    +0.000 A 
ATOM     18  C   UNL     1      44.715   4.579  10.174  0.00  0.00    +0.000 A 
ATOM     19  C   UNL     1      44.367   3.279   9.781  0.00  0.00    +0.000 A 
ATOM     20  C   UNL     1      44.922   2.705   8.635  0.00  0.00    +0.000 A 
BRANCH  15  21
ATOM     21  C   UNL     1      46.379   2.826   6.573  0.00  0.00    +0.000 C 
BRANCH  21  22
ATOM     22  C   UNL     1      47.910   2.820   6.525  0.00  0.00    +0.000 C 
BRANCH  22  23
ATOM     23  N   UNL     1      48.405   1.569   5.948  0.00  0.00    +0.000 NA
ATOM     24  H   UNL     1      48.326   1.610   4.933  0.00  0.00    +0.000 HD
ATOM     25  H   UNL     1      47.815   0.794   6.249  0.00  0.00    +0.000 HD
ENDBRANCH  22  23
ENDBRANCH  21  22
ENDBRANCH  15  21
ENDBRANCH  14  18
ENDBRANCH   1  14
TORSDOF 7
ENDMDL
MODEL 5
REMARK VINA RESULT:    -5.826      4.337      6.329
REMARK INTER + INTRA:          -8.229
REMARK INTER:                  -7.682
REMARK INTRA:                  -0.548
REMARK UNBOUND:                -0.360
REMARK  Name = 
REMARK  7 active torsions:
REMARK  status: ('A' for Active; 'I' for Inactive)
REMARK    1  A    between atoms: N_1  and  C_2
REMARK    2  A    between atoms: C_2  and  C_3
REMARK    3  A    between atoms: C_3  and  C_4
REMARK    4  A    between atoms: C_7  and  C_8
REMARK    5  A    between atoms: C_8  and  N_9
REMARK    6  A    between atoms: C_14  and  C_15
REMARK    7  A    between atoms: C_15  and  O_17
REMARK                            x       y       z     vdW  Elec       q    Type
REMARK                         _______ _______ _______ _____ _____    ______ ____
ROOT
ATOM      1  N   UNL     1      47.170   6.183  13.784  0.00  0.00    +0.000 N 
ATOM      2  C   UNL     1      47.625   5.256  14.686  0.00  0.00    +0.000 A 
ATOM      3  N   UNL     1      47.130   4.058  14.454  0.00  0.00    +0.000 NA
ATOM      4  C   UNL     1      46.326   4.217  13.356  0.00  0.00    +0.000 A 
ATOM      5  C   UNL     1      45.526   3.294  12.674  0.00  0.00    +0.000 A 
ATOM      6  C   UNL     1      44.789   3.782  11.589  0.00  0.00    +0.000 A 
ATOM      7  C   UNL     1      44.934   5.116  11.206  0.00  0.00    +0.000 A 
ATOM      8  N   UNL     1      45.710   6.045  11.834  0.00  0.00    +0.000 NA
ATOM      9  C   UNL     1      46.353   5.531  12.900  0.00  0.00    +0.000 A 
ENDROOT
BRANCH   6  10
ATOM     10  C   UNL     1      43.869   2.931  10.810  0.00  0.00    +0.000 C 
ATOM     11  O   UNL     1      44.059   2.669   9.634  0.00  0.00    +0.000 OA
BRANCH  10  12
ATOM     12  O   UNL     1      42.784   2.513  11.493  0.00  0.00    +0.000 OA
ATOM     13  H   UNL     1      42.123   2.007  10.985  0.00  0.00    +0.000 HD
ENDBRANCH  10  12
ENDBRANCH   6  10
BRANCH   1  14
ATOM     14  C   UNL     1      47.526   7.589  13.757  0.00  0.00    +0.000 C 
BRANCH  14  18
ATOM     15  C   UNL     1      51.327   8.134  11.749  0.00  0.00    +0.000 A 
ATOM     16  C   UNL     1      50.172   7.845  11.013  0.00  0.00    +0.000 A 
ATOM     17  C   UNL     1      48.940   7.681  11.654  0.00  0.00    +0.000 A 
ATOM     18  C   UNL     1      48.836   7.815  13.046  0.00  0.00    +0.000 A 
ATOM     19  C   UNL     1      49.990   8.129  13.777  0.00  0.00    +0.000 A 
ATOM     20  C   UNL     1      51.221   8.293  13.135  0.00  0.00    +0.000 A 
BRANCH  15  21
ATOM     21  C   UNL     1      52.669   8.248  11.065  0.00  0.00    +0.000 C 
BRANCH  21  22
ATOM     22  C   UNL     1      52.837   7.262   9.905  0.00  0.00    +0.000 C 
BRANCH  22  23
ATOM     23  N   UNL     1      53.217   5.938  10.402  0.00  0.00    +0.000 NA
ATOM     24  H   UNL     1      54.232   5.851  10.391  0.00  0.00    +0.000 HD
ATOM     25  H   UNL     1      52.863   5.219   9.772  0.00  0.00    +0.000 HD
ENDBRANCH  22  23
ENDBRANCH  21  22
ENDBRANCH  15  21
ENDBRANCH  14  18
ENDBRANCH   1  14
TORSDOF 7
ENDMDL
MODEL 6
REMARK VINA RESULT:    -5.775      3.918      5.857
REMARK INTER + INTRA:          -8.160
REMARK INTER:                  -7.666
REMARK INTRA:                  -0.494
REMARK UNBOUND:                -0.360
REMARK  Name = 
REMARK  7 active torsions:
REMARK  status: ('A' for Active; 'I' for Inactive)
REMARK    1  A    between atoms: N_1  and  C_2
REMARK    2  A    between atoms: C_2  and  C_3
REMARK    3  A    between atoms: C_3  and  C_4
REMARK    4  A    between atoms: C_7  and  C_8
REMARK    5  A    between atoms: C_8  and  N_9
REMARK    6  A    between atoms: C_14  and  C_15
REMARK    7  A    between atoms: C_15  and  O_17
REMARK                            x       y       z     vdW  Elec       q    Type
REMARK                         _______ _______ _______ _____ _____    ______ ____
ROOT
ATOM      1  N   UNL     1      48.625   7.198  15.217  0.00  0.00    +0.000 N 
ATOM      2  C   UNL     1      48.390   8.470  15.673  0.00  0.00    +0.000 A 
ATOM      3  N   UNL     1      48.495   8.551  16.983  0.00  0.00    +0.000 NA
ATOM      4  C   UNL     1      48.815   7.282  17.389  0.00  0.00    +0.000 A 
ATOM      5  C   UNL     1      49.026   6.764  18.672  0.00  0.00    +0.000 A 
ATOM      6  C   UNL     1      49.313   5.398  18.758  0.00  0.00    +0.000 A 
ATOM      7  C   UNL     1      49.438   4.648  17.587  0.00  0.00    +0.000 A 
ATOM      8  N   UNL     1      49.252   5.114  16.320  0.00  0.00    +0.000 NA
ATOM      9  C   UNL     1      48.928   6.421  16.303  0.00  0.00    +0.000 A 
ENDROOT
BRANCH   6  10
ATOM     10  C   UNL     1      49.512   4.710  20.049  0.00  0.00    +0.000 C 
ATOM     11  O   UNL     1      50.494   4.901  20.747  0.00  0.00    +0.000 OA
BRANCH  10  12
ATOM     12  O   UNL     1      48.546   3.824  20.361  0.00  0.00    +0.000 OA
ATOM     13  H   UNL     1      47.674   3.971  19.948  0.00  0.00    +0.000 HD
ENDBRANCH  10  12
ENDBRANCH   6  10
BRANCH   1  14
ATOM     14  C   UNL     1      48.592   6.772  13.831  0.00  0.00    +0.000 C 
BRANCH  14  18
ATOM     15  C   UNL     1      44.717   5.079  12.887  0.00  0.00    +0.000 A 
ATOM     16  C   UNL     1      44.948   6.452  12.730  0.00  0.00    +0.000 A 
ATOM     17  C   UNL     1      46.200   7.002  13.020  0.00  0.00    +0.000 A 
ATOM     18  C   UNL     1      47.252   6.187  13.463  0.00  0.00    +0.000 A 
ATOM     19  C   UNL     1      47.024   4.810  13.595  0.00  0.00    +0.000 A 
ATOM     20  C   UNL     1      45.772   4.261  13.304  0.00  0.00    +0.000 A 
BRANCH  15  21
ATOM     21  C   UNL     1      43.347   4.495  12.634  0.00  0.00    +0.000 C 
BRANCH  21  22
ATOM     22  C   UNL     1      43.273   3.670  11.345  0.00  0.00    +0.000 C 
BRANCH  22  23
ATOM     23  N   UNL     1      43.022   2.260  11.646  0.00  0.00    +0.000 NA
ATOM     24  H   UNL     1      42.018   2.084  11.630  0.00  0.00    +0.000 HD
ATOM     25  H   UNL     1      43.333   2.049  12.593  0.00  0.00    +0.000 HD
ENDBRANCH  22  23
ENDBRANCH  21  22
ENDBRANCH  15  21
ENDBRANCH  14  18
ENDBRANCH   1  14
TORSDOF 7
ENDMDL
MODEL 7
REMARK VINA RESULT:    -5.731      3.128      4.034
REMARK INTER + INTRA:          -8.102
REMARK INTER:                  -7.907
REMARK INTRA:                  -0.195
REMARK UNBOUND:                -0.360
REMARK  Name = 
REMARK  7 active torsions:
REMARK  status: ('A' for Active; 'I' for Inactive)
REMARK    1  A    between atoms: N_1  and  C_2
REMARK    2  A    between atoms: C_2  and  C_3
REMARK    3  A    between atoms: C_3  and  C_4
REMARK    4  A    between atoms: C_7  and  C_8
REMARK    5  A    between atoms: C_8  and  N_9
REMARK    6  A    between atoms: C_14  and  C_15
REMARK    7  A    between atoms: C_15  and  O_17
REMARK                            x       y       z     vdW  Elec       q    Type
REMARK                         _______ _______ _______ _____ _____    ______ ____
ROOT
ATOM      1  N   UNL     1      45.689   7.460  12.595  0.00  0.00    +0.000 N 
ATOM      2  C   UNL     1      45.225   8.695  12.218  0.00  0.00    +0.000 A 
ATOM      3  N   UNL     1      46.209   9.533  11.964  0.00  0.00    +0.000 NA
ATOM      4  C   UNL     1      47.352   8.811  12.184  0.00  0.00    +0.000 A 
ATOM      5  C   UNL     1      48.697   9.188  12.095  0.00  0.00    +0.000 A 
ATOM      6  C   UNL     1      49.645   8.211  12.416  0.00  0.00    +0.000 A 
ATOM      7  C   UNL     1      49.220   6.920  12.736  0.00  0.00    +0.000 A 
ATOM      8  N   UNL     1      47.923   6.508  12.822  0.00  0.00    +0.000 NA
ATOM      9  C   UNL     1      47.056   7.503  12.554  0.00  0.00    +0.000 A 
ENDROOT
BRANCH   6  10
ATOM     10  C   UNL     1      51.096   8.484  12.411  0.00  0.00    +0.000 C 
ATOM     11  O   UNL     1      51.629   9.167  11.552  0.00  0.00    +0.000 OA
BRANCH  10  12
ATOM     12  O   UNL     1      51.780   7.875  13.400  0.00  0.00    +0.000 OA
ATOM     13  H   UNL     1      52.172   8.460  14.076  0.00  0.00    +0.000 HD
ENDBRANCH  10  12
ENDBRANCH   6  10
BRANCH   1  14
ATOM     14  C   UNL     1      44.869   6.314  12.938  0.00  0.00    +0.000 C 
BRANCH  14  18
ATOM     15  C   UNL     1      44.904   3.273   9.851  0.00  0.00    +0.000 A 
ATOM     16  C   UNL     1      45.255   4.594   9.548  0.00  0.00    +0.000 A 
ATOM     17  C   UNL     1      45.259   5.577  10.543  0.00  0.00    +0.000 A 
ATOM     18  C   UNL     1      44.922   5.255  11.866  0.00  0.00    +0.000 A 
ATOM     19  C   UNL     1      44.595   3.927  12.170  0.00  0.00    +0.000 A 
ATOM     20  C   UNL     1      44.592   2.945  11.175  0.00  0.00    +0.000 A 
BRANCH  15  21
ATOM     21  C   UNL     1      44.838   2.225   8.765  0.00  0.00    +0.000 C 
BRANCH  21  22
ATOM     22  C   UNL     1      46.179   2.009   8.057  0.00  0.00    +0.000 C 
BRANCH  22  23
ATOM     23  N   UNL     1      46.518   0.586   8.011  0.00  0.00    +0.000 NA
ATOM     24  H   UNL     1      45.935   0.121   7.317  0.00  0.00    +0.000 HD
ATOM     25  H   UNL     1      46.298   0.151   8.906  0.00  0.00    +0.000 HD
ENDBRANCH  22  23
ENDBRANCH  21  22
ENDBRANCH  15  21
ENDBRANCH  14  18
ENDBRANCH   1  14
TORSDOF 7
ENDMDL
MODEL 8
REMARK VINA RESULT:    -5.535      4.162      6.039
REMARK INTER + INTRA:          -7.837
REMARK INTER:                  -7.573
REMARK INTRA:                  -0.264
REMARK UNBOUND:                -0.360
REMARK  Name = 
REMARK  7 active torsions:
REMARK  status: ('A' for Active; 'I' for Inactive)
REMARK    1  A    between atoms: N_1  and  C_2
REMARK    2  A    between atoms: C_2  and  C_3
REMARK    3  A    between atoms: C_3  and  C_4
REMARK    4  A    between atoms: C_7  and  C_8
REMARK    5  A    between atoms: C_8  and  N_9
REMARK    6  A    between atoms: C_14  and  C_15
REMARK    7  A    between atoms: C_15  and  O_17
REMARK                            x       y       z     vdW  Elec       q    Type
REMARK                         _______ _______ _______ _____ _____    ______ ____
ROOT
ATOM      1  N   UNL     1      46.197   7.876  12.894  0.00  0.00    +0.000 N 
ATOM      2  C   UNL     1      45.463   8.696  12.076  0.00  0.00    +0.000 A 
ATOM      3  N   UNL     1      44.550   8.029  11.400  0.00  0.00    +0.000 NA
ATOM      4  C   UNL     1      44.698   6.727  11.801  0.00  0.00    +0.000 A 
ATOM      5  C   UNL     1      44.019   5.570  11.403  0.00  0.00    +0.000 A 
ATOM      6  C   UNL     1      44.431   4.367  11.986  0.00  0.00    +0.000 A 
ATOM      7  C   UNL     1      45.429   4.385  12.962  0.00  0.00    +0.000 A 
ATOM      8  N   UNL     1      46.107   5.488  13.387  0.00  0.00    +0.000 NA
ATOM      9  C   UNL     1      45.704   6.606  12.754  0.00  0.00    +0.000 A 
ENDROOT
BRANCH   6  10
ATOM     10  C   UNL     1      43.835   3.066  11.624  0.00  0.00    +0.000 C 
ATOM     11  O   UNL     1      43.626   2.743  10.467  0.00  0.00    +0.000 OA
BRANCH  10  12
ATOM     12  O   UNL     1      43.499   2.296  12.678  0.00  0.00    +0.000 OA
ATOM     13  H   UNL     1      43.581   1.332  12.551  0.00  0.00    +0.000 HD
ENDBRANCH  10  12
ENDBRANCH   6  10
BRANCH   1  14
ATOM     14  C   UNL     1      47.274   8.294  13.771  0.00  0.00    +0.000 C 
BRANCH  14  18
ATOM     15  C   UNL     1      51.103   8.104  11.751  0.00  0.00    +0.000 A 
ATOM     16  C   UNL     1      51.028   8.501  13.093  0.00  0.00    +0.000 A 
ATOM     17  C   UNL     1      49.797   8.551  13.754  0.00  0.00    +0.000 A 
ATOM     18  C   UNL     1      48.615   8.194  13.088  0.00  0.00    +0.000 A 
ATOM     19  C   UNL     1      48.697   7.774  11.754  0.00  0.00    +0.000 A 
ATOM     20  C   UNL     1      49.928   7.723  11.094  0.00  0.00    +0.000 A 
BRANCH  15  21
ATOM     21  C   UNL     1      52.424   8.110  11.019  0.00  0.00    +0.000 C 
BRANCH  21  22
ATOM     22  C   UNL     1      52.507   7.048   9.919  0.00  0.00    +0.000 C 
BRANCH  22  23
ATOM     23  N   UNL     1      53.161   5.836  10.417  0.00  0.00    +0.000 NA
ATOM     24  H   UNL     1      54.045   5.703   9.928  0.00  0.00    +0.000 HD
ATOM     25  H   UNL     1      52.589   5.022  10.198  0.00  0.00    +0.000 HD
ENDBRANCH  22  23
ENDBRANCH  21  22
ENDBRANCH  15  21
ENDBRANCH  14  18
ENDBRANCH   1  14
TORSDOF 7
ENDMDL
MODEL 9
REMARK VINA RESULT:    -5.528      4.028      8.147
REMARK INTER + INTRA:          -7.826
REMARK INTER:                  -7.337
REMARK INTRA:                  -0.490
REMARK UNBOUND:                -0.360
REMARK  Name = 
REMARK  7 active torsions:
REMARK  status: ('A' for Active; 'I' for Inactive)
REMARK    1  A    between atoms: N_1  and  C_2
REMARK    2  A    between atoms: C_2  and  C_3
REMARK    3  A    between atoms: C_3  and  C_4
REMARK    4  A    between atoms: C_7  and  C_8
REMARK    5  A    between atoms: C_8  and  N_9
REMARK    6  A    between atoms: C_14  and  C_15
REMARK    7  A    between atoms: C_15  and  O_17
REMARK                            x       y       z     vdW  Elec       q    Type
REMARK                         _______ _______ _______ _____ _____    ______ ____
ROOT
ATOM      1  N   UNL     1      47.360   6.985  13.616  0.00  0.00    +0.000 N 
ATOM      2  C   UNL     1      46.630   8.123  13.391  0.00  0.00    +0.000 A 
ATOM      3  N   UNL     1      45.432   7.854  12.912  0.00  0.00    +0.000 NA
ATOM      4  C   UNL     1      45.387   6.487  12.828  0.00  0.00    +0.000 A 
ATOM      5  C   UNL     1      44.375   5.637  12.368  0.00  0.00    +0.000 A 
ATOM      6  C   UNL     1      44.651   4.265  12.384  0.00  0.00    +0.000 A 
ATOM      7  C   UNL     1      45.865   3.816  12.906  0.00  0.00    +0.000 A 
ATOM      8  N   UNL     1      46.872   4.607  13.375  0.00  0.00    +0.000 NA
ATOM      9  C   UNL     1      46.570   5.916  13.287  0.00  0.00    +0.000 A 
ENDROOT
BRANCH   6  10
ATOM     10  C   UNL     1      43.694   3.259  11.884  0.00  0.00    +0.000 C 
ATOM     11  O   UNL     1      43.076   3.407  10.843  0.00  0.00    +0.000 OA
BRANCH  10  12
ATOM     12  O   UNL     1      43.528   2.197  12.697  0.00  0.00    +0.000 OA
ATOM     13  H   UNL     1      43.917   1.356  12.393  0.00  0.00    +0.000 HD
ENDBRANCH  10  12
ENDBRANCH   6  10
BRANCH   1  14
ATOM     14  C   UNL     1      48.711   6.932  14.142  0.00  0.00    +0.000 C 
BRANCH  14  18
ATOM     15  C   UNL     1      48.611   6.588  18.461  0.00  0.00    +0.000 A 
ATOM     16  C   UNL     1      48.581   5.441  17.657  0.00  0.00    +0.000 A 
ATOM     17  C   UNL     1      48.627   5.545  16.263  0.00  0.00    +0.000 A 
ATOM     18  C   UNL     1      48.715   6.800  15.644  0.00  0.00    +0.000 A 
ATOM     19  C   UNL     1      48.769   7.944  16.453  0.00  0.00    +0.000 A 
ATOM     20  C   UNL     1      48.724   7.839  17.845  0.00  0.00    +0.000 A 
BRANCH  15  21
ATOM     21  C   UNL     1      48.498   6.479  19.963  0.00  0.00    +0.000 C 
BRANCH  21  22
ATOM     22  C   UNL     1      48.428   5.030  20.457  0.00  0.00    +0.000 C 
BRANCH  22  23
ATOM     23  N   UNL     1      49.725   4.600  20.984  0.00  0.00    +0.000 NA
ATOM     24  H   UNL     1      50.328   5.412  21.104  0.00  0.00    +0.000 HD
ATOM     25  H   UNL     1      50.189   3.998  20.306  0.00  0.00    +0.000 HD
ENDBRANCH  22  23
ENDBRANCH  21  22
ENDBRANCH  15  21
ENDBRANCH  14  18
ENDBRANCH   1  14
TORSDOF 7
ENDMDL
