MODEL 1
REMARK VINA RESULT:    -8.014      0.000      0.000
REMARK INTER + INTRA:         -11.046
REMARK INTER:                 -10.591
REMARK INTRA:                  -0.456
REMARK UNBOUND:                -0.456
REMARK  Name = 
REMARK  6 active torsions:
REMARK  status: ('A' for Active; 'I' for Inactive)
REMARK    1  A    between atoms: N_1  and  C_2
REMARK    2  A    between atoms: C_2  and  C_3
REMARK    3  A    between atoms: C_3  and  O_4
REMARK    4  A    between atoms: O_4  and  C_5
REMARK    5  A    between atoms: N_13  and  C_14
REMARK    6  A    between atoms: C_14  and  C_15
REMARK                            x       y       z     vdW  Elec       q    Type
REMARK                         _______ _______ _______ _____ _____    ______ ____
ROOT
ATOM      1  C   UNL     1      44.697   4.633  12.663  0.00  0.00    +0.000 A 
ATOM      2  N   UNL     1      43.854   3.623  13.001  0.00  0.00    +0.000 NA
ATOM      3  C   UNL     1      43.416   2.810  12.019  0.00  0.00    +0.000 A 
ATOM      4  N   UNL     1      43.698   2.866  10.700  0.00  0.00    +0.000 NA
ATOM      5  C   UNL     1      44.530   3.886  10.426  0.00  0.00    +0.000 A 
ATOM      6  C   UNL     1      45.064   4.800  11.323  0.00  0.00    +0.000 A 
ATOM      7  N   UNL     1      45.869   5.710  10.663  0.00  0.00    +0.000 NA
ATOM      8  C   UNL     1      45.834   5.344   9.400  0.00  0.00    +0.000 A 
ATOM      9  N   UNL     1      45.032   4.251   9.206  0.00  0.00    +0.000 N 
ENDROOT
BRANCH   1  10
ATOM     10  O   UNL     1      45.118   5.523  13.632  0.00  0.00    +0.000 OA
BRANCH  10  11
ATOM     11  C   UNL     1      46.530   5.439  13.857  0.00  0.00    +0.000 C 
BRANCH  11  12
ATOM     12  C   UNL     1      46.803   4.385  14.938  0.00  0.00    +0.000 C 
BRANCH  12  13
ATOM     13  N   UNL     1      47.501   3.211  14.410  0.00  0.00    +0.000 NA
ATOM     14  H   UNL     1      46.994   2.851  13.604  0.00  0.00    +0.000 HD
ATOM     15  H   UNL     1      47.467   2.477  15.121  0.00  0.00    +0.000 HD
ENDBRANCH  12  13
ENDBRANCH  11  12
ENDBRANCH  10  11
ENDBRANCH   1  10
BRANCH   9  16
ATOM     16  C   UNL     1      44.709   3.655   7.922  0.00  0.00    +0.000 C 
BRANCH  16  17
ATOM     17  C   UNL     1      45.852   2.846   7.365  0.00  0.00    +0.000 A 
ATOM     18  C   UNL     1      46.257   1.653   7.975  0.00  0.00    +0.000 A 
ATOM     19  C   UNL     1      47.325   0.953   7.435  0.00  0.00    +0.000 A 
ATOM     20  N   UNL     1      47.996   1.343   6.332  0.00  0.00    +0.000 NA
ATOM     21  C   UNL     1      47.580   2.482   5.741  0.00  0.00    +0.000 A 
ATOM     22  C   UNL     1      46.529   3.257   6.211  0.00  0.00    +0.000 A 
ENDBRANCH  16  17
ENDBRANCH   9  16
TORSDOF 6
ENDMDL
MODEL 2
REMARK VINA RESULT:    -7.596      1.351      2.491
REMARK INTER + INTRA:         -10.494
REMARK INTER:                 -10.133
REMARK INTRA:                  -0.361
REMARK UNBOUND:                -0.456
REMARK  Name = 
REMARK  6 active torsions:
REMARK  status: ('A' for Active; 'I' for Inactive)
REMARK    1  A    between atoms: N_1  and  C_2
REMARK    2  A    between atoms: C_2  and  C_3
REMARK    3  A    between atoms: C_3  and  O_4
REMARK    4  A    between atoms: O_4  and  C_5
REMARK    5  A    between atoms: N_13  and  C_14
REMARK    6  A    between atoms: C_14  and  C_15
REMARK                            x       y       z     vdW  Elec       q    Type
REMARK                         _______ _______ _______ _____ _____    ______ ____
ROOT
ATOM      1  C   UNL     1      45.864   4.961  13.301  0.00  0.00    +0.000 A 
ATOM      2  N   UNL     1      46.559   6.074  12.951  0.00  0.00    +0.000 NA
ATOM      3  C   UNL     1      46.607   6.404  11.645  0.00  0.00    +0.000 A 
ATOM      4  N   UNL     1      46.052   5.757  10.598  0.00  0.00    +0.000 NA
ATOM      5  C   UNL     1      45.382   4.664  11.006  0.00  0.00    +0.000 A 
ATOM      6  C   UNL     1      45.242   4.199  12.305  0.00  0.00    +0.000 A 
ATOM      7  N   UNL     1      44.492   3.038  12.324  0.00  0.00    +0.000 NA
ATOM      8  C   UNL     1      44.175   2.817  11.067  0.00  0.00    +0.000 A 
ATOM      9  N   UNL     1      44.695   3.768  10.231  0.00  0.00    +0.000 N 
ENDROOT
BRANCH   1  10
ATOM     10  O   UNL     1      45.843   4.557  14.622  0.00  0.00    +0.000 OA
BRANCH  10  11
ATOM     11  C   UNL     1      47.111   4.037  15.040  0.00  0.00    +0.000 C 
BRANCH  11  12
ATOM     12  C   UNL     1      47.279   4.275  16.546  0.00  0.00    +0.000 C 
BRANCH  12  13
ATOM     13  N   UNL     1      46.650   3.225  17.351  0.00  0.00    +0.000 NA
ATOM     14  H   UNL     1      45.646   3.387  17.392  0.00  0.00    +0.000 HD
ATOM     15  H   UNL     1      46.994   3.313  18.310  0.00  0.00    +0.000 HD
ENDBRANCH  12  13
ENDBRANCH  11  12
ENDBRANCH  10  11
ENDBRANCH   1  10
BRANCH   9  16
ATOM     16  C   UNL     1      44.607   3.764   8.782  0.00  0.00    +0.000 C 
BRANCH  16  17
ATOM     17  C   UNL     1      45.691   2.932   8.147  0.00  0.00    +0.000 A 
ATOM     18  C   UNL     1      46.647   3.514   7.306  0.00  0.00    +0.000 A 
ATOM     19  C   UNL     1      47.615   2.705   6.731  0.00  0.00    +0.000 A 
ATOM     20  N   UNL     1      47.709   1.377   6.950  0.00  0.00    +0.000 NA
ATOM     21  C   UNL     1      46.795   0.834   7.780  0.00  0.00    +0.000 A 
ATOM     22  C   UNL     1      45.783   1.558   8.395  0.00  0.00    +0.000 A 
ENDBRANCH  16  17
ENDBRANCH   9  16
TORSDOF 6
ENDMDL
MODEL 3
REMARK VINA RESULT:    -6.937      1.396      1.815
REMARK INTER + INTRA:          -9.623
REMARK INTER:                  -9.124
REMARK INTRA:                  -0.500
REMARK UNBOUND:                -0.456
REMARK  Name = 
REMARK  6 active torsions:
REMARK  status: ('A' for Active; 'I' for Inactive)
REMARK    1  A    between atoms: N_1  and  C_2
REMARK    2  A    between atoms: C_2  and  C_3
REMARK    3  A    between atoms: C_3  and  O_4
REMARK    4  A    between atoms: O_4  and  C_5
REMARK    5  A    between atoms: N_13  and  C_14
REMARK    6  A    between atoms: C_14  and  C_15
REMARK                            x       y       z     vdW  Elec       q    Type
REMARK                         _______ _______ _______ _____ _____    ______ ____
ROOT
ATOM      1  C   UNL     1      44.771   5.443  12.485  0.00  0.00    +0.000 A 
ATOM      2  N   UNL     1      43.791   4.635  12.966  0.00  0.00    +0.000 NA
ATOM      3  C   UNL     1      43.254   3.725  12.128  0.00  0.00    +0.000 A 
ATOM      4  N   UNL     1      43.555   3.504  10.831  0.00  0.00    +0.000 NA
ATOM      5  C   UNL     1      44.526   4.334  10.412  0.00  0.00    +0.000 A 
ATOM      6  C   UNL     1      45.173   5.314  11.151  0.00  0.00    +0.000 A 
ATOM      7  N   UNL     1      46.104   5.972  10.370  0.00  0.00    +0.000 NA
ATOM      8  C   UNL     1      46.032   5.392   9.191  0.00  0.00    +0.000 A 
ATOM      9  N   UNL     1      45.087   4.401   9.165  0.00  0.00    +0.000 N 
ENDROOT
BRANCH   1  10
ATOM     10  O   UNL     1      45.302   6.428  13.296  0.00  0.00    +0.000 OA
BRANCH  10  11
ATOM     11  C   UNL     1      45.116   7.735  12.739  0.00  0.00    +0.000 C 
BRANCH  11  12
ATOM     12  C   UNL     1      46.366   8.580  13.015  0.00  0.00    +0.000 C 
BRANCH  12  13
ATOM     13  N   UNL     1      47.460   8.275  12.091  0.00  0.00    +0.000 NA
ATOM     14  H   UNL     1      47.975   7.467  12.432  0.00  0.00    +0.000 HD
ATOM     15  H   UNL     1      48.115   9.061  12.108  0.00  0.00    +0.000 HD
ENDBRANCH  12  13
ENDBRANCH  11  12
ENDBRANCH  10  11
ENDBRANCH   1  10
BRANCH   9  16
ATOM     16  C   UNL     1      44.697   3.633   7.996  0.00  0.00    +0.000 C 
BRANCH  16  17
ATOM     17  C   UNL     1      45.841   2.825   7.438  0.00  0.00    +0.000 A 
ATOM     18  C   UNL     1      46.239   1.627   8.041  0.00  0.00    +0.000 A 
ATOM     19  C   UNL     1      47.308   0.927   7.501  0.00  0.00    +0.000 A 
ATOM     20  N   UNL     1      47.984   1.323   6.403  0.00  0.00    +0.000 NA
ATOM     21  C   UNL     1      47.575   2.468   5.818  0.00  0.00    +0.000 A 
ATOM     22  C   UNL     1      46.524   3.243   6.290  0.00  0.00    +0.000 A 
ENDBRANCH  16  17
ENDBRANCH   9  16
TORSDOF 6
ENDMDL
MODEL 4
REMARK VINA RESULT:    -6.547      2.307      3.262
REMARK INTER + INTRA:          -9.108
REMARK INTER:                  -8.410
REMARK INTRA:                  -0.698
REMARK UNBOUND:                -0.456
REMARK  Name = 
REMARK  6 active torsions:
REMARK  status: ('A' for Active; 'I' for Inactive)
REMARK    1  A    between atoms: N_1  and  C_2
REMARK    2  A    between atoms: C_2  and  C_3
REMARK    3  A    between atoms: C_3  and  O_4
REMARK    4  A    between atoms: O_4  and  C_5
REMARK    5  A    between atoms: N_13  and  C_14
REMARK    6  A    between atoms: C_14  and  C_15
REMARK                            x       y       z     vdW  Elec       q    Type
REMARK                         _______ _______ _______ _____ _____    ______ ____
ROOT
ATOM      1  C   UNL     1      46.971   6.173  13.505  0.00  0.00    +0.000 A 
ATOM      2  N   UNL     1      46.839   7.373  12.884  0.00  0.00    +0.000 NA
ATOM      3  C   UNL     1      46.074   7.430  11.775  0.00  0.00    +0.000 A 
ATOM      4  N   UNL     1      45.406   6.426  11.168  0.00  0.00    +0.000 NA
ATOM      5  C   UNL     1      45.578   5.265  11.825  0.00  0.00    +0.000 A 
ATOM      6  C   UNL     1      46.328   5.050  12.972  0.00  0.00    +0.000 A 
ATOM      7  N   UNL     1      46.272   3.720  13.342  0.00  0.00    +0.000 NA
ATOM      8  C   UNL     1      45.494   3.149  12.449  0.00  0.00    +0.000 A 
ATOM      9  N   UNL     1      45.055   4.041  11.507  0.00  0.00    +0.000 N 
ENDROOT
BRANCH   1  10
ATOM     10  O   UNL     1      47.796   6.063  14.608  0.00  0.00    +0.000 OA
BRANCH  10  11
ATOM     11  C   UNL     1      48.840   7.044  14.593  0.00  0.00    +0.000 C 
BRANCH  11  12
ATOM     12  C   UNL     1      48.658   7.990  15.786  0.00  0.00    +0.000 C 
BRANCH  12  13
ATOM     13  N   UNL     1      47.706   9.067  15.504  0.00  0.00    +0.000 NA
ATOM     14  H   UNL     1      46.778   8.788  15.814  0.00  0.00    +0.000 HD
ATOM     15  H   UNL     1      47.648   9.179  14.489  0.00  0.00    +0.000 HD
ENDBRANCH  12  13
ENDBRANCH  11  12
ENDBRANCH  10  11
ENDBRANCH   1  10
BRANCH   9  16
ATOM     16  C   UNL     1      44.259   3.715  10.338  0.00  0.00    +0.000 C 
BRANCH  16  17
ATOM     17  C   UNL     1      45.103   3.215   9.194  0.00  0.00    +0.000 A 
ATOM     18  C   UNL     1      45.356   1.848   9.027  0.00  0.00    +0.000 A 
ATOM     19  C   UNL     1      46.153   1.438   7.970  0.00  0.00    +0.000 A 
ATOM     20  N   UNL     1      46.691   2.282   7.065  0.00  0.00    +0.000 NA
ATOM     21  C   UNL     1      46.421   3.594   7.224  0.00  0.00    +0.000 A 
ATOM     22  C   UNL     1      45.643   4.103   8.256  0.00  0.00    +0.000 A 
ENDBRANCH  16  17
ENDBRANCH   9  16
TORSDOF 6
ENDMDL
MODEL 5
REMARK VINA RESULT:    -6.398      1.986      6.001
REMARK INTER + INTRA:          -8.911
REMARK INTER:                  -8.371
REMARK INTRA:                  -0.539
REMARK UNBOUND:                -0.456
REMARK  Name = 
REMARK  6 active torsions:
REMARK  status: ('A' for Active; 'I' for Inactive)
REMARK    1  A    between atoms: N_1  and  C_2
REMARK    2  A    between atoms: C_2  and  C_3
REMARK    3  A    between atoms: C_3  and  O_4
REMARK    4  A    between atoms: O_4  and  C_5
REMARK    5  A    between atoms: N_13  and  C_14
REMARK    6  A    between atoms: C_14  and  C_15
REMARK                            x       y       z     vdW  Elec       q    Type
REMARK                         _______ _______ _______ _____ _____    ______ ____
ROOT
ATOM      1  C   UNL     1      44.947   2.858   8.764  0.00  0.00    +0.000 A 
ATOM      2  N   UNL     1      44.195   1.995   9.494  0.00  0.00    +0.000 NA
ATOM      3  C   UNL     1      43.778   2.396  10.713  0.00  0.00    +0.000 A 
ATOM      4  N   UNL     1      44.019   3.570  11.334  0.00  0.00    +0.000 NA
ATOM      5  C   UNL     1      44.770   4.379  10.565  0.00  0.00    +0.000 A 
ATOM      6  C   UNL     1      45.270   4.110   9.299  0.00  0.00    +0.000 A 
ATOM      7  N   UNL     1      46.007   5.183   8.834  0.00  0.00    +0.000 NA
ATOM      8  C   UNL     1      45.941   6.083   9.791  0.00  0.00    +0.000 A 
ATOM      9  N   UNL     1      45.210   5.641  10.861  0.00  0.00    +0.000 N 
ENDROOT
BRANCH   1  10
ATOM     10  O   UNL     1      45.444   2.459   7.537  0.00  0.00    +0.000 OA
BRANCH  10  11
ATOM     11  C   UNL     1      46.700   1.782   7.666  0.00  0.00    +0.000 C 
BRANCH  11  12
ATOM     12  C   UNL     1      47.769   2.556   6.883  0.00  0.00    +0.000 C 
BRANCH  12  13
ATOM     13  N   UNL     1      48.440   1.723   5.883  0.00  0.00    +0.000 NA
ATOM     14  H   UNL     1      48.882   0.931   6.344  0.00  0.00    +0.000 HD
ATOM     15  H   UNL     1      49.197   2.274   5.470  0.00  0.00    +0.000 HD
ENDBRANCH  12  13
ENDBRANCH  11  12
ENDBRANCH  10  11
ENDBRANCH   1  10
BRANCH   9  16
ATOM     16  C   UNL     1      45.022   6.354  12.111  0.00  0.00    +0.000 C 
BRANCH  16  17
ATOM     17  C   UNL     1      46.109   6.049  13.110  0.00  0.00    +0.000 A 
ATOM     18  C   UNL     1      46.075   4.879  13.879  0.00  0.00    +0.000 A 
ATOM     19  C   UNL     1      47.089   4.650  14.796  0.00  0.00    +0.000 A 
ATOM     20  N   UNL     1      48.132   5.484  14.984  0.00  0.00    +0.000 NA
ATOM     21  C   UNL     1      48.165   6.596  14.221  0.00  0.00    +0.000 A 
ATOM     22  C   UNL     1      47.193   6.917  13.283  0.00  0.00    +0.000 A 
ENDBRANCH  16  17
ENDBRANCH   9  16
TORSDOF 6
ENDMDL
MODEL 6
REMARK VINA RESULT:    -6.055      2.382      4.217
REMARK INTER + INTRA:          -8.457
REMARK INTER:                  -7.603
REMARK INTRA:                  -0.855
REMARK UNBOUND:                -0.456
REMARK  Name = 
REMARK  6 active torsions:
REMARK  status: ('A' for Active; 'I' for Inactive)
REMARK    1  A    between atoms: N_1  and  C_2
REMARK    2  A    between atoms: C_2  and  C_3
REMARK    3  A    between atoms: C_3  and  O_4
REMARK    4  A    between atoms: O_4  and  C_5
REMARK    5  A    between atoms: N_13  and  C_14
REMARK    6  A    between atoms: C_14  and  C_15
REMARK                            x       y       z     vdW  Elec       q    Type
REMARK                         _______ _______ _______ _____ _____    ______ ____
ROOT
ATOM      1  C   UNL     1      48.108   6.897  13.979  0.00  0.00    +0.000 A 
ATOM      2  N   UNL     1      47.816   8.149  13.540  0.00  0.00    +0.000 NA
ATOM      3  C   UNL     1      46.713   8.311  12.782  0.00  0.00    +0.000 A 
ATOM      4  N   UNL     1      45.834   7.372  12.374  0.00  0.00    +0.000 NA
ATOM      5  C   UNL     1      46.177   6.156  12.834  0.00  0.00    +0.000 A 
ATOM      6  C   UNL     1      47.273   5.833  13.621  0.00  0.00    +0.000 A 
ATOM      7  N   UNL     1      47.296   4.475  13.882  0.00  0.00    +0.000 NA
ATOM      8  C   UNL     1      46.230   3.994  13.280  0.00  0.00    +0.000 A 
ATOM      9  N   UNL     1      45.525   4.970  12.627  0.00  0.00    +0.000 N 
ENDROOT
BRANCH   1  10
ATOM     10  O   UNL     1      49.263   6.681  14.706  0.00  0.00    +0.000 OA
BRANCH  10  11
ATOM     11  C   UNL     1      49.052   6.870  16.110  0.00  0.00    +0.000 C 
BRANCH  11  12
ATOM     12  C   UNL     1      49.628   5.668  16.870  0.00  0.00    +0.000 C 
BRANCH  12  13
ATOM     13  N   UNL     1      48.866   4.440  16.632  0.00  0.00    +0.000 NA
ATOM     14  H   UNL     1      48.073   4.406  17.268  0.00  0.00    +0.000 HD
ATOM     15  H   UNL     1      49.463   3.646  16.874  0.00  0.00    +0.000 HD
ENDBRANCH  12  13
ENDBRANCH  11  12
ENDBRANCH  10  11
ENDBRANCH   1  10
BRANCH   9  16
ATOM     16  C   UNL     1      44.356   4.757  11.794  0.00  0.00    +0.000 C 
BRANCH  16  17
ATOM     17  C   UNL     1      44.705   4.119  10.474  0.00  0.00    +0.000 A 
ATOM     18  C   UNL     1      45.368   4.842   9.476  0.00  0.00    +0.000 A 
ATOM     19  C   UNL     1      45.652   4.218   8.272  0.00  0.00    +0.000 A 
ATOM     20  N   UNL     1      45.345   2.932   8.003  0.00  0.00    +0.000 NA
ATOM     21  C   UNL     1      44.727   2.239   8.982  0.00  0.00    +0.000 A 
ATOM     22  C   UNL     1      44.391   2.779  10.217  0.00  0.00    +0.000 A 
ENDBRANCH  16  17
ENDBRANCH   9  16
TORSDOF 6
ENDMDL
MODEL 7
REMARK VINA RESULT:    -5.979      3.159      6.055
REMARK INTER + INTRA:          -8.357
REMARK INTER:                  -7.516
REMARK INTRA:                  -0.841
REMARK UNBOUND:                -0.456
REMARK  Name = 
REMARK  6 active torsions:
REMARK  status: ('A' for Active; 'I' for Inactive)
REMARK    1  A    between atoms: N_1  and  C_2
REMARK    2  A    between atoms: C_2  and  C_3
REMARK    3  A    between atoms: C_3  and  O_4
REMARK    4  A    between atoms: O_4  and  C_5
REMARK    5  A    between atoms: N_13  and  C_14
REMARK    6  A    between atoms: C_14  and  C_15
REMARK                            x       y       z     vdW  Elec       q    Type
REMARK                         _______ _______ _______ _____ _____    ______ ____
ROOT
ATOM      1  C   UNL     1      45.092   3.896  12.012  0.00  0.00    +0.000 A 
ATOM      2  N   UNL     1      45.812   3.101  12.846  0.00  0.00    +0.000 NA
ATOM      3  C   UNL     1      46.686   3.693  13.685  0.00  0.00    +0.000 A 
ATOM      4  N   UNL     1      46.964   5.007  13.810  0.00  0.00    +0.000 NA
ATOM      5  C   UNL     1      46.227   5.741  12.958  0.00  0.00    +0.000 A 
ATOM      6  C   UNL     1      45.291   5.280  12.043  0.00  0.00    +0.000 A 
ATOM      7  N   UNL     1      44.747   6.336  11.337  0.00  0.00    +0.000 NA
ATOM      8  C   UNL     1      45.329   7.410  11.825  0.00  0.00    +0.000 A 
ATOM      9  N   UNL     1      46.237   7.101  12.803  0.00  0.00    +0.000 N 
ENDROOT
BRANCH   1  10
ATOM     10  O   UNL     1      44.232   3.321  11.096  0.00  0.00    +0.000 OA
BRANCH  10  11
ATOM     11  C   UNL     1      44.917   2.907   9.908  0.00  0.00    +0.000 C 
BRANCH  11  12
ATOM     12  C   UNL     1      44.516   3.830   8.751  0.00  0.00    +0.000 C 
BRANCH  12  13
ATOM     13  N   UNL     1      45.512   4.874   8.499  0.00  0.00    +0.000 NA
ATOM     14  H   UNL     1      46.442   4.509   8.696  0.00  0.00    +0.000 HD
ATOM     15  H   UNL     1      45.353   5.630   9.168  0.00  0.00    +0.000 HD
ENDBRANCH  12  13
ENDBRANCH  11  12
ENDBRANCH  10  11
ENDBRANCH   1  10
BRANCH   9  16
ATOM     16  C   UNL     1      47.110   8.045  13.476  0.00  0.00    +0.000 C 
BRANCH  16  17
ATOM     17  C   UNL     1      48.311   8.407  12.641  0.00  0.00    +0.000 A 
ATOM     18  C   UNL     1      49.295   7.457  12.342  0.00  0.00    +0.000 A 
ATOM     19  C   UNL     1      50.390   7.842  11.584  0.00  0.00    +0.000 A 
ATOM     20  N   UNL     1      50.561   9.086  11.091  0.00  0.00    +0.000 NA
ATOM     21  C   UNL     1      49.594   9.985  11.367  0.00  0.00    +0.000 A 
ATOM     22  C   UNL     1      48.467   9.699  12.125  0.00  0.00    +0.000 A 
ENDBRANCH  16  17
ENDBRANCH   9  16
TORSDOF 6
ENDMDL
MODEL 8
REMARK VINA RESULT:    -5.850      2.180      6.346
REMARK INTER + INTRA:          -8.186
REMARK INTER:                  -7.819
REMARK INTRA:                  -0.367
REMARK UNBOUND:                -0.456
REMARK  Name = 
REMARK  6 active torsions:
REMARK  status: ('A' for Active; 'I' for Inactive)
REMARK    1  A    between atoms: N_1  and  C_2
REMARK    2  A    between atoms: C_2  and  C_3
REMARK    3  A    between atoms: C_3  and  O_4
REMARK    4  A    between atoms: O_4  and  C_5
REMARK    5  A    between atoms: N_13  and  C_14
REMARK    6  A    between atoms: C_14  and  C_15
REMARK                            x       y       z     vdW  Elec       q    Type
REMARK                         _______ _______ _______ _____ _____    ______ ____
ROOT
ATOM      1  C   UNL     1      45.300   3.036   8.606  0.00  0.00    +0.000 A 
ATOM      2  N   UNL     1      46.046   4.006   8.017  0.00  0.00    +0.000 NA
ATOM      3  C   UNL     1      46.135   5.199   8.640  0.00  0.00    +0.000 A 
ATOM      4  N   UNL     1      45.561   5.581   9.800  0.00  0.00    +0.000 NA
ATOM      5  C   UNL     1      44.834   4.583  10.332  0.00  0.00    +0.000 A 
ATOM      6  C   UNL     1      44.649   3.309   9.814  0.00  0.00    +0.000 A 
ATOM      7  N   UNL     1      43.827   2.567  10.641  0.00  0.00    +0.000 NA
ATOM      8  C   UNL     1      43.535   3.369  11.642  0.00  0.00    +0.000 A 
ATOM      9  N   UNL     1      44.114   4.601  11.496  0.00  0.00    +0.000 N 
ENDROOT
BRANCH   1  10
ATOM     10  O   UNL     1      45.135   1.821   7.968  0.00  0.00    +0.000 OA
BRANCH  10  11
ATOM     11  C   UNL     1      46.312   1.009   8.054  0.00  0.00    +0.000 C 
BRANCH  11  12
ATOM     12  C   UNL     1      47.052   1.055   6.711  0.00  0.00    +0.000 C 
BRANCH  12  13
ATOM     13  N   UNL     1      48.310   1.800   6.793  0.00  0.00    +0.000 NA
ATOM     14  H   UNL     1      48.616   2.051   5.855  0.00  0.00    +0.000 HD
ATOM     15  H   UNL     1      49.025   1.173   7.169  0.00  0.00    +0.000 HD
ENDBRANCH  12  13
ENDBRANCH  11  12
ENDBRANCH  10  11
ENDBRANCH   1  10
BRANCH   9  16
ATOM     16  C   UNL     1      43.918   5.740  12.375  0.00  0.00    +0.000 C 
BRANCH  16  17
ATOM     17  C   UNL     1      45.222   6.311  12.869  0.00  0.00    +0.000 A 
ATOM     18  C   UNL     1      45.476   7.686  12.809  0.00  0.00    +0.000 A 
ATOM     19  C   UNL     1      46.697   8.163  13.259  0.00  0.00    +0.000 A 
ATOM     20  N   UNL     1      47.663   7.377  13.778  0.00  0.00    +0.000 NA
ATOM     21  C   UNL     1      47.397   6.057  13.851  0.00  0.00    +0.000 A 
ATOM     22  C   UNL     1      46.209   5.484  13.418  0.00  0.00    +0.000 A 
ENDBRANCH  16  17
ENDBRANCH   9  16
TORSDOF 6
ENDMDL
MODEL 9
REMARK VINA RESULT:    -5.691      3.113      6.385
REMARK INTER + INTRA:          -7.976
REMARK INTER:                  -7.361
REMARK INTRA:                  -0.615
REMARK UNBOUND:                -0.456
REMARK  Name = 
REMARK  6 active torsions:
REMARK  status: ('A' for Active; 'I' for Inactive)
REMARK    1  A    between atoms: N_1  and  C_2
REMARK    2  A    between atoms: C_2  and  C_3
REMARK    3  A    between atoms: C_3  and  O_4
REMARK    4  A    between atoms: O_4  and  C_5
REMARK    5  A    between atoms: N_13  and  C_14
REMARK    6  A    between atoms: C_14  and  C_15
REMARK                            x       y       z     vdW  Elec       q    Type
REMARK                         _______ _______ _______ _____ _____    ______ ____
ROOT
ATOM      1  C   UNL     1      44.716   3.078   9.169  0.00  0.00    +0.000 A 
ATOM      2  N   UNL     1      43.922   2.351   9.998  0.00  0.00    +0.000 NA
ATOM      3  C   UNL     1      43.632   2.870  11.208  0.00  0.00    +0.000 A 
ATOM      4  N   UNL     1      44.041   4.043  11.735  0.00  0.00    +0.000 NA
ATOM      5  C   UNL     1      44.825   4.713  10.872  0.00  0.00    +0.000 A 
ATOM      6  C   UNL     1      45.209   4.314   9.600  0.00  0.00    +0.000 A 
ATOM      7  N   UNL     1      46.028   5.266   9.023  0.00  0.00    +0.000 NA
ATOM      8  C   UNL     1      46.124   6.223   9.919  0.00  0.00    +0.000 A 
ATOM      9  N   UNL     1      45.420   5.932  11.057  0.00  0.00    +0.000 N 
ENDROOT
BRANCH   1  10
ATOM     10  O   UNL     1      45.085   2.552   7.945  0.00  0.00    +0.000 OA
BRANCH  10  11
ATOM     11  C   UNL     1      46.347   1.878   8.013  0.00  0.00    +0.000 C 
BRANCH  11  12
ATOM     12  C   UNL     1      47.303   2.500   6.988  0.00  0.00    +0.000 C 
BRANCH  12  13
ATOM     13  N   UNL     1      46.803   3.770   6.457  0.00  0.00    +0.000 NA
ATOM     14  H   UNL     1      47.540   4.227   5.924  0.00  0.00    +0.000 HD
ATOM     15  H   UNL     1      46.597   4.384   7.248  0.00  0.00    +0.000 HD
ENDBRANCH  12  13
ENDBRANCH  11  12
ENDBRANCH  10  11
ENDBRANCH   1  10
BRANCH   9  16
ATOM     16  C   UNL     1      45.394   6.735  12.266  0.00  0.00    +0.000 C 
BRANCH  16  17
ATOM     17  C   UNL     1      45.362   8.212  11.969  0.00  0.00    +0.000 A 
ATOM     18  C   UNL     1      44.276   8.789  11.300  0.00  0.00    +0.000 A 
ATOM     19  C   UNL     1      44.299  10.150  11.034  0.00  0.00    +0.000 A 
ATOM     20  N   UNL     1      45.305  10.969  11.403  0.00  0.00    +0.000 NA
ATOM     21  C   UNL     1      46.335  10.403  12.066  0.00  0.00    +0.000 A 
ATOM     22  C   UNL     1      46.408   9.050  12.370  0.00  0.00    +0.000 A 
ENDBRANCH  16  17
ENDBRANCH   9  16
TORSDOF 6
ENDMDL
