MODEL 1
REMARK VINA RESULT:    -7.945      0.000      0.000
REMARK INTER + INTRA:         -11.691
REMARK INTER:                 -10.731
REMARK INTRA:                  -0.960
REMARK UNBOUND:                -0.960
REMARK  Name = 
REMARK  7 active torsions:
REMARK  status: ('A' for Active; 'I' for Inactive)
REMARK    1  A    between atoms: C_1  and  C_2
REMARK    2  A    between atoms: C_2  and  N_3
REMARK    3  A    between atoms: C_2  and  C_16
REMARK    4  A    between atoms: C_4  and  C_6
REMARK    5  A    between atoms: C_19  and  C_20
REMARK    6  A    between atoms: C_20  and  N_21
REMARK    7  A    between atoms: C_22  and  C_24
REMARK                            x       y       z     vdW  Elec       q    Type
REMARK                         _______ _______ _______ _____ _____    ______ ____
ROOT
ATOM      1  C   UNL     1      47.524   8.996  13.417  0.00  0.00    +0.000 C 
ATOM      2  C   UNL     1      47.931   7.588  13.872  0.00  0.00    +0.000 C 
ENDROOT
BRANCH   2   3
ATOM      3  C   UNL     1      46.996   6.562  13.236  0.00  0.00    +0.000 A 
ATOM      4  C   UNL     1      46.821   5.313  13.851  0.00  0.00    +0.000 A 
ATOM      5  C   UNL     1      46.018   4.321  13.270  0.00  0.00    +0.000 A 
ATOM      6  C   UNL     1      45.373   4.549  12.047  0.00  0.00    +0.000 A 
ATOM      7  C   UNL     1      45.533   5.800  11.437  0.00  0.00    +0.000 A 
ATOM      8  C   UNL     1      46.347   6.787  12.011  0.00  0.00    +0.000 A 
BRANCH   6   9
ATOM      9  C   UNL     1      44.551   3.473  11.376  0.00  0.00    +0.000 C 
BRANCH   9  10
ATOM     10  N   UNL     1      45.248   2.828  10.294  0.00  0.00    +0.000 N 
ATOM     11  C   UNL     1      45.107   3.257   8.993  0.00  0.00    +0.000 C 
ATOM     12  O   UNL     1      44.365   4.179   8.673  0.00  0.00    +0.000 OA
ATOM     13  H   UNL     1      45.952   2.143  10.516  0.00  0.00    +0.000 HD
BRANCH  11  14
ATOM     14  C   UNL     1      45.907   2.532   8.021  0.00  0.00    +0.000 A 
ATOM     15  C   UNL     1      46.472   2.923   6.818  0.00  0.00    +0.000 A 
ATOM     16  C   UNL     1      47.157   1.813   6.266  0.00  0.00    +0.000 A 
ATOM     17  C   UNL     1      47.002   0.764   7.139  0.00  0.00    +0.000 A 
ATOM     18  N   UNL     1      46.256   1.206   8.202  0.00  0.00    +0.000 N 
ATOM     19  H   UNL     1      45.989   0.655   9.009  0.00  0.00    +0.000 HD
ENDBRANCH  11  14
ENDBRANCH   9  10
ENDBRANCH   6   9
ENDBRANCH   2   3
BRANCH   2  20
ATOM     20  N   UNL     1      47.971   7.466  15.324  0.00  0.00    +0.000 N 
ATOM     21  C   UNL     1      49.072   6.964  15.980  0.00  0.00    +0.000 C 
ATOM     22  O   UNL     1      50.093   6.617  15.392  0.00  0.00    +0.000 OA
ATOM     23  H   UNL     1      47.074   7.374  15.792  0.00  0.00    +0.000 HD
BRANCH  21  24
ATOM     24  C   UNL     1      49.001   6.912  17.442  0.00  0.00    +0.000 A 
ATOM     25  C   UNL     1      49.195   8.073  18.178  0.00  0.00    +0.000 A 
ATOM     26  S   UNL     1      49.125   7.831  19.865  0.00  0.00    +0.000 S 
ATOM     27  C   UNL     1      48.867   6.161  19.668  0.00  0.00    +0.000 A 
ATOM     28  N   UNL     1      48.778   5.334  20.743  0.00  0.00    +0.000 NA
ATOM     29  C   UNL     1      48.615   4.089  20.443  0.00  0.00    +0.000 A 
ATOM     30  N   UNL     1      48.508   3.597  19.167  0.00  0.00    +0.000 N 
ATOM     31  C   UNL     1      48.540   4.402  18.053  0.00  0.00    +0.000 A 
ATOM     32  O   UNL     1      48.350   3.951  16.928  0.00  0.00    +0.000 OA
ATOM     33  C   UNL     1      48.781   5.803  18.333  0.00  0.00    +0.000 A 
ATOM     34  H   UNL     1      48.346   2.615  19.005  0.00  0.00    +0.000 HD
ENDBRANCH  21  24
ENDBRANCH   2  20
TORSDOF 6
ENDMDL
MODEL 2
REMARK VINA RESULT:    -7.929      1.433      1.960
REMARK INTER + INTRA:         -11.669
REMARK INTER:                 -10.551
REMARK INTRA:                  -1.119
REMARK UNBOUND:                -0.960
REMARK  Name = 
REMARK  7 active torsions:
REMARK  status: ('A' for Active; 'I' for Inactive)
REMARK    1  A    between atoms: C_1  and  C_2
REMARK    2  A    between atoms: C_2  and  N_3
REMARK    3  A    between atoms: C_2  and  C_16
REMARK    4  A    between atoms: C_4  and  C_6
REMARK    5  A    between atoms: C_19  and  C_20
REMARK    6  A    between atoms: C_20  and  N_21
REMARK    7  A    between atoms: C_22  and  C_24
REMARK                            x       y       z     vdW  Elec       q    Type
REMARK                         _______ _______ _______ _____ _____    ______ ____
ROOT
ATOM      1  C   UNL     1      47.515   9.007  13.758  0.00  0.00    +0.000 C 
ATOM      2  C   UNL     1      47.818   7.503  13.806  0.00  0.00    +0.000 C 
ENDROOT
BRANCH   2   3
ATOM      3  C   UNL     1      46.792   6.754  12.959  0.00  0.00    +0.000 A 
ATOM      4  C   UNL     1      46.673   5.362  13.090  0.00  0.00    +0.000 A 
ATOM      5  C   UNL     1      45.785   4.628  12.290  0.00  0.00    +0.000 A 
ATOM      6  C   UNL     1      44.995   5.270  11.327  0.00  0.00    +0.000 A 
ATOM      7  C   UNL     1      45.100   6.662  11.203  0.00  0.00    +0.000 A 
ATOM      8  C   UNL     1      45.998   7.393  11.993  0.00  0.00    +0.000 A 
BRANCH   6   9
ATOM      9  C   UNL     1      44.074   4.490  10.416  0.00  0.00    +0.000 C 
BRANCH   9  10
ATOM     10  N   UNL     1      44.765   3.488   9.646  0.00  0.00    +0.000 N 
ATOM     11  C   UNL     1      45.557   3.828   8.572  0.00  0.00    +0.000 C 
ATOM     12  O   UNL     1      45.696   4.984   8.187  0.00  0.00    +0.000 OA
ATOM     13  H   UNL     1      44.775   2.541   9.987  0.00  0.00    +0.000 HD
BRANCH  11  14
ATOM     14  C   UNL     1      46.219   2.710   7.923  0.00  0.00    +0.000 A 
ATOM     15  C   UNL     1      47.073   2.651   6.833  0.00  0.00    +0.000 A 
ATOM     16  C   UNL     1      47.432   1.298   6.621  0.00  0.00    +0.000 A 
ATOM     17  C   UNL     1      46.795   0.552   7.583  0.00  0.00    +0.000 A 
ATOM     18  N   UNL     1      46.073   1.411   8.373  0.00  0.00    +0.000 N 
ATOM     19  H   UNL     1      45.509   1.148   9.172  0.00  0.00    +0.000 HD
ENDBRANCH  11  14
ENDBRANCH   9  10
ENDBRANCH   6   9
ENDBRANCH   2   3
BRANCH   2  20
ATOM     20  N   UNL     1      47.880   6.993  15.170  0.00  0.00    +0.000 N 
ATOM     21  C   UNL     1      49.066   6.595  15.743  0.00  0.00    +0.000 C 
ATOM     22  O   UNL     1      50.143   6.669  15.159  0.00  0.00    +0.000 OA
ATOM     23  H   UNL     1      47.029   6.571  15.530  0.00  0.00    +0.000 HD
BRANCH  21  24
ATOM     24  C   UNL     1      49.002   6.122  17.129  0.00  0.00    +0.000 A 
ATOM     25  C   UNL     1      49.449   4.844  17.436  0.00  0.00    +0.000 A 
ATOM     26  S   UNL     1      49.263   4.434  19.081  0.00  0.00    +0.000 S 
ATOM     27  C   UNL     1      48.547   5.937  19.430  0.00  0.00    +0.000 A 
ATOM     28  N   UNL     1      48.086   6.222  20.676  0.00  0.00    +0.000 NA
ATOM     29  C   UNL     1      47.538   7.385  20.787  0.00  0.00    +0.000 A 
ATOM     30  N   UNL     1      47.430   8.301  19.771  0.00  0.00    +0.000 N 
ATOM     31  C   UNL     1      47.928   8.077  18.510  0.00  0.00    +0.000 A 
ATOM     32  O   UNL     1      47.901   8.946  17.644  0.00  0.00    +0.000 OA
ATOM     33  C   UNL     1      48.502   6.761  18.317  0.00  0.00    +0.000 A 
ATOM     34  H   UNL     1      47.020   9.208  19.936  0.00  0.00    +0.000 HD
ENDBRANCH  21  24
ENDBRANCH   2  20
TORSDOF 6
ENDMDL
MODEL 3
REMARK VINA RESULT:    -7.574      4.743      9.414
REMARK INTER + INTRA:         -11.190
REMARK INTER:                 -10.345
REMARK INTRA:                  -0.845
REMARK UNBOUND:                -0.960
REMARK  Name = 
REMARK  7 active torsions:
REMARK  status: ('A' for Active; 'I' for Inactive)
REMARK    1  A    between atoms: C_1  and  C_2
REMARK    2  A    between atoms: C_2  and  N_3
REMARK    3  A    between atoms: C_2  and  C_16
REMARK    4  A    between atoms: C_4  and  C_6
REMARK    5  A    between atoms: C_19  and  C_20
REMARK    6  A    between atoms: C_20  and  N_21
REMARK    7  A    between atoms: C_22  and  C_24
REMARK                            x       y       z     vdW  Elec       q    Type
REMARK                         _______ _______ _______ _____ _____    ______ ____
ROOT
ATOM      1  C   UNL     1      47.076   4.944  18.443  0.00  0.00    +0.000 C 
ATOM      2  C   UNL     1      47.524   4.209  17.172  0.00  0.00    +0.000 C 
ENDROOT
BRANCH   2   3
ATOM      3  C   UNL     1      48.995   3.825  17.303  0.00  0.00    +0.000 A 
ATOM      4  C   UNL     1      49.369   2.476  17.196  0.00  0.00    +0.000 A 
ATOM      5  C   UNL     1      50.701   2.073  17.368  0.00  0.00    +0.000 A 
ATOM      6  C   UNL     1      51.699   3.012  17.663  0.00  0.00    +0.000 A 
ATOM      7  C   UNL     1      51.333   4.361  17.755  0.00  0.00    +0.000 A 
ATOM      8  C   UNL     1      49.999   4.762  17.597  0.00  0.00    +0.000 A 
BRANCH   6   9
ATOM      9  C   UNL     1      53.129   2.591  17.908  0.00  0.00    +0.000 C 
BRANCH   9  10
ATOM     10  N   UNL     1      53.236   1.265  18.460  0.00  0.00    +0.000 N 
ATOM     11  C   UNL     1      53.920   0.267  17.802  0.00  0.00    +0.000 C 
ATOM     12  O   UNL     1      54.446   0.432  16.707  0.00  0.00    +0.000 OA
ATOM     13  H   UNL     1      52.921   1.109  19.404  0.00  0.00    +0.000 HD
BRANCH  11  14
ATOM     14  C   UNL     1      53.974  -1.003  18.506  0.00  0.00    +0.000 A 
ATOM     15  C   UNL     1      55.037  -1.829  18.835  0.00  0.00    +0.000 A 
ATOM     16  C   UNL     1      54.528  -2.954  19.529  0.00  0.00    +0.000 A 
ATOM     17  C   UNL     1      53.166  -2.797  19.615  0.00  0.00    +0.000 A 
ATOM     18  N   UNL     1      52.838  -1.612  19.006  0.00  0.00    +0.000 N 
ATOM     19  H   UNL     1      51.905  -1.226  18.923  0.00  0.00    +0.000 HD
ENDBRANCH  11  14
ENDBRANCH   9  10
ENDBRANCH   6   9
ENDBRANCH   2   3
BRANCH   2  20
ATOM     20  N   UNL     1      47.265   4.983  15.965  0.00  0.00    +0.000 N 
ATOM     21  C   UNL     1      47.188   4.390  14.725  0.00  0.00    +0.000 C 
ATOM     22  O   UNL     1      47.302   3.178  14.561  0.00  0.00    +0.000 OA
ATOM     23  H   UNL     1      47.537   5.961  15.991  0.00  0.00    +0.000 HD
BRANCH  21  24
ATOM     24  C   UNL     1      46.900   5.271  13.590  0.00  0.00    +0.000 A 
ATOM     25  C   UNL     1      47.872   6.161  13.152  0.00  0.00    +0.000 A 
ATOM     26  S   UNL     1      47.362   7.143  11.854  0.00  0.00    +0.000 S 
ATOM     27  C   UNL     1      45.815   6.435  11.857  0.00  0.00    +0.000 A 
ATOM     28  N   UNL     1      44.843   6.870  11.012  0.00  0.00    +0.000 NA
ATOM     29  C   UNL     1      43.712   6.266  11.148  0.00  0.00    +0.000 A 
ATOM     30  N   UNL     1      43.468   5.248  12.035  0.00  0.00    +0.000 N 
ATOM     31  C   UNL     1      44.434   4.741  12.871  0.00  0.00    +0.000 A 
ATOM     32  O   UNL     1      44.217   3.770  13.590  0.00  0.00    +0.000 OA
ATOM     33  C   UNL     1      45.708   5.426  12.799  0.00  0.00    +0.000 A 
ATOM     34  H   UNL     1      42.567   4.794  12.065  0.00  0.00    +0.000 HD
ENDBRANCH  21  24
ENDBRANCH   2  20
TORSDOF 6
ENDMDL
MODEL 4
REMARK VINA RESULT:    -7.461      2.798      4.574
REMARK INTER + INTRA:         -11.038
REMARK INTER:                  -9.815
REMARK INTRA:                  -1.224
REMARK UNBOUND:                -0.960
REMARK  Name = 
REMARK  7 active torsions:
REMARK  status: ('A' for Active; 'I' for Inactive)
REMARK    1  A    between atoms: C_1  and  C_2
REMARK    2  A    between atoms: C_2  and  N_3
REMARK    3  A    between atoms: C_2  and  C_16
REMARK    4  A    between atoms: C_4  and  C_6
REMARK    5  A    between atoms: C_19  and  C_20
REMARK    6  A    between atoms: C_20  and  N_21
REMARK    7  A    between atoms: C_22  and  C_24
REMARK                            x       y       z     vdW  Elec       q    Type
REMARK                         _______ _______ _______ _____ _____    ______ ____
ROOT
ATOM      1  C   UNL     1      47.363   4.227  15.660  0.00  0.00    +0.000 C 
ATOM      2  C   UNL     1      47.178   5.523  14.858  0.00  0.00    +0.000 C 
ENDROOT
BRANCH   2   3
ATOM      3  C   UNL     1      46.267   5.251  13.664  0.00  0.00    +0.000 A 
ATOM      4  C   UNL     1      46.043   3.927  13.255  0.00  0.00    +0.000 A 
ATOM      5  C   UNL     1      45.260   3.636  12.128  0.00  0.00    +0.000 A 
ATOM      6  C   UNL     1      44.686   4.666  11.371  0.00  0.00    +0.000 A 
ATOM      7  C   UNL     1      44.896   5.989  11.785  0.00  0.00    +0.000 A 
ATOM      8  C   UNL     1      45.689   6.280  12.903  0.00  0.00    +0.000 A 
BRANCH   6   9
ATOM      9  C   UNL     1      43.888   4.376  10.121  0.00  0.00    +0.000 C 
BRANCH   9  10
ATOM     10  N   UNL     1      44.606   3.562   9.174  0.00  0.00    +0.000 N 
ATOM     11  C   UNL     1      45.620   4.084   8.403  0.00  0.00    +0.000 C 
ATOM     12  O   UNL     1      45.950   5.264   8.448  0.00  0.00    +0.000 OA
ATOM     13  H   UNL     1      44.451   2.567   9.181  0.00  0.00    +0.000 HD
BRANCH  11  14
ATOM     14  C   UNL     1      46.275   3.127   7.528  0.00  0.00    +0.000 A 
ATOM     15  C   UNL     1      46.755   3.243   6.232  0.00  0.00    +0.000 A 
ATOM     16  C   UNL     1      47.307   1.996   5.850  0.00  0.00    +0.000 A 
ATOM     17  C   UNL     1      47.158   1.141   6.915  0.00  0.00    +0.000 A 
ATOM     18  N   UNL     1      46.545   1.832   7.929  0.00  0.00    +0.000 N 
ATOM     19  H   UNL     1      46.314   1.463   8.843  0.00  0.00    +0.000 HD
ENDBRANCH  11  14
ENDBRANCH   9  10
ENDBRANCH   6   9
ENDBRANCH   2   3
BRANCH   2  20
ATOM     20  N   UNL     1      48.449   6.110  14.455  0.00  0.00    +0.000 N 
ATOM     21  C   UNL     1      49.052   7.109  15.187  0.00  0.00    +0.000 C 
ATOM     22  O   UNL     1      48.576   7.544  16.232  0.00  0.00    +0.000 OA
ATOM     23  H   UNL     1      48.670   6.068  13.465  0.00  0.00    +0.000 HD
BRANCH  21  24
ATOM     24  C   UNL     1      50.339   7.603  14.692  0.00  0.00    +0.000 A 
ATOM     25  C   UNL     1      51.453   7.559  15.520  0.00  0.00    +0.000 A 
ATOM     26  S   UNL     1      52.857   8.214  14.809  0.00  0.00    +0.000 S 
ATOM     27  C   UNL     1      52.016   8.609  13.384  0.00  0.00    +0.000 A 
ATOM     28  N   UNL     1      52.632   9.265  12.364  0.00  0.00    +0.000 NA
ATOM     29  C   UNL     1      51.864   9.528  11.362  0.00  0.00    +0.000 A 
ATOM     30  N   UNL     1      50.541   9.175  11.273  0.00  0.00    +0.000 N 
ATOM     31  C   UNL     1      49.891   8.466  12.255  0.00  0.00    +0.000 A 
ATOM     32  O   UNL     1      48.735   8.083  12.113  0.00  0.00    +0.000 OA
ATOM     33  C   UNL     1      50.695   8.197  13.430  0.00  0.00    +0.000 A 
ATOM     34  H   UNL     1      50.007   9.382  10.442  0.00  0.00    +0.000 HD
ENDBRANCH  21  24
ENDBRANCH   2  20
TORSDOF 6
ENDMDL
MODEL 5
REMARK VINA RESULT:    -7.247      3.626      8.584
REMARK INTER + INTRA:         -10.749
REMARK INTER:                  -9.676
REMARK INTRA:                  -1.073
REMARK UNBOUND:                -0.960
REMARK  Name = 
REMARK  7 active torsions:
REMARK  status: ('A' for Active; 'I' for Inactive)
REMARK    1  A    between atoms: C_1  and  C_2
REMARK    2  A    between atoms: C_2  and  N_3
REMARK    3  A    between atoms: C_2  and  C_16
REMARK    4  A    between atoms: C_4  and  C_6
REMARK    5  A    between atoms: C_19  and  C_20
REMARK    6  A    between atoms: C_20  and  N_21
REMARK    7  A    between atoms: C_22  and  C_24
REMARK                            x       y       z     vdW  Elec       q    Type
REMARK                         _______ _______ _______ _____ _____    ______ ____
ROOT
ATOM      1  C   UNL     1      49.461   8.315  11.485  0.00  0.00    +0.000 C 
ATOM      2  C   UNL     1      48.350   7.749  12.380  0.00  0.00    +0.000 C 
ENDROOT
BRANCH   2   3
ATOM      3  C   UNL     1      48.946   7.337  13.724  0.00  0.00    +0.000 A 
ATOM      4  C   UNL     1      48.169   6.590  14.623  0.00  0.00    +0.000 A 
ATOM      5  C   UNL     1      48.657   6.241  15.891  0.00  0.00    +0.000 A 
ATOM      6  C   UNL     1      49.937   6.639  16.299  0.00  0.00    +0.000 A 
ATOM      7  C   UNL     1      50.721   7.372  15.398  0.00  0.00    +0.000 A 
ATOM      8  C   UNL     1      50.228   7.733  14.137  0.00  0.00    +0.000 A 
BRANCH   6   9
ATOM      9  C   UNL     1      50.458   6.323  17.682  0.00  0.00    +0.000 C 
BRANCH   9  10
ATOM     10  N   UNL     1      51.297   5.152  17.710  0.00  0.00    +0.000 N 
ATOM     11  C   UNL     1      50.767   3.894  17.884  0.00  0.00    +0.000 C 
ATOM     12  O   UNL     1      49.569   3.694  18.055  0.00  0.00    +0.000 OA
ATOM     13  H   UNL     1      52.268   5.250  17.462  0.00  0.00    +0.000 HD
BRANCH  11  14
ATOM     14  C   UNL     1      51.736   2.812  17.847  0.00  0.00    +0.000 A 
ATOM     15  C   UNL     1      53.121   2.816  17.898  0.00  0.00    +0.000 A 
ATOM     16  C   UNL     1      53.572   1.475  17.825  0.00  0.00    +0.000 A 
ATOM     17  C   UNL     1      52.459   0.676  17.733  0.00  0.00    +0.000 A 
ATOM     18  N   UNL     1      51.353   1.487  17.757  0.00  0.00    +0.000 N 
ATOM     19  H   UNL     1      50.390   1.178  17.715  0.00  0.00    +0.000 HD
ENDBRANCH  11  14
ENDBRANCH   9  10
ENDBRANCH   6   9
ENDBRANCH   2   3
BRANCH   2  20
ATOM     20  N   UNL     1      47.629   6.655  11.742  0.00  0.00    +0.000 N 
ATOM     21  C   UNL     1      46.274   6.719  11.506  0.00  0.00    +0.000 C 
ATOM     22  O   UNL     1      45.598   7.704  11.789  0.00  0.00    +0.000 OA
ATOM     23  H   UNL     1      48.035   5.729  11.843  0.00  0.00    +0.000 HD
BRANCH  21  24
ATOM     24  C   UNL     1      45.666   5.566  10.838  0.00  0.00    +0.000 A 
ATOM     25  C   UNL     1      45.707   5.477   9.453  0.00  0.00    +0.000 A 
ATOM     26  S   UNL     1      44.916   4.100   8.834  0.00  0.00    +0.000 S 
ATOM     27  C   UNL     1      44.463   3.594  10.394  0.00  0.00    +0.000 A 
ATOM     28  N   UNL     1      43.694   2.488  10.576  0.00  0.00    +0.000 NA
ATOM     29  C   UNL     1      43.400   2.242  11.808  0.00  0.00    +0.000 A 
ATOM     30  N   UNL     1      43.824   2.988  12.879  0.00  0.00    +0.000 N 
ATOM     31  C   UNL     1      44.644   4.083  12.746  0.00  0.00    +0.000 A 
ATOM     32  O   UNL     1      45.085   4.679  13.724  0.00  0.00    +0.000 OA
ATOM     33  C   UNL     1      44.956   4.436  11.376  0.00  0.00    +0.000 A 
ATOM     34  H   UNL     1      43.585   2.719  13.822  0.00  0.00    +0.000 HD
ENDBRANCH  21  24
ENDBRANCH   2  20
TORSDOF 6
ENDMDL
MODEL 6
REMARK VINA RESULT:    -7.217      3.397      9.003
REMARK INTER + INTRA:         -10.708
REMARK INTER:                  -9.600
REMARK INTRA:                  -1.108
REMARK UNBOUND:                -0.960
REMARK  Name = 
REMARK  7 active torsions:
REMARK  status: ('A' for Active; 'I' for Inactive)
REMARK    1  A    between atoms: C_1  and  C_2
REMARK    2  A    between atoms: C_2  and  N_3
REMARK    3  A    between atoms: C_2  and  C_16
REMARK    4  A    between atoms: C_4  and  C_6
REMARK    5  A    between atoms: C_19  and  C_20
REMARK    6  A    between atoms: C_20  and  N_21
REMARK    7  A    between atoms: C_22  and  C_24
REMARK                            x       y       z     vdW  Elec       q    Type
REMARK                         _______ _______ _______ _____ _____    ______ ____
ROOT
ATOM      1  C   UNL     1      48.616   7.946  11.443  0.00  0.00    +0.000 C 
ATOM      2  C   UNL     1      47.722   7.415  12.571  0.00  0.00    +0.000 C 
ENDROOT
BRANCH   2   3
ATOM      3  C   UNL     1      48.579   7.125  13.801  0.00  0.00    +0.000 A 
ATOM      4  C   UNL     1      48.063   6.321  14.828  0.00  0.00    +0.000 A 
ATOM      5  C   UNL     1      48.794   6.078  16.000  0.00  0.00    +0.000 A 
ATOM      6  C   UNL     1      50.064   6.643  16.181  0.00  0.00    +0.000 A 
ATOM      7  C   UNL     1      50.589   7.434  15.151  0.00  0.00    +0.000 A 
ATOM      8  C   UNL     1      49.852   7.688  13.986  0.00  0.00    +0.000 A 
BRANCH   6   9
ATOM      9  C   UNL     1      50.842   6.440  17.460  0.00  0.00    +0.000 C 
BRANCH   9  10
ATOM     10  N   UNL     1      51.578   5.202  17.477  0.00  0.00    +0.000 N 
ATOM     11  C   UNL     1      51.052   4.063  18.043  0.00  0.00    +0.000 C 
ATOM     12  O   UNL     1      49.954   4.037  18.588  0.00  0.00    +0.000 OA
ATOM     13  H   UNL     1      52.431   5.142  16.946  0.00  0.00    +0.000 HD
BRANCH  11  14
ATOM     14  C   UNL     1      51.897   2.885  17.945  0.00  0.00    +0.000 A 
ATOM     15  C   UNL     1      53.273   2.732  18.009  0.00  0.00    +0.000 A 
ATOM     16  C   UNL     1      53.576   1.358  17.852  0.00  0.00    +0.000 A 
ATOM     17  C   UNL     1      52.383   0.694  17.697  0.00  0.00    +0.000 A 
ATOM     18  N   UNL     1      51.373   1.619  17.764  0.00  0.00    +0.000 N 
ATOM     19  H   UNL     1      50.382   1.422  17.693  0.00  0.00    +0.000 HD
ENDBRANCH  11  14
ENDBRANCH   9  10
ENDBRANCH   6   9
ENDBRANCH   2   3
BRANCH   2  20
ATOM     20  N   UNL     1      46.943   6.253  12.161  0.00  0.00    +0.000 N 
ATOM     21  C   UNL     1      45.567   6.272  12.143  0.00  0.00    +0.000 C 
ATOM     22  O   UNL     1      44.913   7.267  12.441  0.00  0.00    +0.000 OA
ATOM     23  H   UNL     1      47.390   5.349  12.277  0.00  0.00    +0.000 HD
BRANCH  21  24
ATOM     24  C   UNL     1      44.898   5.050  11.689  0.00  0.00    +0.000 A 
ATOM     25  C   UNL     1      44.102   4.337  12.575  0.00  0.00    +0.000 A 
ATOM     26  S   UNL     1      43.435   2.919  11.903  0.00  0.00    +0.000 S 
ATOM     27  C   UNL     1      44.215   3.193  10.417  0.00  0.00    +0.000 A 
ATOM     28  N   UNL     1      44.113   2.300   9.396  0.00  0.00    +0.000 NA
ATOM     29  C   UNL     1      44.783   2.621   8.341  0.00  0.00    +0.000 A 
ATOM     30  N   UNL     1      45.528   3.764   8.203  0.00  0.00    +0.000 N 
ATOM     31  C   UNL     1      45.618   4.719   9.188  0.00  0.00    +0.000 A 
ATOM     32  O   UNL     1      46.215   5.775   9.007  0.00  0.00    +0.000 OA
ATOM     33  C   UNL     1      44.930   4.378  10.417  0.00  0.00    +0.000 A 
ATOM     34  H   UNL     1      46.001   3.970   7.335  0.00  0.00    +0.000 HD
ENDBRANCH  21  24
ENDBRANCH   2  20
TORSDOF 6
ENDMDL
MODEL 7
REMARK VINA RESULT:    -7.193      4.842      9.319
REMARK INTER + INTRA:         -10.676
REMARK INTER:                  -9.498
REMARK INTRA:                  -1.178
REMARK UNBOUND:                -0.960
REMARK  Name = 
REMARK  7 active torsions:
REMARK  status: ('A' for Active; 'I' for Inactive)
REMARK    1  A    between atoms: C_1  and  C_2
REMARK    2  A    between atoms: C_2  and  N_3
REMARK    3  A    between atoms: C_2  and  C_16
REMARK    4  A    between atoms: C_4  and  C_6
REMARK    5  A    between atoms: C_19  and  C_20
REMARK    6  A    between atoms: C_20  and  N_21
REMARK    7  A    between atoms: C_22  and  C_24
REMARK                            x       y       z     vdW  Elec       q    Type
REMARK                         _______ _______ _______ _____ _____    ______ ____
ROOT
ATOM      1  C   UNL     1      47.181   4.789  18.415  0.00  0.00    +0.000 C 
ATOM      2  C   UNL     1      47.672   4.097  17.135  0.00  0.00    +0.000 C 
ENDROOT
BRANCH   2   3
ATOM      3  C   UNL     1      49.126   3.669  17.319  0.00  0.00    +0.000 A 
ATOM      4  C   UNL     1      49.484   2.330  17.098  0.00  0.00    +0.000 A 
ATOM      5  C   UNL     1      50.796   1.882  17.312  0.00  0.00    +0.000 A 
ATOM      6  C   UNL     1      51.787   2.764  17.763  0.00  0.00    +0.000 A 
ATOM      7  C   UNL     1      51.437   4.105  17.971  0.00  0.00    +0.000 A 
ATOM      8  C   UNL     1      50.123   4.549  17.770  0.00  0.00    +0.000 A 
BRANCH   6   9
ATOM      9  C   UNL     1      53.192   2.289  18.054  0.00  0.00    +0.000 C 
BRANCH   9  10
ATOM     10  N   UNL     1      53.240   0.917  18.491  0.00  0.00    +0.000 N 
ATOM     11  C   UNL     1      54.003  -0.020  17.830  0.00  0.00    +0.000 C 
ATOM     12  O   UNL     1      54.653   0.242  16.824  0.00  0.00    +0.000 OA
ATOM     13  H   UNL     1      52.817   0.678  19.372  0.00  0.00    +0.000 HD
BRANCH  11  14
ATOM     14  C   UNL     1      53.980  -1.349  18.416  0.00  0.00    +0.000 A 
ATOM     15  C   UNL     1      54.911  -2.376  18.405  0.00  0.00    +0.000 A 
ATOM     16  C   UNL     1      54.379  -3.465  19.137  0.00  0.00    +0.000 A 
ATOM     17  C   UNL     1      53.136  -3.087  19.584  0.00  0.00    +0.000 A 
ATOM     18  N   UNL     1      52.905  -1.805  19.155  0.00  0.00    +0.000 N 
ATOM     19  H   UNL     1      52.073  -1.258  19.342  0.00  0.00    +0.000 HD
ENDBRANCH  11  14
ENDBRANCH   9  10
ENDBRANCH   6   9
ENDBRANCH   2   3
BRANCH   2  20
ATOM     20  N   UNL     1      47.491   4.927  15.952  0.00  0.00    +0.000 N 
ATOM     21  C   UNL     1      47.347   4.381  14.697  0.00  0.00    +0.000 C 
ATOM     22  O   UNL     1      47.334   3.170  14.498  0.00  0.00    +0.000 OA
ATOM     23  H   UNL     1      47.863   5.871  16.004  0.00  0.00    +0.000 HD
BRANCH  21  24
ATOM     24  C   UNL     1      47.149   5.319  13.589  0.00  0.00    +0.000 A 
ATOM     25  C   UNL     1      46.066   5.151  12.736  0.00  0.00    +0.000 A 
ATOM     26  S   UNL     1      46.007   6.298  11.475  0.00  0.00    +0.000 S 
ATOM     27  C   UNL     1      47.444   7.036  12.007  0.00  0.00    +0.000 A 
ATOM     28  N   UNL     1      47.998   8.069  11.320  0.00  0.00    +0.000 NA
ATOM     29  C   UNL     1      49.104   8.508  11.819  0.00  0.00    +0.000 A 
ATOM     30  N   UNL     1      49.696   8.024  12.959  0.00  0.00    +0.000 N 
ATOM     31  C   UNL     1      49.146   7.016  13.714  0.00  0.00    +0.000 A 
ATOM     32  O   UNL     1      49.645   6.663  14.777  0.00  0.00    +0.000 OA
ATOM     33  C   UNL     1      47.932   6.449  13.163  0.00  0.00    +0.000 A 
ATOM     34  H   UNL     1      50.545   8.438  13.314  0.00  0.00    +0.000 HD
ENDBRANCH  21  24
ENDBRANCH   2  20
TORSDOF 6
ENDMDL
MODEL 8
REMARK VINA RESULT:    -7.072      3.684      4.833
REMARK INTER + INTRA:         -10.512
REMARK INTER:                  -9.403
REMARK INTRA:                  -1.109
REMARK UNBOUND:                -0.960
REMARK  Name = 
REMARK  7 active torsions:
REMARK  status: ('A' for Active; 'I' for Inactive)
REMARK    1  A    between atoms: C_1  and  C_2
REMARK    2  A    between atoms: C_2  and  N_3
REMARK    3  A    between atoms: C_2  and  C_16
REMARK    4  A    between atoms: C_4  and  C_6
REMARK    5  A    between atoms: C_19  and  C_20
REMARK    6  A    between atoms: C_20  and  N_21
REMARK    7  A    between atoms: C_22  and  C_24
REMARK                            x       y       z     vdW  Elec       q    Type
REMARK                         _______ _______ _______ _____ _____    ______ ____
ROOT
ATOM      1  C   UNL     1      47.842   2.968  17.871  0.00  0.00    +0.000 C 
ATOM      2  C   UNL     1      48.715   4.187  17.541  0.00  0.00    +0.000 C 
ENDROOT
BRANCH   2   3
ATOM      3  C   UNL     1      48.175   4.869  16.286  0.00  0.00    +0.000 A 
ATOM      4  C   UNL     1      47.170   4.239  15.537  0.00  0.00    +0.000 A 
ATOM      5  C   UNL     1      46.688   4.803  14.346  0.00  0.00    +0.000 A 
ATOM      6  C   UNL     1      47.207   6.013  13.867  0.00  0.00    +0.000 A 
ATOM      7  C   UNL     1      48.200   6.653  14.620  0.00  0.00    +0.000 A 
ATOM      8  C   UNL     1      48.692   6.082  15.802  0.00  0.00    +0.000 A 
BRANCH   6   9
ATOM      9  C   UNL     1      46.741   6.607  12.557  0.00  0.00    +0.000 C 
BRANCH   9  10
ATOM     10  N   UNL     1      46.436   5.607  11.566  0.00  0.00    +0.000 N 
ATOM     11  C   UNL     1      45.176   5.498  11.022  0.00  0.00    +0.000 C 
ATOM     12  O   UNL     1      44.240   6.211  11.364  0.00  0.00    +0.000 OA
ATOM     13  H   UNL     1      47.194   5.075  11.171  0.00  0.00    +0.000 HD
BRANCH  11  14
ATOM     14  C   UNL     1      45.038   4.470  10.005  0.00  0.00    +0.000 A 
ATOM     15  C   UNL     1      45.306   4.478   8.645  0.00  0.00    +0.000 A 
ATOM     16  C   UNL     1      44.990   3.200   8.122  0.00  0.00    +0.000 A 
ATOM     17  C   UNL     1      44.537   2.433   9.168  0.00  0.00    +0.000 A 
ATOM     18  N   UNL     1      44.578   3.201  10.304  0.00  0.00    +0.000 N 
ATOM     19  H   UNL     1      44.313   2.899  11.233  0.00  0.00    +0.000 HD
ENDBRANCH  11  14
ENDBRANCH   9  10
ENDBRANCH   6   9
ENDBRANCH   2   3
BRANCH   2  20
ATOM     20  N   UNL     1      50.124   3.841  17.413  0.00  0.00    +0.000 N 
ATOM     21  C   UNL     1      51.025   4.076  18.427  0.00  0.00    +0.000 C 
ATOM     22  O   UNL     1      50.696   4.563  19.505  0.00  0.00    +0.000 OA
ATOM     23  H   UNL     1      50.494   3.805  16.468  0.00  0.00    +0.000 HD
BRANCH  21  24
ATOM     24  C   UNL     1      52.410   3.663  18.188  0.00  0.00    +0.000 A 
ATOM     25  C   UNL     1      53.433   4.592  18.322  0.00  0.00    +0.000 A 
ATOM     26  S   UNL     1      54.977   3.961  17.964  0.00  0.00    +0.000 S 
ATOM     27  C   UNL     1      54.325   2.436  17.585  0.00  0.00    +0.000 A 
ATOM     28  N   UNL     1      55.116   1.427  17.135  0.00  0.00    +0.000 NA
ATOM     29  C   UNL     1      54.482   0.339  16.856  0.00  0.00    +0.000 A 
ATOM     30  N   UNL     1      53.131   0.157  17.008  0.00  0.00    +0.000 N 
ATOM     31  C   UNL     1      52.300   1.132  17.508  0.00  0.00    +0.000 A 
ATOM     32  O   UNL     1      51.111   0.916  17.721  0.00  0.00    +0.000 OA
ATOM     33  C   UNL     1      52.955   2.394  17.782  0.00  0.00    +0.000 A 
ATOM     34  H   UNL     1      52.704  -0.734  16.803  0.00  0.00    +0.000 HD
ENDBRANCH  21  24
ENDBRANCH   2  20
TORSDOF 6
ENDMDL
MODEL 9
REMARK VINA RESULT:    -6.662      4.961      8.040
REMARK INTER + INTRA:          -9.958
REMARK INTER:                  -8.974
REMARK INTRA:                  -0.984
REMARK UNBOUND:                -0.960
REMARK  Name = 
REMARK  7 active torsions:
REMARK  status: ('A' for Active; 'I' for Inactive)
REMARK    1  A    between atoms: C_1  and  C_2
REMARK    2  A    between atoms: C_2  and  N_3
REMARK    3  A    between atoms: C_2  and  C_16
REMARK    4  A    between atoms: C_4  and  C_6
REMARK    5  A    between atoms: C_19  and  C_20
REMARK    6  A    between atoms: C_20  and  N_21
REMARK    7  A    between atoms: C_22  and  C_24
REMARK                            x       y       z     vdW  Elec       q    Type
REMARK                         _______ _______ _______ _____ _____    ______ ____
ROOT
ATOM      1  C   UNL     1      45.054   9.602  12.002  0.00  0.00    +0.000 C 
ATOM      2  C   UNL     1      45.818   8.359  12.478  0.00  0.00    +0.000 C 
ENDROOT
BRANCH   2   3
ATOM      3  C   UNL     1      47.305   8.538  12.182  0.00  0.00    +0.000 A 
ATOM      4  C   UNL     1      47.858   9.828  12.180  0.00  0.00    +0.000 A 
ATOM      5  C   UNL     1      49.206  10.043  11.856  0.00  0.00    +0.000 A 
ATOM      6  C   UNL     1      50.039   8.968  11.516  0.00  0.00    +0.000 A 
ATOM      7  C   UNL     1      49.495   7.677  11.532  0.00  0.00    +0.000 A 
ATOM      8  C   UNL     1      48.144   7.464  11.842  0.00  0.00    +0.000 A 
BRANCH   6   9
ATOM      9  C   UNL     1      51.478   9.185  11.109  0.00  0.00    +0.000 C 
BRANCH   9  10
ATOM     10  N   UNL     1      51.893   8.316  10.037  0.00  0.00    +0.000 N 
ATOM     11  C   UNL     1      52.933   7.428  10.196  0.00  0.00    +0.000 C 
ATOM     12  O   UNL     1      53.583   7.343  11.232  0.00  0.00    +0.000 OA
ATOM     13  H   UNL     1      51.323   8.268   9.209  0.00  0.00    +0.000 HD
BRANCH  11  14
ATOM     14  C   UNL     1      53.204   6.593   9.038  0.00  0.00    +0.000 A 
ATOM     15  C   UNL     1      52.636   6.558   7.775  0.00  0.00    +0.000 A 
ATOM     16  C   UNL     1      53.280   5.543   7.025  0.00  0.00    +0.000 A 
ATOM     17  C   UNL     1      54.230   4.976   7.840  0.00  0.00    +0.000 A 
ATOM     18  N   UNL     1      54.188   5.621   9.050  0.00  0.00    +0.000 N 
ATOM     19  H   UNL     1      54.781   5.426   9.847  0.00  0.00    +0.000 HD
ENDBRANCH  11  14
ENDBRANCH   9  10
ENDBRANCH   6   9
ENDBRANCH   2   3
BRANCH   2  20
ATOM     20  N   UNL     1      45.290   7.129  11.902  0.00  0.00    +0.000 N 
ATOM     21  C   UNL     1      45.339   5.931  12.579  0.00  0.00    +0.000 C 
ATOM     22  O   UNL     1      45.800   5.828  13.712  0.00  0.00    +0.000 OA
ATOM     23  H   UNL     1      45.260   7.084  10.888  0.00  0.00    +0.000 HD
BRANCH  21  24
ATOM     24  C   UNL     1      44.754   4.769  11.904  0.00  0.00    +0.000 A 
ATOM     25  C   UNL     1      43.934   3.905  12.618  0.00  0.00    +0.000 A 
ATOM     26  S   UNL     1      43.375   2.582  11.700  0.00  0.00    +0.000 S 
ATOM     27  C   UNL     1      44.236   3.102  10.328  0.00  0.00    +0.000 A 
ATOM     28  N   UNL     1      44.239   2.370   9.182  0.00  0.00    +0.000 NA
ATOM     29  C   UNL     1      44.961   2.867   8.236  0.00  0.00    +0.000 A 
ATOM     30  N   UNL     1      45.662   4.043   8.320  0.00  0.00    +0.000 N 
ATOM     31  C   UNL     1      45.647   4.841   9.439  0.00  0.00    +0.000 A 
ATOM     32  O   UNL     1      46.207   5.933   9.457  0.00  0.00    +0.000 OA
ATOM     33  C   UNL     1      44.897   4.298  10.552  0.00  0.00    +0.000 A 
ATOM     34  H   UNL     1      46.180   4.392   7.527  0.00  0.00    +0.000 HD
ENDBRANCH  21  24
ENDBRANCH   2  20
TORSDOF 6
ENDMDL
