MODEL 1
REMARK VINA RESULT:    -8.765      0.000      0.000
REMARK INTER + INTRA:         -13.050
REMARK INTER:                 -12.352
REMARK INTRA:                  -0.698
REMARK UNBOUND:                -0.698
REMARK  Name = 
REMARK  9 active torsions:
REMARK  status: ('A' for Active; 'I' for Inactive)
REMARK    1  A    between atoms: C_1  and  C_2
REMARK    2  A    between atoms: C_4  and  O_5
REMARK    3  A    between atoms: O_5  and  C_6
REMARK    4  A    between atoms: C_6  and  C_7
REMARK    5  A    between atoms: C_7  and  C_8
REMARK    6  A    between atoms: C_7  and  C_9
REMARK    7  A    between atoms: C_14  and  N_15
REMARK    8  A    between atoms: N_15  and  C_16
REMARK    9  A    between atoms: C_23  and  C_24
REMARK                            x       y       z     vdW  Elec       q    Type
REMARK                         _______ _______ _______ _____ _____    ______ ____
ROOT
ATOM      1  C   UNL     1      44.141   4.858  11.828  0.00  0.00    +0.000 C 
ATOM      2  C   UNL     1      42.973   5.084  12.790  0.00  0.00    +0.000 C 
ENDROOT
BRANCH   1   3
ATOM      3  C   UNL     1      45.432   5.461  12.378  0.00  0.00    +0.000 A 
ATOM      4  C   UNL     1      46.173   6.363  11.606  0.00  0.00    +0.000 A 
ATOM      5  C   UNL     1      47.391   6.857  12.075  0.00  0.00    +0.000 A 
ATOM      6  C   UNL     1      47.890   6.438  13.311  0.00  0.00    +0.000 A 
ATOM      7 CL   UNL     1      49.406   7.086  13.840  0.00  0.00    +0.000 Cl
ATOM      8  C   UNL     1      47.170   5.536  14.115  0.00  0.00    +0.000 A 
ATOM      9  C   UNL     1      45.929   5.085  13.644  0.00  0.00    +0.000 A 
BRANCH   8  10
ATOM     10  N   UNL     1      47.648   5.162  15.390  0.00  0.00    +0.000 N 
ATOM     11  H   UNL     1      48.613   5.454  15.545  0.00  0.00    +0.000 HD
BRANCH  10  12
ATOM     12  C   UNL     1      47.148   4.122  16.240  0.00  0.00    +0.000 C 
ATOM     13  C   UNL     1      47.208   4.486  17.731  0.00  0.00    +0.000 C 
ATOM     14  O   UNL     1      47.984   3.298  18.031  0.00  0.00    +0.000 OA
ATOM     15  C   UNL     1      48.153   3.031  16.616  0.00  0.00    +0.000 C 
ENDBRANCH  10  12
ENDBRANCH   8  10
ENDBRANCH   1   3
BRANCH   1  16
ATOM     16  C   UNL     1      44.363   3.365  11.515  0.00  0.00    +0.000 C 
BRANCH  16  17
ATOM     17  O   UNL     1      43.721   2.947  10.298  0.00  0.00    +0.000 OA
BRANCH  17  21
ATOM     18  C   UNL     1      46.787   0.196   7.645  0.00  0.00    +0.000 C 
ATOM     19  C   UNL     1      46.154   1.528   7.943  0.00  0.00    +0.000 A 
ATOM     20  C   UNL     1      45.218   1.631   8.992  0.00  0.00    +0.000 A 
ATOM     21  C   UNL     1      44.640   2.863   9.262  0.00  0.00    +0.000 A 
ATOM     22  N   UNL     1      44.940   3.981   8.569  0.00  0.00    +0.000 NA
ATOM     23  C   UNL     1      45.849   3.871   7.577  0.00  0.00    +0.000 A 
ATOM     24  C   UNL     1      46.468   2.686   7.207  0.00  0.00    +0.000 A 
BRANCH  24  25
ATOM     25  C   UNL     1      47.454   2.705   6.092  0.00  0.00    +0.000 C 
ATOM     26  N   UNL     1      48.780   2.642   6.417  0.00  0.00    +0.000 N 
ATOM     27  O   UNL     1      47.119   2.780   4.918  0.00  0.00    +0.000 OA
ATOM     28  H   UNL     1      49.153   2.766   7.348  0.00  0.00    +0.000 HD
ATOM     29  H   UNL     1      49.435   2.716   5.644  0.00  0.00    +0.000 HD
ENDBRANCH  24  25
ENDBRANCH  17  21
ENDBRANCH  16  17
ENDBRANCH   1  16
TORSDOF 7
ENDMDL
MODEL 2
REMARK VINA RESULT:    -8.052      2.928      4.512
REMARK INTER + INTRA:         -12.046
REMARK INTER:                 -11.208
REMARK INTRA:                  -0.837
REMARK UNBOUND:                -0.698
REMARK  Name = 
REMARK  9 active torsions:
REMARK  status: ('A' for Active; 'I' for Inactive)
REMARK    1  A    between atoms: C_1  and  C_2
REMARK    2  A    between atoms: C_4  and  O_5
REMARK    3  A    between atoms: O_5  and  C_6
REMARK    4  A    between atoms: C_6  and  C_7
REMARK    5  A    between atoms: C_7  and  C_8
REMARK    6  A    between atoms: C_7  and  C_9
REMARK    7  A    between atoms: C_14  and  N_15
REMARK    8  A    between atoms: N_15  and  C_16
REMARK    9  A    between atoms: C_23  and  C_24
REMARK                            x       y       z     vdW  Elec       q    Type
REMARK                         _______ _______ _______ _____ _____    ______ ____
ROOT
ATOM      1  C   UNL     1      44.460   4.916  12.094  0.00  0.00    +0.000 C 
ATOM      2  C   UNL     1      45.362   3.771  12.558  0.00  0.00    +0.000 C 
ENDROOT
BRANCH   1   3
ATOM      3  C   UNL     1      45.225   6.237  12.049  0.00  0.00    +0.000 A 
ATOM      4  C   UNL     1      46.608   6.242  11.835  0.00  0.00    +0.000 A 
ATOM      5  C   UNL     1      47.323   7.440  11.869  0.00  0.00    +0.000 A 
ATOM      6  C   UNL     1      46.664   8.643  12.137  0.00  0.00    +0.000 A 
ATOM      7 CL   UNL     1      47.602  10.098  12.164  0.00  0.00    +0.000 Cl
ATOM      8  C   UNL     1      45.274   8.676  12.352  0.00  0.00    +0.000 A 
ATOM      9  C   UNL     1      44.570   7.467  12.273  0.00  0.00    +0.000 A 
BRANCH   8  10
ATOM     10  N   UNL     1      44.602   9.901  12.563  0.00  0.00    +0.000 N 
ATOM     11  H   UNL     1      44.210   9.972  13.501  0.00  0.00    +0.000 HD
BRANCH  10  12
ATOM     12  C   UNL     1      44.061  10.782  11.571  0.00  0.00    +0.000 C 
ATOM     13  C   UNL     1      42.617  10.431  11.182  0.00  0.00    +0.000 C 
ATOM     14  O   UNL     1      42.977  10.326   9.782  0.00  0.00    +0.000 OA
ATOM     15  C   UNL     1      44.384  10.424  10.118  0.00  0.00    +0.000 C 
ENDBRANCH  10  12
ENDBRANCH   8  10
ENDBRANCH   1   3
BRANCH   1  16
ATOM     16  C   UNL     1      43.826   4.642  10.716  0.00  0.00    +0.000 C 
BRANCH  16  17
ATOM     17  O   UNL     1      43.905   3.259  10.330  0.00  0.00    +0.000 OA
BRANCH  17  21
ATOM     18  C   UNL     1      46.711   0.246   7.674  0.00  0.00    +0.000 C 
ATOM     19  C   UNL     1      46.191   1.627   7.965  0.00  0.00    +0.000 A 
ATOM     20  C   UNL     1      45.277   1.814   9.022  0.00  0.00    +0.000 A 
ATOM     21  C   UNL     1      44.803   3.091   9.285  0.00  0.00    +0.000 A 
ATOM     22  N   UNL     1      45.183   4.175   8.578  0.00  0.00    +0.000 NA
ATOM     23  C   UNL     1      46.069   3.983   7.577  0.00  0.00    +0.000 A 
ATOM     24  C   UNL     1      46.588   2.749   7.214  0.00  0.00    +0.000 A 
BRANCH  24  25
ATOM     25  C   UNL     1      47.559   2.679   6.089  0.00  0.00    +0.000 C 
ATOM     26  N   UNL     1      48.882   2.533   6.401  0.00  0.00    +0.000 N 
ATOM     27  O   UNL     1      47.217   2.752   4.917  0.00  0.00    +0.000 OA
ATOM     28  H   UNL     1      49.274   2.651   7.325  0.00  0.00    +0.000 HD
ATOM     29  H   UNL     1      49.532   2.547   5.620  0.00  0.00    +0.000 HD
ENDBRANCH  24  25
ENDBRANCH  17  21
ENDBRANCH  16  17
ENDBRANCH   1  16
TORSDOF 7
ENDMDL
MODEL 3
REMARK VINA RESULT:    -7.709      1.412      1.697
REMARK INTER + INTRA:         -11.562
REMARK INTER:                 -10.775
REMARK INTRA:                  -0.787
REMARK UNBOUND:                -0.698
REMARK  Name = 
REMARK  9 active torsions:
REMARK  status: ('A' for Active; 'I' for Inactive)
REMARK    1  A    between atoms: C_1  and  C_2
REMARK    2  A    between atoms: C_4  and  O_5
REMARK    3  A    between atoms: O_5  and  C_6
REMARK    4  A    between atoms: C_6  and  C_7
REMARK    5  A    between atoms: C_7  and  C_8
REMARK    6  A    between atoms: C_7  and  C_9
REMARK    7  A    between atoms: C_14  and  N_15
REMARK    8  A    between atoms: N_15  and  C_16
REMARK    9  A    between atoms: C_23  and  C_24
REMARK                            x       y       z     vdW  Elec       q    Type
REMARK                         _______ _______ _______ _____ _____    ______ ____
ROOT
ATOM      1  C   UNL     1      43.765   4.698  12.102  0.00  0.00    +0.000 C 
ATOM      2  C   UNL     1      43.084   4.393  13.438  0.00  0.00    +0.000 C 
ENDROOT
BRANCH   1   3
ATOM      3  C   UNL     1      44.771   5.838  12.245  0.00  0.00    +0.000 A 
ATOM      4  C   UNL     1      44.539   7.065  11.612  0.00  0.00    +0.000 A 
ATOM      5  C   UNL     1      45.492   8.083  11.677  0.00  0.00    +0.000 A 
ATOM      6  C   UNL     1      46.694   7.877  12.359  0.00  0.00    +0.000 A 
ATOM      7 CL   UNL     1      47.837   9.177  12.408  0.00  0.00    +0.000 Cl
ATOM      8  C   UNL     1      46.959   6.659  13.011  0.00  0.00    +0.000 A 
ATOM      9  C   UNL     1      45.971   5.665  12.968  0.00  0.00    +0.000 A 
BRANCH   8  10
ATOM     10  N   UNL     1      48.148   6.476  13.750  0.00  0.00    +0.000 N 
ATOM     11  H   UNL     1      48.793   5.829  13.295  0.00  0.00    +0.000 HD
BRANCH  10  12
ATOM     12  C   UNL     1      48.352   6.708  15.149  0.00  0.00    +0.000 C 
ATOM     13  C   UNL     1      49.836   6.750  15.540  0.00  0.00    +0.000 C 
ATOM     14  O   UNL     1      49.648   5.706  16.527  0.00  0.00    +0.000 OA
ATOM     15  C   UNL     1      48.303   5.465  16.042  0.00  0.00    +0.000 C 
ENDBRANCH  10  12
ENDBRANCH   8  10
ENDBRANCH   1   3
BRANCH   1  16
ATOM     16  C   UNL     1      44.469   3.462  11.507  0.00  0.00    +0.000 C 
BRANCH  16  17
ATOM     17  O   UNL     1      43.830   2.975  10.315  0.00  0.00    +0.000 OA
BRANCH  17  21
ATOM     18  C   UNL     1      46.787   0.184   7.581  0.00  0.00    +0.000 C 
ATOM     19  C   UNL     1      46.203   1.530   7.914  0.00  0.00    +0.000 A 
ATOM     20  C   UNL     1      45.275   1.640   8.970  0.00  0.00    +0.000 A 
ATOM     21  C   UNL     1      44.741   2.884   9.272  0.00  0.00    +0.000 A 
ATOM     22  N   UNL     1      45.075   4.007   8.605  0.00  0.00    +0.000 NA
ATOM     23  C   UNL     1      45.975   3.890   7.604  0.00  0.00    +0.000 A 
ATOM     24  C   UNL     1      46.552   2.693   7.204  0.00  0.00    +0.000 A 
BRANCH  24  25
ATOM     25  C   UNL     1      47.532   2.705   6.084  0.00  0.00    +0.000 C 
ATOM     26  N   UNL     1      48.861   2.688   6.404  0.00  0.00    +0.000 N 
ATOM     27  O   UNL     1      47.191   2.736   4.910  0.00  0.00    +0.000 OA
ATOM     28  H   UNL     1      49.235   2.850   7.329  0.00  0.00    +0.000 HD
ATOM     29  H   UNL     1      49.511   2.756   5.626  0.00  0.00    +0.000 HD
ENDBRANCH  24  25
ENDBRANCH  17  21
ENDBRANCH  16  17
ENDBRANCH   1  16
TORSDOF 7
ENDMDL
MODEL 4
REMARK VINA RESULT:    -6.723      2.589      8.538
REMARK INTER + INTRA:         -10.172
REMARK INTER:                  -9.467
REMARK INTRA:                  -0.706
REMARK UNBOUND:                -0.698
REMARK  Name = 
REMARK  9 active torsions:
REMARK  status: ('A' for Active; 'I' for Inactive)
REMARK    1  A    between atoms: C_1  and  C_2
REMARK    2  A    between atoms: C_4  and  O_5
REMARK    3  A    between atoms: O_5  and  C_6
REMARK    4  A    between atoms: C_6  and  C_7
REMARK    5  A    between atoms: C_7  and  C_8
REMARK    6  A    between atoms: C_7  and  C_9
REMARK    7  A    between atoms: C_14  and  N_15
REMARK    8  A    between atoms: N_15  and  C_16
REMARK    9  A    between atoms: C_23  and  C_24
REMARK                            x       y       z     vdW  Elec       q    Type
REMARK                         _______ _______ _______ _____ _____    ______ ____
ROOT
ATOM      1  C   UNL     1      45.591   6.447  11.718  0.00  0.00    +0.000 C 
ATOM      2  C   UNL     1      46.760   7.157  11.033  0.00  0.00    +0.000 C 
ENDROOT
BRANCH   1   3
ATOM      3  C   UNL     1      45.181   5.193  10.948  0.00  0.00    +0.000 A 
ATOM      4  C   UNL     1      44.413   4.204  11.573  0.00  0.00    +0.000 A 
ATOM      5  C   UNL     1      44.100   3.023  10.897  0.00  0.00    +0.000 A 
ATOM      6  C   UNL     1      44.571   2.811   9.598  0.00  0.00    +0.000 A 
ATOM      7 CL   UNL     1      44.150   1.328   8.810  0.00  0.00    +0.000 Cl
ATOM      8  C   UNL     1      45.341   3.786   8.938  0.00  0.00    +0.000 A 
ATOM      9  C   UNL     1      45.607   4.982   9.620  0.00  0.00    +0.000 A 
BRANCH   8  10
ATOM     10  N   UNL     1      45.763   3.595   7.604  0.00  0.00    +0.000 N 
ATOM     11  H   UNL     1      44.982   3.434   6.969  0.00  0.00    +0.000 HD
BRANCH  10  12
ATOM     12  C   UNL     1      47.058   3.185   7.148  0.00  0.00    +0.000 C 
ATOM     13  C   UNL     1      47.085   2.844   5.651  0.00  0.00    +0.000 C 
ATOM     14  O   UNL     1      47.611   1.520   5.920  0.00  0.00    +0.000 OA
ATOM     15  C   UNL     1      47.391   1.703   7.342  0.00  0.00    +0.000 C 
ENDBRANCH  10  12
ENDBRANCH   8  10
ENDBRANCH   1   3
BRANCH   1  16
ATOM     16  C   UNL     1      45.907   6.072  13.180  0.00  0.00    +0.000 C 
BRANCH  16  17
ATOM     17  O   UNL     1      46.953   5.091  13.292  0.00  0.00    +0.000 OA
BRANCH  17  21
ATOM     18  C   UNL     1      47.341   2.905  17.660  0.00  0.00    +0.000 C 
ATOM     19  C   UNL     1      47.695   4.032  16.728  0.00  0.00    +0.000 A 
ATOM     20  C   UNL     1      47.160   4.048  15.425  0.00  0.00    +0.000 A 
ATOM     21  C   UNL     1      47.490   5.090  14.572  0.00  0.00    +0.000 A 
ATOM     22  N   UNL     1      48.300   6.106  14.934  0.00  0.00    +0.000 NA
ATOM     23  C   UNL     1      48.796   6.086  16.191  0.00  0.00    +0.000 A 
ATOM     24  C   UNL     1      48.550   5.081  17.116  0.00  0.00    +0.000 A 
BRANCH  24  25
ATOM     25  C   UNL     1      49.161   5.183  18.469  0.00  0.00    +0.000 C 
ATOM     26  N   UNL     1      48.493   5.913  19.413  0.00  0.00    +0.000 N 
ATOM     27  O   UNL     1      50.223   4.648  18.755  0.00  0.00    +0.000 OA
ATOM     28  H   UNL     1      47.720   6.535  19.221  0.00  0.00    +0.000 HD
ATOM     29  H   UNL     1      48.957   6.017  20.310  0.00  0.00    +0.000 HD
ENDBRANCH  24  25
ENDBRANCH  17  21
ENDBRANCH  16  17
ENDBRANCH   1  16
TORSDOF 7
ENDMDL
MODEL 5
REMARK VINA RESULT:    -6.640      2.813      8.432
REMARK INTER + INTRA:         -10.056
REMARK INTER:                  -9.217
REMARK INTRA:                  -0.839
REMARK UNBOUND:                -0.698
REMARK  Name = 
REMARK  9 active torsions:
REMARK  status: ('A' for Active; 'I' for Inactive)
REMARK    1  A    between atoms: C_1  and  C_2
REMARK    2  A    between atoms: C_4  and  O_5
REMARK    3  A    between atoms: O_5  and  C_6
REMARK    4  A    between atoms: C_6  and  C_7
REMARK    5  A    between atoms: C_7  and  C_8
REMARK    6  A    between atoms: C_7  and  C_9
REMARK    7  A    between atoms: C_14  and  N_15
REMARK    8  A    between atoms: N_15  and  C_16
REMARK    9  A    between atoms: C_23  and  C_24
REMARK                            x       y       z     vdW  Elec       q    Type
REMARK                         _______ _______ _______ _____ _____    ______ ____
ROOT
ATOM      1  C   UNL     1      47.324   7.484  12.189  0.00  0.00    +0.000 C 
ATOM      2  C   UNL     1      48.574   7.112  11.389  0.00  0.00    +0.000 C 
ENDROOT
BRANCH   1   3
ATOM      3  C   UNL     1      46.271   6.381  12.110  0.00  0.00    +0.000 A 
ATOM      4  C   UNL     1      46.004   5.583  13.228  0.00  0.00    +0.000 A 
ATOM      5  C   UNL     1      45.097   4.525  13.138  0.00  0.00    +0.000 A 
ATOM      6  C   UNL     1      44.464   4.244  11.924  0.00  0.00    +0.000 A 
ATOM      7 CL   UNL     1      43.348   2.921  11.874  0.00  0.00    +0.000 Cl
ATOM      8  C   UNL     1      44.705   5.029  10.782  0.00  0.00    +0.000 A 
ATOM      9  C   UNL     1      45.587   6.111  10.905  0.00  0.00    +0.000 A 
BRANCH   8  10
ATOM     10  N   UNL     1      44.018   4.780   9.574  0.00  0.00    +0.000 N 
ATOM     11  H   UNL     1      43.012   4.921   9.662  0.00  0.00    +0.000 HD
BRANCH  10  12
ATOM     12  C   UNL     1      44.461   3.987   8.465  0.00  0.00    +0.000 C 
ATOM     13  C   UNL     1      44.685   2.513   8.834  0.00  0.00    +0.000 C 
ATOM     14  O   UNL     1      46.051   2.558   8.354  0.00  0.00    +0.000 OA
ATOM     15  C   UNL     1      45.969   3.998   8.201  0.00  0.00    +0.000 C 
ENDBRANCH  10  12
ENDBRANCH   8  10
ENDBRANCH   1   3
BRANCH   1  16
ATOM     16  C   UNL     1      47.643   7.787  13.667  0.00  0.00    +0.000 C 
BRANCH  16  17
ATOM     17  O   UNL     1      49.051   7.746  13.955  0.00  0.00    +0.000 OA
BRANCH  17  21
ATOM     18  C   UNL     1      47.387   4.472  17.197  0.00  0.00    +0.000 C 
ATOM     19  C   UNL     1      48.509   5.309  16.646  0.00  0.00    +0.000 A 
ATOM     20  C   UNL     1      48.267   6.151  15.543  0.00  0.00    +0.000 A 
ATOM     21  C   UNL     1      49.306   6.921  15.041  0.00  0.00    +0.000 A 
ATOM     22  N   UNL     1      50.548   6.910  15.567  0.00  0.00    +0.000 NA
ATOM     23  C   UNL     1      50.762   6.108  16.633  0.00  0.00    +0.000 A 
ATOM     24  C   UNL     1      49.803   5.280  17.199  0.00  0.00    +0.000 A 
BRANCH  24  25
ATOM     25  C   UNL     1      50.174   4.446  18.374  0.00  0.00    +0.000 C 
ATOM     26  N   UNL     1      50.573   3.160  18.138  0.00  0.00    +0.000 N 
ATOM     27  O   UNL     1      50.127   4.866  19.522  0.00  0.00    +0.000 OA
ATOM     28  H   UNL     1      50.464   2.674  17.258  0.00  0.00    +0.000 HD
ATOM     29  H   UNL     1      50.764   2.591  18.958  0.00  0.00    +0.000 HD
ENDBRANCH  24  25
ENDBRANCH  17  21
ENDBRANCH  16  17
ENDBRANCH   1  16
TORSDOF 7
ENDMDL
MODEL 6
REMARK VINA RESULT:    -6.515      4.292      6.222
REMARK INTER + INTRA:          -9.879
REMARK INTER:                  -8.975
REMARK INTRA:                  -0.905
REMARK UNBOUND:                -0.698
REMARK  Name = 
REMARK  9 active torsions:
REMARK  status: ('A' for Active; 'I' for Inactive)
REMARK    1  A    between atoms: C_1  and  C_2
REMARK    2  A    between atoms: C_4  and  O_5
REMARK    3  A    between atoms: O_5  and  C_6
REMARK    4  A    between atoms: C_6  and  C_7
REMARK    5  A    between atoms: C_7  and  C_8
REMARK    6  A    between atoms: C_7  and  C_9
REMARK    7  A    between atoms: C_14  and  N_15
REMARK    8  A    between atoms: N_15  and  C_16
REMARK    9  A    between atoms: C_23  and  C_24
REMARK                            x       y       z     vdW  Elec       q    Type
REMARK                         _______ _______ _______ _____ _____    ______ ____
ROOT
ATOM      1  C   UNL     1      50.100   7.932  14.847  0.00  0.00    +0.000 C 
ATOM      2  C   UNL     1      50.369   9.425  15.049  0.00  0.00    +0.000 C 
ENDROOT
BRANCH   1   3
ATOM      3  C   UNL     1      49.557   7.293  16.124  0.00  0.00    +0.000 A 
ATOM      4  C   UNL     1      48.655   7.994  16.933  0.00  0.00    +0.000 A 
ATOM      5  C   UNL     1      48.216   7.444  18.138  0.00  0.00    +0.000 A 
ATOM      6  C   UNL     1      48.690   6.197  18.556  0.00  0.00    +0.000 A 
ATOM      7 CL   UNL     1      48.108   5.565  20.059  0.00  0.00    +0.000 Cl
ATOM      8  C   UNL     1      49.593   5.463  17.765  0.00  0.00    +0.000 A 
ATOM      9  C   UNL     1      49.989   6.015  16.539  0.00  0.00    +0.000 A 
BRANCH   8  10
ATOM     10  N   UNL     1      50.023   4.177  18.160  0.00  0.00    +0.000 N 
ATOM     11  H   UNL     1      51.019   4.149  18.373  0.00  0.00    +0.000 HD
BRANCH  10  12
ATOM     12  C   UNL     1      49.387   2.922  17.887  0.00  0.00    +0.000 C 
ATOM     13  C   UNL     1      50.243   1.996  17.011  0.00  0.00    +0.000 C 
ATOM     14  O   UNL     1      49.179   1.869  16.035  0.00  0.00    +0.000 OA
ATOM     15  C   UNL     1      48.421   2.911  16.700  0.00  0.00    +0.000 C 
ENDBRANCH  10  12
ENDBRANCH   8  10
ENDBRANCH   1   3
BRANCH   1  16
ATOM     16  C   UNL     1      49.125   7.665  13.683  0.00  0.00    +0.000 C 
BRANCH  16  17
ATOM     17  O   UNL     1      49.053   6.275  13.322  0.00  0.00    +0.000 OA
BRANCH  17  21
ATOM     18  C   UNL     1      44.655   7.156  11.350  0.00  0.00    +0.000 C 
ATOM     19  C   UNL     1      45.562   6.294  12.186  0.00  0.00    +0.000 A 
ATOM     20  C   UNL     1      46.905   6.679  12.373  0.00  0.00    +0.000 A 
ATOM     21  C   UNL     1      47.734   5.881  13.146  0.00  0.00    +0.000 A 
ATOM     22  N   UNL     1      47.313   4.745  13.741  0.00  0.00    +0.000 NA
ATOM     23  C   UNL     1      46.021   4.395  13.564  0.00  0.00    +0.000 A 
ATOM     24  C   UNL     1      45.113   5.107  12.793  0.00  0.00    +0.000 A 
BRANCH  24  25
ATOM     25  C   UNL     1      43.715   4.608  12.682  0.00  0.00    +0.000 C 
ATOM     26  N   UNL     1      42.722   5.379  13.219  0.00  0.00    +0.000 N 
ATOM     27  O   UNL     1      43.435   3.547  12.142  0.00  0.00    +0.000 OA
ATOM     28  H   UNL     1      42.871   6.163  13.839  0.00  0.00    +0.000 HD
ATOM     29  H   UNL     1      41.784   4.991  13.184  0.00  0.00    +0.000 HD
ENDBRANCH  24  25
ENDBRANCH  17  21
ENDBRANCH  16  17
ENDBRANCH   1  16
TORSDOF 7
ENDMDL
MODEL 7
REMARK VINA RESULT:    -6.498      3.309      5.313
REMARK INTER + INTRA:          -9.855
REMARK INTER:                  -8.934
REMARK INTRA:                  -0.922
REMARK UNBOUND:                -0.698
REMARK  Name = 
REMARK  9 active torsions:
REMARK  status: ('A' for Active; 'I' for Inactive)
REMARK    1  A    between atoms: C_1  and  C_2
REMARK    2  A    between atoms: C_4  and  O_5
REMARK    3  A    between atoms: O_5  and  C_6
REMARK    4  A    between atoms: C_6  and  C_7
REMARK    5  A    between atoms: C_7  and  C_8
REMARK    6  A    between atoms: C_7  and  C_9
REMARK    7  A    between atoms: C_14  and  N_15
REMARK    8  A    between atoms: N_15  and  C_16
REMARK    9  A    between atoms: C_23  and  C_24
REMARK                            x       y       z     vdW  Elec       q    Type
REMARK                         _______ _______ _______ _____ _____    ______ ____
ROOT
ATOM      1  C   UNL     1      49.605   8.158  13.555  0.00  0.00    +0.000 C 
ATOM      2  C   UNL     1      48.814   9.452  13.756  0.00  0.00    +0.000 C 
ENDROOT
BRANCH   1   3
ATOM      3  C   UNL     1      49.828   7.436  14.882  0.00  0.00    +0.000 A 
ATOM      4  C   UNL     1      51.094   7.437  15.479  0.00  0.00    +0.000 A 
ATOM      5  C   UNL     1      51.320   6.716  16.653  0.00  0.00    +0.000 A 
ATOM      6  C   UNL     1      50.287   5.971  17.229  0.00  0.00    +0.000 A 
ATOM      7 CL   UNL     1      50.627   5.098  18.686  0.00  0.00    +0.000 Cl
ATOM      8  C   UNL     1      49.001   5.951  16.659  0.00  0.00    +0.000 A 
ATOM      9  C   UNL     1      48.786   6.716  15.504  0.00  0.00    +0.000 A 
BRANCH   8  10
ATOM     10  N   UNL     1      47.945   5.247  17.277  0.00  0.00    +0.000 N 
ATOM     11  H   UNL     1      47.770   5.566  18.230  0.00  0.00    +0.000 HD
BRANCH  10  12
ATOM     12  C   UNL     1      47.437   3.953  16.930  0.00  0.00    +0.000 C 
ATOM     13  C   UNL     1      48.524   2.867  16.914  0.00  0.00    +0.000 C 
ATOM     14  O   UNL     1      48.203   2.510  15.546  0.00  0.00    +0.000 OA
ATOM     15  C   UNL     1      47.331   3.662  15.431  0.00  0.00    +0.000 C 
ENDBRANCH  10  12
ENDBRANCH   8  10
ENDBRANCH   1   3
BRANCH   1  16
ATOM     16  C   UNL     1      48.919   7.201  12.559  0.00  0.00    +0.000 C 
BRANCH  16  17
ATOM     17  O   UNL     1      47.685   7.726  12.039  0.00  0.00    +0.000 OA
BRANCH  17  21
ATOM     18  C   UNL     1      45.046   4.626   9.311  0.00  0.00    +0.000 C 
ATOM     19  C   UNL     1      45.408   5.200  10.654  0.00  0.00    +0.000 A 
ATOM     20  C   UNL     1      46.390   6.208  10.735  0.00  0.00    +0.000 A 
ATOM     21  C   UNL     1      46.717   6.733  11.977  0.00  0.00    +0.000 A 
ATOM     22  N   UNL     1      46.131   6.328  13.122  0.00  0.00    +0.000 NA
ATOM     23  C   UNL     1      45.182   5.370  13.028  0.00  0.00    +0.000 A 
ATOM     24  C   UNL     1      44.796   4.762  11.843  0.00  0.00    +0.000 A 
BRANCH  24  25
ATOM     25  C   UNL     1      43.736   3.718  11.882  0.00  0.00    +0.000 C 
ATOM     26  N   UNL     1      44.034   2.533  12.495  0.00  0.00    +0.000 N 
ATOM     27  O   UNL     1      42.630   3.883  11.386  0.00  0.00    +0.000 OA
ATOM     28  H   UNL     1      44.964   2.239  12.761  0.00  0.00    +0.000 HD
ATOM     29  H   UNL     1      43.316   1.815  12.457  0.00  0.00    +0.000 HD
ENDBRANCH  24  25
ENDBRANCH  17  21
ENDBRANCH  16  17
ENDBRANCH   1  16
TORSDOF 7
ENDMDL
MODEL 8
REMARK VINA RESULT:    -6.442      3.672      6.266
REMARK INTER + INTRA:          -9.776
REMARK INTER:                  -9.131
REMARK INTRA:                  -0.644
REMARK UNBOUND:                -0.698
REMARK  Name = 
REMARK  9 active torsions:
REMARK  status: ('A' for Active; 'I' for Inactive)
REMARK    1  A    between atoms: C_1  and  C_2
REMARK    2  A    between atoms: C_4  and  O_5
REMARK    3  A    between atoms: O_5  and  C_6
REMARK    4  A    between atoms: C_6  and  C_7
REMARK    5  A    between atoms: C_7  and  C_8
REMARK    6  A    between atoms: C_7  and  C_9
REMARK    7  A    between atoms: C_14  and  N_15
REMARK    8  A    between atoms: N_15  and  C_16
REMARK    9  A    between atoms: C_23  and  C_24
REMARK                            x       y       z     vdW  Elec       q    Type
REMARK                         _______ _______ _______ _____ _____    ______ ____
ROOT
ATOM      1  C   UNL     1      47.618   3.263  16.997  0.00  0.00    +0.000 C 
ATOM      2  C   UNL     1      48.690   2.233  16.638  0.00  0.00    +0.000 C 
ENDROOT
BRANCH   1   3
ATOM      3  C   UNL     1      48.108   4.210  18.091  0.00  0.00    +0.000 A 
ATOM      4  C   UNL     1      47.414   5.396  18.357  0.00  0.00    +0.000 A 
ATOM      5  C   UNL     1      47.901   6.301  19.302  0.00  0.00    +0.000 A 
ATOM      6  C   UNL     1      49.096   6.037  19.976  0.00  0.00    +0.000 A 
ATOM      7 CL   UNL     1      49.649   7.194  21.139  0.00  0.00    +0.000 Cl
ATOM      8  C   UNL     1      49.817   4.852  19.737  0.00  0.00    +0.000 A 
ATOM      9  C   UNL     1      49.288   3.939  18.814  0.00  0.00    +0.000 A 
BRANCH   8  10
ATOM     10  N   UNL     1      50.992   4.560  20.464  0.00  0.00    +0.000 N 
ATOM     11  H   UNL     1      50.800   4.327  21.437  0.00  0.00    +0.000 HD
BRANCH  10  12
ATOM     12  C   UNL     1      52.333   4.957  20.151  0.00  0.00    +0.000 C 
ATOM     13  C   UNL     1      52.603   5.020  18.640  0.00  0.00    +0.000 C 
ATOM     14  O   UNL     1      53.722   4.107  18.761  0.00  0.00    +0.000 OA
ATOM     15  C   UNL     1      53.373   3.833  20.141  0.00  0.00    +0.000 C 
ENDBRANCH  10  12
ENDBRANCH   8  10
ENDBRANCH   1   3
BRANCH   1  16
ATOM     16  C   UNL     1      47.159   4.082  15.774  0.00  0.00    +0.000 C 
BRANCH  16  17
ATOM     17  O   UNL     1      47.448   3.431  14.525  0.00  0.00    +0.000 OA
BRANCH  17  21
ATOM     18  C   UNL     1      45.382   7.089  12.003  0.00  0.00    +0.000 C 
ATOM     19  C   UNL     1      45.525   5.619  12.290  0.00  0.00    +0.000 A 
ATOM     20  C   UNL     1      46.429   5.192  13.283  0.00  0.00    +0.000 A 
ATOM     21  C   UNL     1      46.555   3.835  13.543  0.00  0.00    +0.000 A 
ATOM     22  N   UNL     1      45.841   2.894  12.891  0.00  0.00    +0.000 NA
ATOM     23  C   UNL     1      44.968   3.318  11.951  0.00  0.00    +0.000 A 
ATOM     24  C   UNL     1      44.781   4.646  11.596  0.00  0.00    +0.000 A 
BRANCH  24  25
ATOM     25  C   UNL     1      43.785   4.976  10.541  0.00  0.00    +0.000 C 
ATOM     26  N   UNL     1      44.140   4.750   9.240  0.00  0.00    +0.000 N 
ATOM     27  O   UNL     1      42.683   5.440  10.797  0.00  0.00    +0.000 OA
ATOM     28  H   UNL     1      45.079   4.551   8.924  0.00  0.00    +0.000 HD
ATOM     29  H   UNL     1      43.468   5.038   8.535  0.00  0.00    +0.000 HD
ENDBRANCH  24  25
ENDBRANCH  17  21
ENDBRANCH  16  17
ENDBRANCH   1  16
TORSDOF 7
ENDMDL
MODEL 9
REMARK VINA RESULT:    -6.360      3.598      6.181
REMARK INTER + INTRA:          -9.660
REMARK INTER:                  -8.507
REMARK INTRA:                  -1.153
REMARK UNBOUND:                -0.698
REMARK  Name = 
REMARK  9 active torsions:
REMARK  status: ('A' for Active; 'I' for Inactive)
REMARK    1  A    between atoms: C_1  and  C_2
REMARK    2  A    between atoms: C_4  and  O_5
REMARK    3  A    between atoms: O_5  and  C_6
REMARK    4  A    between atoms: C_6  and  C_7
REMARK    5  A    between atoms: C_7  and  C_8
REMARK    6  A    between atoms: C_7  and  C_9
REMARK    7  A    between atoms: C_14  and  N_15
REMARK    8  A    between atoms: N_15  and  C_16
REMARK    9  A    between atoms: C_23  and  C_24
REMARK                            x       y       z     vdW  Elec       q    Type
REMARK                         _______ _______ _______ _____ _____    ______ ____
ROOT
ATOM      1  C   UNL     1      48.091   3.312  17.373  0.00  0.00    +0.000 C 
ATOM      2  C   UNL     1      49.286   2.466  16.931  0.00  0.00    +0.000 C 
ENDROOT
BRANCH   1   3
ATOM      3  C   UNL     1      48.548   4.622  18.011  0.00  0.00    +0.000 A 
ATOM      4  C   UNL     1      49.326   4.604  19.175  0.00  0.00    +0.000 A 
ATOM      5  C   UNL     1      49.682   5.798  19.803  0.00  0.00    +0.000 A 
ATOM      6  C   UNL     1      49.247   7.021  19.286  0.00  0.00    +0.000 A 
ATOM      7 CL   UNL     1      49.722   8.469  20.107  0.00  0.00    +0.000 Cl
ATOM      8  C   UNL     1      48.469   7.077  18.115  0.00  0.00    +0.000 A 
ATOM      9  C   UNL     1      48.158   5.869  17.477  0.00  0.00    +0.000 A 
BRANCH   8  10
ATOM     10  N   UNL     1      48.082   8.317  17.561  0.00  0.00    +0.000 N 
ATOM     11  H   UNL     1      47.084   8.495  17.663  0.00  0.00    +0.000 HD
BRANCH  10  12
ATOM     12  C   UNL     1      48.771   9.080  16.561  0.00  0.00    +0.000 C 
ATOM     13  C   UNL     1      48.340   8.721  15.132  0.00  0.00    +0.000 C 
ATOM     14  O   UNL     1      49.707   8.430  14.749  0.00  0.00    +0.000 OA
ATOM     15  C   UNL     1      50.134   8.533  16.131  0.00  0.00    +0.000 C 
ENDBRANCH  10  12
ENDBRANCH   8  10
ENDBRANCH   1   3
BRANCH   1  16
ATOM     16  C   UNL     1      47.126   3.617  16.209  0.00  0.00    +0.000 C 
BRANCH  16  17
ATOM     17  O   UNL     1      47.652   3.224  14.929  0.00  0.00    +0.000 OA
BRANCH  17  21
ATOM     18  C   UNL     1      46.351   7.149  12.300  0.00  0.00    +0.000 C 
ATOM     19  C   UNL     1      46.236   5.678  12.594  0.00  0.00    +0.000 A 
ATOM     20  C   UNL     1      47.003   5.117  13.635  0.00  0.00    +0.000 A 
ATOM     21  C   UNL     1      46.891   3.760  13.900  0.00  0.00    +0.000 A 
ATOM     22  N   UNL     1      46.069   2.943  13.210  0.00  0.00    +0.000 NA
ATOM     23  C   UNL     1      45.330   3.496  12.224  0.00  0.00    +0.000 A 
ATOM     24  C   UNL     1      45.382   4.834  11.860  0.00  0.00    +0.000 A 
BRANCH  24  25
ATOM     25  C   UNL     1      44.511   5.313  10.752  0.00  0.00    +0.000 C 
ATOM     26  N   UNL     1      45.013   5.259   9.481  0.00  0.00    +0.000 N 
ATOM     27  O   UNL     1      43.385   5.751  10.941  0.00  0.00    +0.000 OA
ATOM     28  H   UNL     1      45.983   5.093   9.251  0.00  0.00    +0.000 HD
ATOM     29  H   UNL     1      44.424   5.646   8.749  0.00  0.00    +0.000 HD
ENDBRANCH  24  25
ENDBRANCH  17  21
ENDBRANCH  16  17
ENDBRANCH   1  16
TORSDOF 7
ENDMDL
