MODEL 1
REMARK VINA RESULT:    -8.143      0.000      0.000
REMARK INTER + INTRA:         -12.672
REMARK INTER:                 -11.714
REMARK INTRA:                  -0.958
REMARK UNBOUND:                -0.958
REMARK  Name = 
REMARK  8 active torsions:
REMARK  status: ('A' for Active; 'I' for Inactive)
REMARK    1  A    between atoms: N_1  and  C_2
REMARK    2  A    between atoms: C_2  and  C_3
REMARK    3  A    between atoms: C_3  and  C_4
REMARK    4  A    between atoms: C_4  and  C_5
REMARK    5  A    between atoms: C_6  and  C_7
REMARK    6  A    between atoms: N_9  and  C_10
REMARK    7  A    between atoms: C_10  and  C_11
REMARK    8  A    between atoms: C_14  and  C_15
REMARK                            x       y       z     vdW  Elec       q    Type
REMARK                         _______ _______ _______ _____ _____    ______ ____
ROOT
ATOM      1  C   UNL     1      46.231   4.501  13.643  0.00  0.00    +0.000 A 
ATOM      2  C   UNL     1      45.449   3.711  12.830  0.00  0.00    +0.000 A 
ATOM      3  N   UNL     1      44.875   4.513  11.880  0.00  0.00    +0.000 N 
ATOM      4  C   UNL     1      45.285   5.824  12.059  0.00  0.00    +0.000 A 
ATOM      5  C   UNL     1      45.009   6.994  11.341  0.00  0.00    +0.000 A 
ATOM      6  C   UNL     1      45.612   8.185  11.760  0.00  0.00    +0.000 A 
ATOM      7  C   UNL     1      46.457   8.215  12.869  0.00  0.00    +0.000 A 
ATOM      8  C   UNL     1      46.720   7.046  13.581  0.00  0.00    +0.000 A 
ATOM      9  C   UNL     1      46.138   5.832  13.174  0.00  0.00    +0.000 A 
ENDROOT
BRANCH   1  11
ATOM     10  C   UNL     1      47.709   3.513  15.708  0.00  0.00    +0.000 C 
ATOM     11  C   UNL     1      47.016   4.015  14.724  0.00  0.00    +0.000 C 
BRANCH  10  12
ATOM     12  C   UNL     1      48.518   2.928  16.854  0.00  0.00    +0.000 C 
BRANCH  12  13
ATOM     13  C   UNL     1      47.970   3.426  18.187  0.00  0.00    +0.000 C 
BRANCH  13  14
ATOM     14  C   UNL     1      47.829   4.945  18.184  0.00  0.00    +0.000 C 
BRANCH  14  15
ATOM     15  N   UNL     1      46.484   5.326  18.594  0.00  0.00    +0.000 NA
ATOM     16  H   UNL     1      45.882   4.503  18.598  0.00  0.00    +0.000 HD
ATOM     17  H   UNL     1      46.084   5.971  17.914  0.00  0.00    +0.000 HD
ENDBRANCH  14  15
ENDBRANCH  13  14
ENDBRANCH  12  13
ENDBRANCH  10  12
ENDBRANCH   1  11
BRANCH   3  18
ATOM     18  C   UNL     1      43.940   4.070  10.851  0.00  0.00    +0.000 C 
BRANCH  18  19
ATOM     19  C   UNL     1      44.614   3.560   9.602  0.00  0.00    +0.000 A 
ATOM     20  C   UNL     1      44.954   2.212   9.457  0.00  0.00    +0.000 A 
ATOM     21  C   UNL     1      45.765   1.806   8.397  0.00  0.00    +0.000 A 
ATOM     22  C   UNL     1      46.234   2.764   7.498  0.00  0.00    +0.000 A 
ATOM     23  N   UNL     1      45.835   4.065   7.573  0.00  0.00    +0.000 NA
ATOM     24  C   UNL     1      45.038   4.428   8.606  0.00  0.00    +0.000 A 
BRANCH  22  25
ATOM     25  C   UNL     1      47.274   2.375   6.454  0.00  0.00    +0.000 C 
ATOM     26  F   UNL     1      47.091   3.002   5.252  0.00  0.00    +0.000 F 
ATOM     27  F   UNL     1      48.550   2.665   6.830  0.00  0.00    +0.000 F 
ATOM     28  F   UNL     1      47.262   1.040   6.162  0.00  0.00    +0.000 F 
ENDBRANCH  22  25
ENDBRANCH  18  19
ENDBRANCH   3  18
TORSDOF 8
ENDMDL
MODEL 2
REMARK VINA RESULT:    -7.431      2.149      4.919
REMARK INTER + INTRA:         -11.647
REMARK INTER:                 -10.870
REMARK INTRA:                  -0.777
REMARK UNBOUND:                -0.958
REMARK  Name = 
REMARK  8 active torsions:
REMARK  status: ('A' for Active; 'I' for Inactive)
REMARK    1  A    between atoms: N_1  and  C_2
REMARK    2  A    between atoms: C_2  and  C_3
REMARK    3  A    between atoms: C_3  and  C_4
REMARK    4  A    between atoms: C_4  and  C_5
REMARK    5  A    between atoms: C_6  and  C_7
REMARK    6  A    between atoms: N_9  and  C_10
REMARK    7  A    between atoms: C_10  and  C_11
REMARK    8  A    between atoms: C_14  and  C_15
REMARK                            x       y       z     vdW  Elec       q    Type
REMARK                         _______ _______ _______ _____ _____    ______ ____
ROOT
ATOM      1  C   UNL     1      44.949   6.849  11.775  0.00  0.00    +0.000 A 
ATOM      2  C   UNL     1      44.171   6.052  10.966  0.00  0.00    +0.000 A 
ATOM      3  N   UNL     1      44.468   4.745  11.243  0.00  0.00    +0.000 N 
ATOM      4  C   UNL     1      45.430   4.679  12.238  0.00  0.00    +0.000 A 
ATOM      5  C   UNL     1      46.033   3.593  12.883  0.00  0.00    +0.000 A 
ATOM      6  C   UNL     1      46.967   3.857  13.891  0.00  0.00    +0.000 A 
ATOM      7  C   UNL     1      47.301   5.166  14.240  0.00  0.00    +0.000 A 
ATOM      8  C   UNL     1      46.700   6.241  13.587  0.00  0.00    +0.000 A 
ATOM      9  C   UNL     1      45.748   6.004  12.579  0.00  0.00    +0.000 A 
ENDROOT
BRANCH   1  11
ATOM     10  C   UNL     1      44.792   9.570  11.784  0.00  0.00    +0.000 C 
ATOM     11  C   UNL     1      44.893   8.270  11.800  0.00  0.00    +0.000 C 
BRANCH  10  12
ATOM     12  C   UNL     1      44.673  11.085  11.767  0.00  0.00    +0.000 C 
BRANCH  12  13
ATOM     13  C   UNL     1      43.628  11.516  10.743  0.00  0.00    +0.000 C 
BRANCH  13  14
ATOM     14  C   UNL     1      42.248  10.983  11.117  0.00  0.00    +0.000 C 
BRANCH  14  15
ATOM     15  N   UNL     1      41.921  11.354  12.488  0.00  0.00    +0.000 NA
ATOM     16  H   UNL     1      41.460  10.572  12.952  0.00  0.00    +0.000 HD
ATOM     17  H   UNL     1      41.251  12.123  12.488  0.00  0.00    +0.000 HD
ENDBRANCH  14  15
ENDBRANCH  13  14
ENDBRANCH  12  13
ENDBRANCH  10  12
ENDBRANCH   1  11
BRANCH   3  18
ATOM     18  C   UNL     1      43.891   3.585  10.571  0.00  0.00    +0.000 C 
BRANCH  18  19
ATOM     19  C   UNL     1      44.655   3.158   9.342  0.00  0.00    +0.000 A 
ATOM     20  C   UNL     1      45.119   1.849   9.191  0.00  0.00    +0.000 A 
ATOM     21  C   UNL     1      46.001   1.535   8.158  0.00  0.00    +0.000 A 
ATOM     22  C   UNL     1      46.417   2.546   7.292  0.00  0.00    +0.000 A 
ATOM     23  N   UNL     1      45.901   3.806   7.369  0.00  0.00    +0.000 NA
ATOM     24  C   UNL     1      45.037   4.079   8.375  0.00  0.00    +0.000 A 
BRANCH  22  25
ATOM     25  C   UNL     1      47.526   2.269   6.283  0.00  0.00    +0.000 C 
ATOM     26  F   UNL     1      47.263   2.777   5.040  0.00  0.00    +0.000 F 
ATOM     27  F   UNL     1      48.729   2.793   6.647  0.00  0.00    +0.000 F 
ATOM     28  F   UNL     1      47.742   0.935   6.082  0.00  0.00    +0.000 F 
ENDBRANCH  22  25
ENDBRANCH  18  19
ENDBRANCH   3  18
TORSDOF 8
ENDMDL
MODEL 3
REMARK VINA RESULT:    -7.154      4.462      8.022
REMARK INTER + INTRA:         -11.248
REMARK INTER:                 -10.709
REMARK INTRA:                  -0.539
REMARK UNBOUND:                -0.958
REMARK  Name = 
REMARK  8 active torsions:
REMARK  status: ('A' for Active; 'I' for Inactive)
REMARK    1  A    between atoms: N_1  and  C_2
REMARK    2  A    between atoms: C_2  and  C_3
REMARK    3  A    between atoms: C_3  and  C_4
REMARK    4  A    between atoms: C_4  and  C_5
REMARK    5  A    between atoms: C_6  and  C_7
REMARK    6  A    between atoms: N_9  and  C_10
REMARK    7  A    between atoms: C_10  and  C_11
REMARK    8  A    between atoms: C_14  and  C_15
REMARK                            x       y       z     vdW  Elec       q    Type
REMARK                         _______ _______ _______ _____ _____    ______ ____
ROOT
ATOM      1  C   UNL     1      45.551   4.822   9.526  0.00  0.00    +0.000 A 
ATOM      2  C   UNL     1      45.986   6.071   9.911  0.00  0.00    +0.000 A 
ATOM      3  N   UNL     1      45.462   6.342  11.147  0.00  0.00    +0.000 N 
ATOM      4  C   UNL     1      44.694   5.274  11.580  0.00  0.00    +0.000 A 
ATOM      5  C   UNL     1      43.989   5.054  12.769  0.00  0.00    +0.000 A 
ATOM      6  C   UNL     1      43.322   3.834  12.926  0.00  0.00    +0.000 A 
ATOM      7  C   UNL     1      43.346   2.864  11.924  0.00  0.00    +0.000 A 
ATOM      8  C   UNL     1      44.047   3.096  10.741  0.00  0.00    +0.000 A 
ATOM      9  C   UNL     1      44.737   4.308  10.562  0.00  0.00    +0.000 A 
ENDROOT
BRANCH   1  11
ATOM     10  C   UNL     1      46.312   3.572   7.227  0.00  0.00    +0.000 C 
ATOM     11  C   UNL     1      45.919   4.179   8.313  0.00  0.00    +0.000 C 
BRANCH  10  12
ATOM     12  C   UNL     1      46.767   2.863   5.963  0.00  0.00    +0.000 C 
BRANCH  12  13
ATOM     13  C   UNL     1      47.391   1.516   6.315  0.00  0.00    +0.000 C 
BRANCH  13  14
ATOM     14  C   UNL     1      46.840   0.992   7.637  0.00  0.00    +0.000 C 
BRANCH  14  15
ATOM     15  N   UNL     1      46.894  -0.464   7.663  0.00  0.00    +0.000 NA
ATOM     16  H   UNL     1      47.404  -0.801   6.847  0.00  0.00    +0.000 HD
ATOM     17  H   UNL     1      45.951  -0.847   7.590  0.00  0.00    +0.000 HD
ENDBRANCH  14  15
ENDBRANCH  13  14
ENDBRANCH  12  13
ENDBRANCH  10  12
ENDBRANCH   1  11
BRANCH   3  18
ATOM     18  C   UNL     1      45.648   7.585  11.889  0.00  0.00    +0.000 C 
BRANCH  18  19
ATOM     19  C   UNL     1      46.707   7.496  12.959  0.00  0.00    +0.000 A 
ATOM     20  C   UNL     1      47.050   8.604  13.738  0.00  0.00    +0.000 A 
ATOM     21  C   UNL     1      48.173   8.557  14.564  0.00  0.00    +0.000 A 
ATOM     22  C   UNL     1      48.945   7.396  14.591  0.00  0.00    +0.000 A 
ATOM     23  N   UNL     1      48.571   6.276  13.909  0.00  0.00    +0.000 NA
ATOM     24  C   UNL     1      47.470   6.348  13.125  0.00  0.00    +0.000 A 
BRANCH  22  25
ATOM     25  C   UNL     1      50.278   7.392  15.332  0.00  0.00    +0.000 C 
ATOM     26  F   UNL     1      51.352   7.599  14.510  0.00  0.00    +0.000 F 
ATOM     27  F   UNL     1      50.363   8.351  16.295  0.00  0.00    +0.000 F 
ATOM     28  F   UNL     1      50.536   6.205  15.959  0.00  0.00    +0.000 F 
ENDBRANCH  22  25
ENDBRANCH  18  19
ENDBRANCH   3  18
TORSDOF 8
ENDMDL
MODEL 4
REMARK VINA RESULT:    -7.088      2.015      4.150
REMARK INTER + INTRA:         -11.153
REMARK INTER:                 -10.234
REMARK INTRA:                  -0.919
REMARK UNBOUND:                -0.958
REMARK  Name = 
REMARK  8 active torsions:
REMARK  status: ('A' for Active; 'I' for Inactive)
REMARK    1  A    between atoms: N_1  and  C_2
REMARK    2  A    between atoms: C_2  and  C_3
REMARK    3  A    between atoms: C_3  and  C_4
REMARK    4  A    between atoms: C_4  and  C_5
REMARK    5  A    between atoms: C_6  and  C_7
REMARK    6  A    between atoms: N_9  and  C_10
REMARK    7  A    between atoms: C_10  and  C_11
REMARK    8  A    between atoms: C_14  and  C_15
REMARK                            x       y       z     vdW  Elec       q    Type
REMARK                         _______ _______ _______ _____ _____    ______ ____
ROOT
ATOM      1  C   UNL     1      45.903   7.320  11.971  0.00  0.00    +0.000 A 
ATOM      2  C   UNL     1      44.909   6.869  11.131  0.00  0.00    +0.000 A 
ATOM      3  N   UNL     1      44.749   5.526  11.342  0.00  0.00    +0.000 N 
ATOM      4  C   UNL     1      45.626   5.094  12.323  0.00  0.00    +0.000 A 
ATOM      5  C   UNL     1      45.826   3.839  12.910  0.00  0.00    +0.000 A 
ATOM      6  C   UNL     1      46.786   3.726  13.921  0.00  0.00    +0.000 A 
ATOM      7  C   UNL     1      47.536   4.828  14.330  0.00  0.00    +0.000 A 
ATOM      8  C   UNL     1      47.335   6.073  13.735  0.00  0.00    +0.000 A 
ATOM      9  C   UNL     1      46.366   6.218  12.726  0.00  0.00    +0.000 A 
ENDROOT
BRANCH   1  11
ATOM     10  C   UNL     1      46.772   9.897  12.137  0.00  0.00    +0.000 C 
ATOM     11  C   UNL     1      46.325   8.674  12.065  0.00  0.00    +0.000 C 
BRANCH  10  12
ATOM     12  C   UNL     1      47.292  11.323  12.220  0.00  0.00    +0.000 C 
BRANCH  12  13
ATOM     13  C   UNL     1      48.650  11.344  12.913  0.00  0.00    +0.000 C 
BRANCH  13  14
ATOM     14  C   UNL     1      48.726  10.270  13.993  0.00  0.00    +0.000 C 
BRANCH  14  15
ATOM     15  N   UNL     1      48.713  10.884  15.314  0.00  0.00    +0.000 NA
ATOM     16  H   UNL     1      48.049  11.657  15.325  0.00  0.00    +0.000 HD
ATOM     17  H   UNL     1      49.627  11.287  15.518  0.00  0.00    +0.000 HD
ENDBRANCH  14  15
ENDBRANCH  13  14
ENDBRANCH  12  13
ENDBRANCH  10  12
ENDBRANCH   1  11
BRANCH   3  18
ATOM     18  C   UNL     1      43.823   4.660  10.619  0.00  0.00    +0.000 C 
BRANCH  18  19
ATOM     19  C   UNL     1      44.480   3.845   9.534  0.00  0.00    +0.000 A 
ATOM     20  C   UNL     1      44.581   2.454   9.628  0.00  0.00    +0.000 A 
ATOM     21  C   UNL     1      45.378   1.749   8.727  0.00  0.00    +0.000 A 
ATOM     22  C   UNL     1      46.075   2.452   7.744  0.00  0.00    +0.000 A 
ATOM     23  N   UNL     1      45.913   3.796   7.583  0.00  0.00    +0.000 NA
ATOM     24  C   UNL     1      45.125   4.453   8.464  0.00  0.00    +0.000 A 
BRANCH  22  25
ATOM     25  C   UNL     1      47.099   1.727   6.879  0.00  0.00    +0.000 C 
ATOM     26  F   UNL     1      46.941   1.967   5.541  0.00  0.00    +0.000 F 
ATOM     27  F   UNL     1      48.386   2.070   7.164  0.00  0.00    +0.000 F 
ATOM     28  F   UNL     1      47.035   0.368   7.004  0.00  0.00    +0.000 F 
ENDBRANCH  22  25
ENDBRANCH  18  19
ENDBRANCH   3  18
TORSDOF 8
ENDMDL
MODEL 5
REMARK VINA RESULT:    -6.829      2.497      3.323
REMARK INTER + INTRA:         -10.781
REMARK INTER:                  -9.908
REMARK INTRA:                  -0.873
REMARK UNBOUND:                -0.958
REMARK  Name = 
REMARK  8 active torsions:
REMARK  status: ('A' for Active; 'I' for Inactive)
REMARK    1  A    between atoms: N_1  and  C_2
REMARK    2  A    between atoms: C_2  and  C_3
REMARK    3  A    between atoms: C_3  and  C_4
REMARK    4  A    between atoms: C_4  and  C_5
REMARK    5  A    between atoms: C_6  and  C_7
REMARK    6  A    between atoms: N_9  and  C_10
REMARK    7  A    between atoms: C_10  and  C_11
REMARK    8  A    between atoms: C_14  and  C_15
REMARK                            x       y       z     vdW  Elec       q    Type
REMARK                         _______ _______ _______ _____ _____    ______ ____
ROOT
ATOM      1  C   UNL     1      46.775   6.659  12.873  0.00  0.00    +0.000 A 
ATOM      2  C   UNL     1      46.280   5.430  12.497  0.00  0.00    +0.000 A 
ATOM      3  N   UNL     1      45.130   5.635  11.782  0.00  0.00    +0.000 N 
ATOM      4  C   UNL     1      44.874   6.992  11.678  0.00  0.00    +0.000 A 
ATOM      5  C   UNL     1      43.857   7.703  11.029  0.00  0.00    +0.000 A 
ATOM      6  C   UNL     1      43.890   9.100  11.079  0.00  0.00    +0.000 A 
ATOM      7  C   UNL     1      44.899   9.774  11.767  0.00  0.00    +0.000 A 
ATOM      8  C   UNL     1      45.904   9.057  12.415  0.00  0.00    +0.000 A 
ATOM      9  C   UNL     1      45.903   7.652  12.369  0.00  0.00    +0.000 A 
ENDROOT
BRANCH   1  11
ATOM     10  C   UNL     1      49.103   7.079  14.227  0.00  0.00    +0.000 C 
ATOM     11  C   UNL     1      47.981   6.854  13.601  0.00  0.00    +0.000 C 
BRANCH  10  12
ATOM     12  C   UNL     1      50.409   7.341  14.958  0.00  0.00    +0.000 C 
BRANCH  12  13
ATOM     13  C   UNL     1      51.060   8.613  14.424  0.00  0.00    +0.000 C 
BRANCH  13  14
ATOM     14  C   UNL     1      51.188   8.560  12.904  0.00  0.00    +0.000 C 
BRANCH  14  15
ATOM     15  N   UNL     1      52.470   7.981  12.527  0.00  0.00    +0.000 NA
ATOM     16  H   UNL     1      53.195   8.313  13.162  0.00  0.00    +0.000 HD
ATOM     17  H   UNL     1      52.735   8.302  11.596  0.00  0.00    +0.000 HD
ENDBRANCH  14  15
ENDBRANCH  13  14
ENDBRANCH  12  13
ENDBRANCH  10  12
ENDBRANCH   1  11
BRANCH   3  18
ATOM     18  C   UNL     1      44.274   4.585  11.239  0.00  0.00    +0.000 C 
BRANCH  18  19
ATOM     19  C   UNL     1      44.785   3.998   9.947  0.00  0.00    +0.000 A 
ATOM     20  C   UNL     1      44.912   2.617   9.774  0.00  0.00    +0.000 A 
ATOM     21  C   UNL     1      45.585   2.111   8.663  0.00  0.00    +0.000 A 
ATOM     22  C   UNL     1      46.134   3.001   7.740  0.00  0.00    +0.000 A 
ATOM     23  N   UNL     1      45.938   4.346   7.846  0.00  0.00    +0.000 NA
ATOM     24  C   UNL     1      45.271   4.809   8.929  0.00  0.00    +0.000 A 
BRANCH  22  25
ATOM     25  C   UNL     1      47.037   2.477   6.629  0.00  0.00    +0.000 C 
ATOM     26  F   UNL     1      46.863   1.144   6.377  0.00  0.00    +0.000 F 
ATOM     27  F   UNL     1      46.846   3.105   5.436  0.00  0.00    +0.000 F 
ATOM     28  F   UNL     1      48.367   2.612   6.916  0.00  0.00    +0.000 F 
ENDBRANCH  22  25
ENDBRANCH  18  19
ENDBRANCH   3  18
TORSDOF 8
ENDMDL
MODEL 6
REMARK VINA RESULT:    -6.088      4.895      8.649
REMARK INTER + INTRA:          -9.715
REMARK INTER:                  -8.802
REMARK INTRA:                  -0.913
REMARK UNBOUND:                -0.958
REMARK  Name = 
REMARK  8 active torsions:
REMARK  status: ('A' for Active; 'I' for Inactive)
REMARK    1  A    between atoms: N_1  and  C_2
REMARK    2  A    between atoms: C_2  and  C_3
REMARK    3  A    between atoms: C_3  and  C_4
REMARK    4  A    between atoms: C_4  and  C_5
REMARK    5  A    between atoms: C_6  and  C_7
REMARK    6  A    between atoms: N_9  and  C_10
REMARK    7  A    between atoms: C_10  and  C_11
REMARK    8  A    between atoms: C_14  and  C_15
REMARK                            x       y       z     vdW  Elec       q    Type
REMARK                         _______ _______ _______ _____ _____    ______ ____
ROOT
ATOM      1  C   UNL     1      46.777   4.709  13.961  0.00  0.00    +0.000 A 
ATOM      2  C   UNL     1      46.959   4.125  15.195  0.00  0.00    +0.000 A 
ATOM      3  N   UNL     1      47.846   4.892  15.902  0.00  0.00    +0.000 N 
ATOM      4  C   UNL     1      48.239   5.982  15.144  0.00  0.00    +0.000 A 
ATOM      5  C   UNL     1      49.090   7.057  15.425  0.00  0.00    +0.000 A 
ATOM      6  C   UNL     1      49.265   8.038  14.443  0.00  0.00    +0.000 A 
ATOM      7  C   UNL     1      48.621   7.947  13.210  0.00  0.00    +0.000 A 
ATOM      8  C   UNL     1      47.780   6.869  12.936  0.00  0.00    +0.000 A 
ATOM      9  C   UNL     1      47.575   5.876  13.911  0.00  0.00    +0.000 A 
ENDROOT
BRANCH   1  11
ATOM     10  C   UNL     1      45.071   3.721  12.080  0.00  0.00    +0.000 C 
ATOM     11  C   UNL     1      45.895   4.219  12.959  0.00  0.00    +0.000 C 
BRANCH  10  12
ATOM     12  C   UNL     1      44.108   3.143  11.056  0.00  0.00    +0.000 C 
BRANCH  12  13
ATOM     13  C   UNL     1      44.830   2.915   9.732  0.00  0.00    +0.000 C 
BRANCH  13  14
ATOM     14  C   UNL     1      44.503   4.025   8.737  0.00  0.00    +0.000 C 
BRANCH  14  15
ATOM     15  N   UNL     1      45.542   5.046   8.763  0.00  0.00    +0.000 NA
ATOM     16  H   UNL     1      45.121   5.957   8.940  0.00  0.00    +0.000 HD
ATOM     17  H   UNL     1      45.989   5.109   7.848  0.00  0.00    +0.000 HD
ENDBRANCH  14  15
ENDBRANCH  13  14
ENDBRANCH  12  13
ENDBRANCH  10  12
ENDBRANCH   1  11
BRANCH   3  18
ATOM     18  C   UNL     1      48.339   4.594  17.243  0.00  0.00    +0.000 C 
BRANCH  18  19
ATOM     19  C   UNL     1      49.646   3.842  17.252  0.00  0.00    +0.000 A 
ATOM     20  C   UNL     1      49.692   2.460  17.045  0.00  0.00    +0.000 A 
ATOM     21  C   UNL     1      50.876   1.759  17.272  0.00  0.00    +0.000 A 
ATOM     22  C   UNL     1      52.001   2.454  17.715  0.00  0.00    +0.000 A 
ATOM     23  N   UNL     1      51.997   3.813  17.831  0.00  0.00    +0.000 NA
ATOM     24  C   UNL     1      50.837   4.469  17.593  0.00  0.00    +0.000 A 
BRANCH  22  25
ATOM     25  C   UNL     1      53.241   1.684  18.155  0.00  0.00    +0.000 C 
ATOM     26  F   UNL     1      53.753   2.123  19.346  0.00  0.00    +0.000 F 
ATOM     27  F   UNL     1      53.018   0.351  18.320  0.00  0.00    +0.000 F 
ATOM     28  F   UNL     1      54.274   1.786  17.267  0.00  0.00    +0.000 F 
ENDBRANCH  22  25
ENDBRANCH  18  19
ENDBRANCH   3  18
TORSDOF 8
ENDMDL
MODEL 7
REMARK VINA RESULT:    -5.902      5.121      8.647
REMARK INTER + INTRA:          -9.448
REMARK INTER:                  -8.622
REMARK INTRA:                  -0.826
REMARK UNBOUND:                -0.958
REMARK  Name = 
REMARK  8 active torsions:
REMARK  status: ('A' for Active; 'I' for Inactive)
REMARK    1  A    between atoms: N_1  and  C_2
REMARK    2  A    between atoms: C_2  and  C_3
REMARK    3  A    between atoms: C_3  and  C_4
REMARK    4  A    between atoms: C_4  and  C_5
REMARK    5  A    between atoms: C_6  and  C_7
REMARK    6  A    between atoms: N_9  and  C_10
REMARK    7  A    between atoms: C_10  and  C_11
REMARK    8  A    between atoms: C_14  and  C_15
REMARK                            x       y       z     vdW  Elec       q    Type
REMARK                         _______ _______ _______ _____ _____    ______ ____
ROOT
ATOM      1  C   UNL     1      45.016   7.691  11.790  0.00  0.00    +0.000 A 
ATOM      2  C   UNL     1      46.312   7.596  12.246  0.00  0.00    +0.000 A 
ATOM      3  N   UNL     1      46.575   6.278  12.509  0.00  0.00    +0.000 N 
ATOM      4  C   UNL     1      45.462   5.507  12.218  0.00  0.00    +0.000 A 
ATOM      5  C   UNL     1      45.241   4.126  12.284  0.00  0.00    +0.000 A 
ATOM      6  C   UNL     1      43.993   3.636  11.883  0.00  0.00    +0.000 A 
ATOM      7  C   UNL     1      42.989   4.496  11.440  0.00  0.00    +0.000 A 
ATOM      8  C   UNL     1      43.217   5.870  11.384  0.00  0.00    +0.000 A 
ATOM      9  C   UNL     1      44.467   6.389  11.767  0.00  0.00    +0.000 A 
ENDROOT
BRANCH   1  11
ATOM     10  C   UNL     1      43.806   9.983  10.946  0.00  0.00    +0.000 C 
ATOM     11  C   UNL     1      44.394   8.902  11.378  0.00  0.00    +0.000 C 
BRANCH  10  12
ATOM     12  C   UNL     1      43.119  11.242  10.444  0.00  0.00    +0.000 C 
BRANCH  12  13
ATOM     13  C   UNL     1      41.673  10.934  10.070  0.00  0.00    +0.000 C 
BRANCH  13  14
ATOM     14  C   UNL     1      40.810  10.778  11.318  0.00  0.00    +0.000 C 
BRANCH  14  15
ATOM     15  N   UNL     1      40.321   9.409  11.423  0.00  0.00    +0.000 NA
ATOM     16  H   UNL     1      40.487   8.919  10.545  0.00  0.00    +0.000 HD
ATOM     17  H   UNL     1      39.310   9.412  11.563  0.00  0.00    +0.000 HD
ENDBRANCH  14  15
ENDBRANCH  13  14
ENDBRANCH  12  13
ENDBRANCH  10  12
ENDBRANCH   1  11
BRANCH   3  18
ATOM     18  C   UNL     1      47.826   5.758  13.051  0.00  0.00    +0.000 C 
BRANCH  18  19
ATOM     19  C   UNL     1      47.828   5.638  14.555  0.00  0.00    +0.000 A 
ATOM     20  C   UNL     1      48.543   6.533  15.355  0.00  0.00    +0.000 A 
ATOM     21  C   UNL     1      48.707   6.275  16.716  0.00  0.00    +0.000 A 
ATOM     22  C   UNL     1      48.157   5.113  17.257  0.00  0.00    +0.000 A 
ATOM     23  N   UNL     1      47.379   4.279  16.508  0.00  0.00    +0.000 NA
ATOM     24  C   UNL     1      47.228   4.560  15.193  0.00  0.00    +0.000 A 
BRANCH  22  25
ATOM     25  C   UNL     1      48.489   4.715  18.690  0.00  0.00    +0.000 C 
ATOM     26  F   UNL     1      48.245   3.395  18.954  0.00  0.00    +0.000 F 
ATOM     27  F   UNL     1      49.795   4.920  19.019  0.00  0.00    +0.000 F 
ATOM     28  F   UNL     1      47.756   5.402  19.617  0.00  0.00    +0.000 F 
ENDBRANCH  22  25
ENDBRANCH  18  19
ENDBRANCH   3  18
TORSDOF 8
ENDMDL
MODEL 8
REMARK VINA RESULT:    -5.199      5.165      8.678
REMARK INTER + INTRA:          -8.437
REMARK INTER:                  -7.491
REMARK INTRA:                  -0.946
REMARK UNBOUND:                -0.958
REMARK  Name = 
REMARK  8 active torsions:
REMARK  status: ('A' for Active; 'I' for Inactive)
REMARK    1  A    between atoms: N_1  and  C_2
REMARK    2  A    between atoms: C_2  and  C_3
REMARK    3  A    between atoms: C_3  and  C_4
REMARK    4  A    between atoms: C_4  and  C_5
REMARK    5  A    between atoms: C_6  and  C_7
REMARK    6  A    between atoms: N_9  and  C_10
REMARK    7  A    between atoms: C_10  and  C_11
REMARK    8  A    between atoms: C_14  and  C_15
REMARK                            x       y       z     vdW  Elec       q    Type
REMARK                         _______ _______ _______ _____ _____    ______ ____
ROOT
ATOM      1  C   UNL     1      46.209   6.481  11.663  0.00  0.00    +0.000 A 
ATOM      2  C   UNL     1      47.440   6.513  12.281  0.00  0.00    +0.000 A 
ATOM      3  N   UNL     1      47.715   7.813  12.613  0.00  0.00    +0.000 N 
ATOM      4  C   UNL     1      46.668   8.632  12.226  0.00  0.00    +0.000 A 
ATOM      5  C   UNL     1      46.457  10.009  12.369  0.00  0.00    +0.000 A 
ATOM      6  C   UNL     1      45.258  10.548  11.893  0.00  0.00    +0.000 A 
ATOM      7  C   UNL     1      44.298   9.743  11.280  0.00  0.00    +0.000 A 
ATOM      8  C   UNL     1      44.519   8.374  11.136  0.00  0.00    +0.000 A 
ATOM      9  C   UNL     1      45.710   7.803  11.619  0.00  0.00    +0.000 A 
ENDROOT
BRANCH   1  11
ATOM     10  C   UNL     1      44.932   4.221  10.834  0.00  0.00    +0.000 C 
ATOM     11  C   UNL     1      45.567   5.296  11.208  0.00  0.00    +0.000 C 
BRANCH  10  12
ATOM     12  C   UNL     1      44.191   2.968  10.396  0.00  0.00    +0.000 C 
BRANCH  12  13
ATOM     13  C   UNL     1      44.739   2.478   9.060  0.00  0.00    +0.000 C 
BRANCH  13  14
ATOM     14  C   UNL     1      44.701   3.590   8.016  0.00  0.00    +0.000 C 
BRANCH  14  15
ATOM     15  N   UNL     1      46.028   3.796   7.451  0.00  0.00    +0.000 NA
ATOM     16  H   UNL     1      46.492   2.896   7.333  0.00  0.00    +0.000 HD
ATOM     17  H   UNL     1      46.602   4.332   8.102  0.00  0.00    +0.000 HD
ENDBRANCH  14  15
ENDBRANCH  13  14
ENDBRANCH  12  13
ENDBRANCH  10  12
ENDBRANCH   1  11
BRANCH   3  18
ATOM     18  C   UNL     1      48.944   8.281  13.246  0.00  0.00    +0.000 C 
BRANCH  18  19
ATOM     19  C   UNL     1      48.962   8.092  14.742  0.00  0.00    +0.000 A 
ATOM     20  C   UNL     1      49.363   6.884  15.319  0.00  0.00    +0.000 A 
ATOM     21  C   UNL     1      49.166   6.661  16.681  0.00  0.00    +0.000 A 
ATOM     22  C   UNL     1      48.556   7.653  17.449  0.00  0.00    +0.000 A 
ATOM     23  N   UNL     1      48.245   8.871  16.920  0.00  0.00    +0.000 NA
ATOM     24  C   UNL     1      48.458   9.064  15.598  0.00  0.00    +0.000 A 
BRANCH  22  25
ATOM     25  C   UNL     1      48.155   7.355  18.889  0.00  0.00    +0.000 C 
ATOM     26  F   UNL     1      47.789   6.052  19.088  0.00  0.00    +0.000 F 
ATOM     27  F   UNL     1      49.149   7.598  19.788  0.00  0.00    +0.000 F 
ATOM     28  F   UNL     1      47.082   8.091  19.307  0.00  0.00    +0.000 F 
ENDBRANCH  22  25
ENDBRANCH  18  19
ENDBRANCH   3  18
TORSDOF 8
ENDMDL
MODEL 9
REMARK VINA RESULT:    -5.191      4.382      7.454
REMARK INTER + INTRA:          -8.424
REMARK INTER:                  -7.583
REMARK INTRA:                  -0.842
REMARK UNBOUND:                -0.958
REMARK  Name = 
REMARK  8 active torsions:
REMARK  status: ('A' for Active; 'I' for Inactive)
REMARK    1  A    between atoms: N_1  and  C_2
REMARK    2  A    between atoms: C_2  and  C_3
REMARK    3  A    between atoms: C_3  and  C_4
REMARK    4  A    between atoms: C_4  and  C_5
REMARK    5  A    between atoms: C_6  and  C_7
REMARK    6  A    between atoms: N_9  and  C_10
REMARK    7  A    between atoms: C_10  and  C_11
REMARK    8  A    between atoms: C_14  and  C_15
REMARK                            x       y       z     vdW  Elec       q    Type
REMARK                         _______ _______ _______ _____ _____    ______ ____
ROOT
ATOM      1  C   UNL     1      45.974   5.978  11.935  0.00  0.00    +0.000 A 
ATOM      2  C   UNL     1      47.070   5.917  12.767  0.00  0.00    +0.000 A 
ATOM      3  N   UNL     1      47.356   7.188  13.187  0.00  0.00    +0.000 N 
ATOM      4  C   UNL     1      46.448   8.082  12.644  0.00  0.00    +0.000 A 
ATOM      5  C   UNL     1      46.297   9.466  12.793  0.00  0.00    +0.000 A 
ATOM      6  C   UNL     1      45.239  10.092  12.124  0.00  0.00    +0.000 A 
ATOM      7  C   UNL     1      44.362   9.364  11.320  0.00  0.00    +0.000 A 
ATOM      8  C   UNL     1      44.525   7.987  11.173  0.00  0.00    +0.000 A 
ATOM      9  C   UNL     1      45.571   7.330  11.845  0.00  0.00    +0.000 A 
ENDROOT
BRANCH   1  11
ATOM     10  C   UNL     1      44.828   3.821  10.726  0.00  0.00    +0.000 C 
ATOM     11  C   UNL     1      45.357   4.848  11.331  0.00  0.00    +0.000 C 
BRANCH  10  12
ATOM     12  C   UNL     1      44.212   2.623  10.022  0.00  0.00    +0.000 C 
BRANCH  12  13
ATOM     13  C   UNL     1      44.995   2.305   8.752  0.00  0.00    +0.000 C 
BRANCH  13  14
ATOM     14  C   UNL     1      44.977   3.490   7.792  0.00  0.00    +0.000 C 
BRANCH  14  15
ATOM     15  N   UNL     1      46.335   3.959   7.548  0.00  0.00    +0.000 NA
ATOM     16  H   UNL     1      46.748   3.426   6.784  0.00  0.00    +0.000 HD
ATOM     17  H   UNL     1      46.915   3.783   8.368  0.00  0.00    +0.000 HD
ENDBRANCH  14  15
ENDBRANCH  13  14
ENDBRANCH  12  13
ENDBRANCH  10  12
ENDBRANCH   1  11
BRANCH   3  18
ATOM     18  C   UNL     1      48.473   7.563  14.049  0.00  0.00    +0.000 C 
BRANCH  18  19
ATOM     19  C   UNL     1      49.711   7.969  13.291  0.00  0.00    +0.000 A 
ATOM     20  C   UNL     1      49.784   7.852  11.900  0.00  0.00    +0.000 A 
ATOM     21  C   UNL     1      51.004   8.027  11.247  0.00  0.00    +0.000 A 
ATOM     22  C   UNL     1      52.142   8.309  12.003  0.00  0.00    +0.000 A 
ATOM     23  N   UNL     1      52.069   8.517  13.348  0.00  0.00    +0.000 NA
ATOM     24  C   UNL     1      50.870   8.353  13.953  0.00  0.00    +0.000 A 
BRANCH  22  25
ATOM     25  C   UNL     1      53.512   8.309  11.334  0.00  0.00    +0.000 C 
ATOM     26  F   UNL     1      54.352   7.347  11.826  0.00  0.00    +0.000 F 
ATOM     27  F   UNL     1      53.457   8.096   9.990  0.00  0.00    +0.000 F 
ATOM     28  F   UNL     1      54.186   9.486  11.501  0.00  0.00    +0.000 F 
ENDBRANCH  22  25
ENDBRANCH  18  19
ENDBRANCH   3  18
TORSDOF 8
ENDMDL
