MODEL 1
REMARK VINA RESULT:    -8.402      0.000      0.000
REMARK INTER + INTRA:         -12.577
REMARK INTER:                 -11.595
REMARK INTRA:                  -0.982
REMARK UNBOUND:                -0.982
REMARK  Name = 
REMARK  8 active torsions:
REMARK  status: ('A' for Active; 'I' for Inactive)
REMARK    1  A    between atoms: C_1  and  C_2
REMARK    2  A    between atoms: C_2  and  C_3
REMARK    3  A    between atoms: C_7  and  O_8
REMARK    4  A    between atoms: O_8  and  C_9
REMARK    5  A    between atoms: C_9  and  C_10
REMARK    6  A    between atoms: C_10  and  C_13
REMARK    7  A    between atoms: C_16  and  C_17
REMARK    8  A    between atoms: C_25  and  N_26
REMARK                            x       y       z     vdW  Elec       q    Type
REMARK                         _______ _______ _______ _____ _____    ______ ____
ROOT
ATOM      1  C   UNL     1      46.059   5.666  11.776  0.00  0.00    +0.000 A 
ATOM      2  C   UNL     1      46.279   7.033  11.525  0.00  0.00    +0.000 A 
ATOM      3  C   UNL     1      47.074   7.806  12.370  0.00  0.00    +0.000 A 
ATOM      4  C   UNL     1      47.671   7.235  13.487  0.00  0.00    +0.000 A 
ATOM      5  C   UNL     1      47.490   5.878  13.755  0.00  0.00    +0.000 A 
ATOM      6  C   UNL     1      46.709   5.103  12.890  0.00  0.00    +0.000 A 
ENDROOT
BRANCH   1   8
ATOM      7  C   UNL     1      43.676   5.554  11.094  0.00  0.00    +0.000 C 
ATOM      8  C   UNL     1      45.056   4.872  10.909  0.00  0.00    +0.000 C 
ATOM      9  C   UNL     1      45.479   4.921   9.413  0.00  0.00    +0.000 C 
ATOM     10  C   UNL     1      44.606   4.051   8.499  0.00  0.00    +0.000 C 
ATOM     11  C   UNL     1      44.506   2.595   8.966  0.00  0.00    +0.000 C 
ATOM     12  C   UNL     1      44.059   2.529  10.428  0.00  0.00    +0.000 C 
ATOM     13  C   UNL     1      44.934   3.383  11.347  0.00  0.00    +0.000 C 
BRANCH  11  14
ATOM     14  N   UNL     1      45.781   1.897   8.790  0.00  0.00    +0.000 NA
ATOM     15  H   UNL     1      46.558   2.489   9.081  0.00  0.00    +0.000 HD
ATOM     16  H   UNL     1      45.935   1.709   7.800  0.00  0.00    +0.000 HD
ENDBRANCH  11  14
ENDBRANCH   1   8
BRANCH   5  17
ATOM     17  O   UNL     1      47.996   5.203  14.834  0.00  0.00    +0.000 OA
BRANCH  17  18
ATOM     18  C   UNL     1      47.188   4.128  15.330  0.00  0.00    +0.000 C 
BRANCH  18  19
ATOM     19  C   UNL     1      47.446   3.883  16.817  0.00  0.00    +0.000 C 
ATOM     20  F   UNL     1      47.295   5.073  17.480  0.00  0.00    +0.000 F 
ATOM     21  F   UNL     1      46.423   3.100  17.288  0.00  0.00    +0.000 F 
BRANCH  19  22
ATOM     22  C   UNL     1      48.798   3.243  17.056  0.00  0.00    +0.000 A 
ATOM     23  C   UNL     1      49.702   3.814  17.946  0.00  0.00    +0.000 A 
ATOM     24  C   UNL     1      50.939   3.205  18.131  0.00  0.00    +0.000 A 
ATOM     25  C   UNL     1      51.214   2.051  17.418  0.00  0.00    +0.000 A 
ATOM     26  N   UNL     1      50.317   1.501  16.563  0.00  0.00    +0.000 NA
ATOM     27  N   UNL     1      49.098   2.101  16.385  0.00  0.00    +0.000 NA
BRANCH  25  28
ATOM     28  C   UNL     1      52.528   1.366  17.565  0.00  0.00    +0.000 C 
ATOM     29  N   UNL     1      52.489   0.065  17.996  0.00  0.00    +0.000 N 
ATOM     30  O   UNL     1      53.585   1.924  17.314  0.00  0.00    +0.000 OA
ATOM     31  H   UNL     1      51.610  -0.391  18.204  0.00  0.00    +0.000 HD
ATOM     32  H   UNL     1      53.356  -0.437  18.113  0.00  0.00    +0.000 HD
ENDBRANCH  25  28
ENDBRANCH  19  22
ENDBRANCH  18  19
ENDBRANCH  17  18
ENDBRANCH   5  17
TORSDOF 7
ENDMDL
MODEL 2
REMARK VINA RESULT:    -8.303      5.321      8.329
REMARK INTER + INTRA:         -12.440
REMARK INTER:                 -11.504
REMARK INTRA:                  -0.937
REMARK UNBOUND:                -0.982
REMARK  Name = 
REMARK  8 active torsions:
REMARK  status: ('A' for Active; 'I' for Inactive)
REMARK    1  A    between atoms: C_1  and  C_2
REMARK    2  A    between atoms: C_2  and  C_3
REMARK    3  A    between atoms: C_7  and  O_8
REMARK    4  A    between atoms: O_8  and  C_9
REMARK    5  A    between atoms: C_9  and  C_10
REMARK    6  A    between atoms: C_10  and  C_13
REMARK    7  A    between atoms: C_16  and  C_17
REMARK    8  A    between atoms: C_25  and  N_26
REMARK                            x       y       z     vdW  Elec       q    Type
REMARK                         _______ _______ _______ _____ _____    ______ ____
ROOT
ATOM      1  C   UNL     1      47.583   8.411  12.141  0.00  0.00    +0.000 A 
ATOM      2  C   UNL     1      46.469   9.242  12.366  0.00  0.00    +0.000 A 
ATOM      3  C   UNL     1      45.168   8.747  12.287  0.00  0.00    +0.000 A 
ATOM      4  C   UNL     1      44.944   7.410  11.981  0.00  0.00    +0.000 A 
ATOM      5  C   UNL     1      46.025   6.554  11.771  0.00  0.00    +0.000 A 
ATOM      6  C   UNL     1      47.329   7.053  11.875  0.00  0.00    +0.000 A 
ENDROOT
BRANCH   1   8
ATOM      7  C   UNL     1      48.917  10.262  11.165  0.00  0.00    +0.000 C 
ATOM      8  C   UNL     1      49.002   9.019  12.088  0.00  0.00    +0.000 C 
ATOM      9  C   UNL     1      49.461   9.443  13.513  0.00  0.00    +0.000 C 
ATOM     10  C   UNL     1      50.912   9.939  13.568  0.00  0.00    +0.000 C 
ATOM     11  C   UNL     1      51.915   8.946  12.970  0.00  0.00    +0.000 C 
ATOM     12  C   UNL     1      51.494   8.545  11.555  0.00  0.00    +0.000 C 
ATOM     13  C   UNL     1      50.053   8.034  11.495  0.00  0.00    +0.000 C 
BRANCH  11  14
ATOM     14  N   UNL     1      52.050   7.760  13.818  0.00  0.00    +0.000 NA
ATOM     15  H   UNL     1      51.363   7.776  14.571  0.00  0.00    +0.000 HD
ATOM     16  H   UNL     1      52.960   7.769  14.278  0.00  0.00    +0.000 HD
ENDBRANCH  11  14
ENDBRANCH   1   8
BRANCH   5  17
ATOM     17  O   UNL     1      45.941   5.230  11.435  0.00  0.00    +0.000 OA
BRANCH  17  18
ATOM     18  C   UNL     1      44.735   4.562  11.827  0.00  0.00    +0.000 C 
BRANCH  18  19
ATOM     19  C   UNL     1      43.926   4.118  10.608  0.00  0.00    +0.000 C 
ATOM     20  F   UNL     1      43.004   3.191  11.020  0.00  0.00    +0.000 F 
ATOM     21  F   UNL     1      43.172   5.189  10.202  0.00  0.00    +0.000 F 
BRANCH  19  22
ATOM     22  C   UNL     1      44.818   3.606   9.496  0.00  0.00    +0.000 A 
ATOM     23  C   UNL     1      45.154   2.258   9.424  0.00  0.00    +0.000 A 
ATOM     24  C   UNL     1      45.985   1.826   8.395  0.00  0.00    +0.000 A 
ATOM     25  C   UNL     1      46.442   2.764   7.485  0.00  0.00    +0.000 A 
ATOM     26  N   UNL     1      46.097   4.073   7.564  0.00  0.00    +0.000 NA
ATOM     27  N   UNL     1      45.275   4.495   8.576  0.00  0.00    +0.000 NA
BRANCH  25  28
ATOM     28  C   UNL     1      47.348   2.361   6.374  0.00  0.00    +0.000 C 
ATOM     29  N   UNL     1      47.404   3.210   5.299  0.00  0.00    +0.000 N 
ATOM     30  O   UNL     1      48.009   1.335   6.411  0.00  0.00    +0.000 OA
ATOM     31  H   UNL     1      46.851   4.058   5.272  0.00  0.00    +0.000 HD
ATOM     32  H   UNL     1      48.002   2.975   4.521  0.00  0.00    +0.000 HD
ENDBRANCH  25  28
ENDBRANCH  19  22
ENDBRANCH  18  19
ENDBRANCH  17  18
ENDBRANCH   5  17
TORSDOF 7
ENDMDL
MODEL 3
REMARK VINA RESULT:    -8.218      4.870      8.125
REMARK INTER + INTRA:         -12.322
REMARK INTER:                 -11.261
REMARK INTRA:                  -1.061
REMARK UNBOUND:                -0.982
REMARK  Name = 
REMARK  8 active torsions:
REMARK  status: ('A' for Active; 'I' for Inactive)
REMARK    1  A    between atoms: C_1  and  C_2
REMARK    2  A    between atoms: C_2  and  C_3
REMARK    3  A    between atoms: C_7  and  O_8
REMARK    4  A    between atoms: O_8  and  C_9
REMARK    5  A    between atoms: C_9  and  C_10
REMARK    6  A    between atoms: C_10  and  C_13
REMARK    7  A    between atoms: C_16  and  C_17
REMARK    8  A    between atoms: C_25  and  N_26
REMARK                            x       y       z     vdW  Elec       q    Type
REMARK                         _______ _______ _______ _____ _____    ______ ____
ROOT
ATOM      1  C   UNL     1      48.057   6.649  13.805  0.00  0.00    +0.000 A 
ATOM      2  C   UNL     1      48.302   6.153  15.099  0.00  0.00    +0.000 A 
ATOM      3  C   UNL     1      47.671   5.000  15.566  0.00  0.00    +0.000 A 
ATOM      4  C   UNL     1      46.778   4.313  14.752  0.00  0.00    +0.000 A 
ATOM      5  C   UNL     1      46.527   4.765  13.457  0.00  0.00    +0.000 A 
ATOM      6  C   UNL     1      47.182   5.910  12.988  0.00  0.00    +0.000 A 
ENDROOT
BRANCH   1   8
ATOM      7  C   UNL     1      50.197   7.839  13.397  0.00  0.00    +0.000 C 
ATOM      8  C   UNL     1      48.655   8.006  13.371  0.00  0.00    +0.000 C 
ATOM      9  C   UNL     1      48.182   8.368  11.933  0.00  0.00    +0.000 C 
ATOM     10  C   UNL     1      48.628   9.763  11.473  0.00  0.00    +0.000 C 
ATOM     11  C   UNL     1      48.233  10.876  12.450  0.00  0.00    +0.000 C 
ATOM     12  C   UNL     1      48.720  10.549  13.863  0.00  0.00    +0.000 C 
ATOM     13  C   UNL     1      48.267   9.166  14.334  0.00  0.00    +0.000 C 
BRANCH  11  14
ATOM     14  N   UNL     1      46.785  11.090  12.446  0.00  0.00    +0.000 NA
ATOM     15  H   UNL     1      46.308  10.333  12.935  0.00  0.00    +0.000 HD
ATOM     16  H   UNL     1      46.436  11.061  11.488  0.00  0.00    +0.000 HD
ENDBRANCH  11  14
ENDBRANCH   1   8
BRANCH   5  17
ATOM     17  O   UNL     1      45.651   4.200  12.570  0.00  0.00    +0.000 OA
BRANCH  17  18
ATOM     18  C   UNL     1      44.895   5.118  11.770  0.00  0.00    +0.000 C 
BRANCH  18  19
ATOM     19  C   UNL     1      44.055   4.381  10.726  0.00  0.00    +0.000 C 
ATOM     20  F   UNL     1      43.319   3.420  11.369  0.00  0.00    +0.000 F 
ATOM     21  F   UNL     1      43.119   5.265  10.253  0.00  0.00    +0.000 F 
BRANCH  19  22
ATOM     22  C   UNL     1      44.909   3.818   9.609  0.00  0.00    +0.000 A 
ATOM     23  C   UNL     1      45.075   2.443   9.471  0.00  0.00    +0.000 A 
ATOM     24  C   UNL     1      45.877   1.963   8.441  0.00  0.00    +0.000 A 
ATOM     25  C   UNL     1      46.476   2.881   7.596  0.00  0.00    +0.000 A 
ATOM     26  N   UNL     1      46.296   4.217   7.738  0.00  0.00    +0.000 NA
ATOM     27  N   UNL     1      45.503   4.687   8.752  0.00  0.00    +0.000 NA
BRANCH  25  28
ATOM     28  C   UNL     1      47.358   2.424   6.486  0.00  0.00    +0.000 C 
ATOM     29  N   UNL     1      47.373   3.208   5.361  0.00  0.00    +0.000 N 
ATOM     30  O   UNL     1      48.035   1.411   6.567  0.00  0.00    +0.000 OA
ATOM     31  H   UNL     1      46.807   4.045   5.299  0.00  0.00    +0.000 HD
ATOM     32  H   UNL     1      47.954   2.934   4.583  0.00  0.00    +0.000 HD
ENDBRANCH  25  28
ENDBRANCH  19  22
ENDBRANCH  18  19
ENDBRANCH  17  18
ENDBRANCH   5  17
TORSDOF 7
ENDMDL
MODEL 4
REMARK VINA RESULT:    -7.894      3.713      8.619
REMARK INTER + INTRA:         -11.875
REMARK INTER:                 -10.989
REMARK INTRA:                  -0.887
REMARK UNBOUND:                -0.982
REMARK  Name = 
REMARK  8 active torsions:
REMARK  status: ('A' for Active; 'I' for Inactive)
REMARK    1  A    between atoms: C_1  and  C_2
REMARK    2  A    between atoms: C_2  and  C_3
REMARK    3  A    between atoms: C_7  and  O_8
REMARK    4  A    between atoms: O_8  and  C_9
REMARK    5  A    between atoms: C_9  and  C_10
REMARK    6  A    between atoms: C_10  and  C_13
REMARK    7  A    between atoms: C_16  and  C_17
REMARK    8  A    between atoms: C_25  and  N_26
REMARK                            x       y       z     vdW  Elec       q    Type
REMARK                         _______ _______ _______ _____ _____    ______ ____
ROOT
ATOM      1  C   UNL     1      47.938   5.503  15.332  0.00  0.00    +0.000 A 
ATOM      2  C   UNL     1      48.671   6.554  14.749  0.00  0.00    +0.000 A 
ATOM      3  C   UNL     1      48.401   6.994  13.453  0.00  0.00    +0.000 A 
ATOM      4  C   UNL     1      47.394   6.395  12.706  0.00  0.00    +0.000 A 
ATOM      5  C   UNL     1      46.636   5.364  13.259  0.00  0.00    +0.000 A 
ATOM      6  C   UNL     1      46.897   4.943  14.569  0.00  0.00    +0.000 A 
ENDROOT
BRANCH   1   8
ATOM      7  C   UNL     1      48.122   3.407  16.648  0.00  0.00    +0.000 C 
ATOM      8  C   UNL     1      48.357   4.939  16.708  0.00  0.00    +0.000 C 
ATOM      9  C   UNL     1      49.860   5.238  16.979  0.00  0.00    +0.000 C 
ATOM     10  C   UNL     1      50.326   4.823  18.381  0.00  0.00    +0.000 C 
ATOM     11  C   UNL     1      49.465   5.413  19.503  0.00  0.00    +0.000 C 
ATOM     12  C   UNL     1      47.986   5.099  19.268  0.00  0.00    +0.000 C 
ATOM     13  C   UNL     1      47.511   5.524  17.877  0.00  0.00    +0.000 C 
BRANCH  11  14
ATOM     14  N   UNL     1      49.668   6.859  19.617  0.00  0.00    +0.000 NA
ATOM     15  H   UNL     1      50.562   7.130  19.211  0.00  0.00    +0.000 HD
ATOM     16  H   UNL     1      49.723   7.121  20.601  0.00  0.00    +0.000 HD
ENDBRANCH  11  14
ENDBRANCH   1   8
BRANCH   5  17
ATOM     17  O   UNL     1      45.641   4.674  12.621  0.00  0.00    +0.000 OA
BRANCH  17  18
ATOM     18  C   UNL     1      44.964   5.381  11.575  0.00  0.00    +0.000 C 
BRANCH  18  19
ATOM     19  C   UNL     1      44.172   4.425  10.682  0.00  0.00    +0.000 C 
ATOM     20  F   UNL     1      43.627   3.450  11.476  0.00  0.00    +0.000 F 
ATOM     21  F   UNL     1      43.089   5.115  10.200  0.00  0.00    +0.000 F 
BRANCH  19  22
ATOM     22  C   UNL     1      45.024   3.865   9.562  0.00  0.00    +0.000 A 
ATOM     23  C   UNL     1      45.150   2.490   9.391  0.00  0.00    +0.000 A 
ATOM     24  C   UNL     1      45.951   2.011   8.359  0.00  0.00    +0.000 A 
ATOM     25  C   UNL     1      46.587   2.931   7.544  0.00  0.00    +0.000 A 
ATOM     26  N   UNL     1      46.446   4.268   7.717  0.00  0.00    +0.000 NA
ATOM     27  N   UNL     1      45.654   4.737   8.733  0.00  0.00    +0.000 NA
BRANCH  25  28
ATOM     28  C   UNL     1      47.470   2.476   6.434  0.00  0.00    +0.000 C 
ATOM     29  N   UNL     1      47.239   3.039   5.206  0.00  0.00    +0.000 N 
ATOM     30  O   UNL     1      48.353   1.649   6.601  0.00  0.00    +0.000 OA
ATOM     31  H   UNL     1      46.503   3.721   5.072  0.00  0.00    +0.000 HD
ATOM     32  H   UNL     1      47.810   2.757   4.423  0.00  0.00    +0.000 HD
ENDBRANCH  25  28
ENDBRANCH  19  22
ENDBRANCH  18  19
ENDBRANCH  17  18
ENDBRANCH   5  17
TORSDOF 7
ENDMDL
MODEL 5
REMARK VINA RESULT:    -7.844      4.295      8.424
REMARK INTER + INTRA:         -11.807
REMARK INTER:                 -10.719
REMARK INTRA:                  -1.088
REMARK UNBOUND:                -0.982
REMARK  Name = 
REMARK  8 active torsions:
REMARK  status: ('A' for Active; 'I' for Inactive)
REMARK    1  A    between atoms: C_1  and  C_2
REMARK    2  A    between atoms: C_2  and  C_3
REMARK    3  A    between atoms: C_7  and  O_8
REMARK    4  A    between atoms: O_8  and  C_9
REMARK    5  A    between atoms: C_9  and  C_10
REMARK    6  A    between atoms: C_10  and  C_13
REMARK    7  A    between atoms: C_16  and  C_17
REMARK    8  A    between atoms: C_25  and  N_26
REMARK                            x       y       z     vdW  Elec       q    Type
REMARK                         _______ _______ _______ _____ _____    ______ ____
ROOT
ATOM      1  C   UNL     1      48.247   7.281  13.808  0.00  0.00    +0.000 A 
ATOM      2  C   UNL     1      48.987   7.586  12.651  0.00  0.00    +0.000 A 
ATOM      3  C   UNL     1      48.460   7.372  11.377  0.00  0.00    +0.000 A 
ATOM      4  C   UNL     1      47.182   6.848  11.226  0.00  0.00    +0.000 A 
ATOM      5  C   UNL     1      46.414   6.553  12.352  0.00  0.00    +0.000 A 
ATOM      6  C   UNL     1      46.940   6.792  13.627  0.00  0.00    +0.000 A 
ENDROOT
BRANCH   1   8
ATOM      7  C   UNL     1      50.431   7.566  14.953  0.00  0.00    +0.000 C 
ATOM      8  C   UNL     1      48.910   7.388  15.200  0.00  0.00    +0.000 C 
ATOM      9  C   UNL     1      48.348   8.616  15.973  0.00  0.00    +0.000 C 
ATOM     10  C   UNL     1      48.861   8.722  17.415  0.00  0.00    +0.000 C 
ATOM     11  C   UNL     1      48.638   7.444  18.231  0.00  0.00    +0.000 C 
ATOM     12  C   UNL     1      49.215   6.231  17.499  0.00  0.00    +0.000 C 
ATOM     13  C   UNL     1      48.696   6.111  16.065  0.00  0.00    +0.000 C 
BRANCH  11  14
ATOM     14  N   UNL     1      47.215   7.241  18.512  0.00  0.00    +0.000 NA
ATOM     15  H   UNL     1      47.001   6.247  18.582  0.00  0.00    +0.000 HD
ATOM     16  H   UNL     1      46.658   7.588  17.732  0.00  0.00    +0.000 HD
ENDBRANCH  11  14
ENDBRANCH   1   8
BRANCH   5  17
ATOM     17  O   UNL     1      45.158   6.008  12.341  0.00  0.00    +0.000 OA
BRANCH  17  18
ATOM     18  C   UNL     1      45.092   4.603  12.065  0.00  0.00    +0.000 C 
BRANCH  18  19
ATOM     19  C   UNL     1      44.205   4.318  10.853  0.00  0.00    +0.000 C 
ATOM     20  F   UNL     1      43.200   3.473  11.247  0.00  0.00    +0.000 F 
ATOM     21  F   UNL     1      43.560   5.485  10.532  0.00  0.00    +0.000 F 
BRANCH  19  22
ATOM     22  C   UNL     1      45.003   3.778   9.684  0.00  0.00    +0.000 A 
ATOM     23  C   UNL     1      45.173   2.407   9.518  0.00  0.00    +0.000 A 
ATOM     24  C   UNL     1      45.923   1.949   8.440  0.00  0.00    +0.000 A 
ATOM     25  C   UNL     1      46.467   2.883   7.576  0.00  0.00    +0.000 A 
ATOM     26  N   UNL     1      46.283   4.216   7.746  0.00  0.00    +0.000 NA
ATOM     27  N   UNL     1      45.541   4.665   8.808  0.00  0.00    +0.000 NA
BRANCH  25  28
ATOM     28  C   UNL     1      47.292   2.450   6.415  0.00  0.00    +0.000 C 
ATOM     29  N   UNL     1      47.257   3.260   5.310  0.00  0.00    +0.000 N 
ATOM     30  O   UNL     1      47.967   1.432   6.438  0.00  0.00    +0.000 OA
ATOM     31  H   UNL     1      46.694   4.101   5.295  0.00  0.00    +0.000 HD
ATOM     32  H   UNL     1      47.798   3.003   4.498  0.00  0.00    +0.000 HD
ENDBRANCH  25  28
ENDBRANCH  19  22
ENDBRANCH  18  19
ENDBRANCH  17  18
ENDBRANCH   5  17
TORSDOF 7
ENDMDL
MODEL 6
REMARK VINA RESULT:    -7.562      4.776      8.109
REMARK INTER + INTRA:         -11.417
REMARK INTER:                 -10.571
REMARK INTRA:                  -0.846
REMARK UNBOUND:                -0.982
REMARK  Name = 
REMARK  8 active torsions:
REMARK  status: ('A' for Active; 'I' for Inactive)
REMARK    1  A    between atoms: C_1  and  C_2
REMARK    2  A    between atoms: C_2  and  C_3
REMARK    3  A    between atoms: C_7  and  O_8
REMARK    4  A    between atoms: O_8  and  C_9
REMARK    5  A    between atoms: C_9  and  C_10
REMARK    6  A    between atoms: C_10  and  C_13
REMARK    7  A    between atoms: C_16  and  C_17
REMARK    8  A    between atoms: C_25  and  N_26
REMARK                            x       y       z     vdW  Elec       q    Type
REMARK                         _______ _______ _______ _____ _____    ______ ____
ROOT
ATOM      1  C   UNL     1      47.162   7.155  13.112  0.00  0.00    +0.000 A 
ATOM      2  C   UNL     1      47.886   6.332  13.995  0.00  0.00    +0.000 A 
ATOM      3  C   UNL     1      47.370   5.114  14.438  0.00  0.00    +0.000 A 
ATOM      4  C   UNL     1      46.119   4.687  14.013  0.00  0.00    +0.000 A 
ATOM      5  C   UNL     1      45.382   5.468  13.122  0.00  0.00    +0.000 A 
ATOM      6  C   UNL     1      45.916   6.678  12.664  0.00  0.00    +0.000 A 
ENDROOT
BRANCH   1   8
ATOM      7  C   UNL     1      46.498   9.341  12.144  0.00  0.00    +0.000 C 
ATOM      8  C   UNL     1      47.691   8.563  12.758  0.00  0.00    +0.000 C 
ATOM      9  C   UNL     1      48.199   9.286  14.038  0.00  0.00    +0.000 C 
ATOM     10  C   UNL     1      48.859  10.643  13.756  0.00  0.00    +0.000 C 
ATOM     11  C   UNL     1      49.985  10.563  12.719  0.00  0.00    +0.000 C 
ATOM     12  C   UNL     1      49.491   9.882  11.441  0.00  0.00    +0.000 C 
ATOM     13  C   UNL     1      48.845   8.523  11.713  0.00  0.00    +0.000 C 
BRANCH  11  14
ATOM     14  N   UNL     1      51.147   9.855  13.259  0.00  0.00    +0.000 NA
ATOM     15  H   UNL     1      51.364   9.036  12.691  0.00  0.00    +0.000 HD
ATOM     16  H   UNL     1      50.929   9.495  14.187  0.00  0.00    +0.000 HD
ENDBRANCH  11  14
ENDBRANCH   1   8
BRANCH   5  17
ATOM     17  O   UNL     1      44.130   5.177  12.652  0.00  0.00    +0.000 OA
BRANCH  17  18
ATOM     18  C   UNL     1      44.039   4.912  11.246  0.00  0.00    +0.000 C 
BRANCH  18  19
ATOM     19  C   UNL     1      44.209   3.422  10.951  0.00  0.00    +0.000 C 
ATOM     20  F   UNL     1      44.733   2.822  12.066  0.00  0.00    +0.000 F 
ATOM     21  F   UNL     1      42.955   2.881  10.832  0.00  0.00    +0.000 F 
BRANCH  19  22
ATOM     22  C   UNL     1      45.042   3.184   9.709  0.00  0.00    +0.000 A 
ATOM     23  C   UNL     1      45.433   4.251   8.906  0.00  0.00    +0.000 A 
ATOM     24  C   UNL     1      46.187   3.994   7.766  0.00  0.00    +0.000 A 
ATOM     25  C   UNL     1      46.517   2.681   7.482  0.00  0.00    +0.000 A 
ATOM     26  N   UNL     1      46.138   1.653   8.280  0.00  0.00    +0.000 NA
ATOM     27  N   UNL     1      45.397   1.909   9.405  0.00  0.00    +0.000 NA
BRANCH  25  28
ATOM     28  C   UNL     1      47.309   2.345   6.266  0.00  0.00    +0.000 C 
ATOM     29  N   UNL     1      47.194   3.210   5.209  0.00  0.00    +0.000 N 
ATOM     30  O   UNL     1      48.025   1.357   6.207  0.00  0.00    +0.000 OA
ATOM     31  H   UNL     1      46.596   4.025   5.262  0.00  0.00    +0.000 HD
ATOM     32  H   UNL     1      47.710   3.019   4.363  0.00  0.00    +0.000 HD
ENDBRANCH  25  28
ENDBRANCH  19  22
ENDBRANCH  18  19
ENDBRANCH  17  18
ENDBRANCH   5  17
TORSDOF 7
ENDMDL
MODEL 7
REMARK VINA RESULT:    -7.496      3.375      4.121
REMARK INTER + INTRA:         -11.326
REMARK INTER:                  -9.916
REMARK INTRA:                  -1.410
REMARK UNBOUND:                -0.982
REMARK  Name = 
REMARK  8 active torsions:
REMARK  status: ('A' for Active; 'I' for Inactive)
REMARK    1  A    between atoms: C_1  and  C_2
REMARK    2  A    between atoms: C_2  and  C_3
REMARK    3  A    between atoms: C_7  and  O_8
REMARK    4  A    between atoms: O_8  and  C_9
REMARK    5  A    between atoms: C_9  and  C_10
REMARK    6  A    between atoms: C_10  and  C_13
REMARK    7  A    between atoms: C_16  and  C_17
REMARK    8  A    between atoms: C_25  and  N_26
REMARK                            x       y       z     vdW  Elec       q    Type
REMARK                         _______ _______ _______ _____ _____    ______ ____
ROOT
ATOM      1  C   UNL     1      45.550   7.338  11.547  0.00  0.00    +0.000 A 
ATOM      2  C   UNL     1      44.603   8.362  11.354  0.00  0.00    +0.000 A 
ATOM      3  C   UNL     1      44.886   9.685  11.691  0.00  0.00    +0.000 A 
ATOM      4  C   UNL     1      46.122  10.020  12.231  0.00  0.00    +0.000 A 
ATOM      5  C   UNL     1      47.090   9.035  12.418  0.00  0.00    +0.000 A 
ATOM      6  C   UNL     1      46.807   7.713  12.056  0.00  0.00    +0.000 A 
ENDROOT
BRANCH   1   8
ATOM      7  C   UNL     1      45.682   5.492   9.894  0.00  0.00    +0.000 C 
ATOM      8  C   UNL     1      45.155   5.864  11.305  0.00  0.00    +0.000 C 
ATOM      9  C   UNL     1      45.811   4.947  12.377  0.00  0.00    +0.000 C 
ATOM     10  C   UNL     1      45.368   3.481  12.285  0.00  0.00    +0.000 C 
ATOM     11  C   UNL     1      43.846   3.306  12.308  0.00  0.00    +0.000 C 
ATOM     12  C   UNL     1      43.189   4.178  11.236  0.00  0.00    +0.000 C 
ATOM     13  C   UNL     1      43.614   5.644  11.331  0.00  0.00    +0.000 C 
BRANCH  11  14
ATOM     14  N   UNL     1      43.300   3.624  13.629  0.00  0.00    +0.000 NA
ATOM     15  H   UNL     1      42.392   4.079  13.543  0.00  0.00    +0.000 HD
ATOM     16  H   UNL     1      43.903   4.300  14.096  0.00  0.00    +0.000 HD
ENDBRANCH  11  14
ENDBRANCH   1   8
BRANCH   5  17
ATOM     17  O   UNL     1      48.330   9.228  12.967  0.00  0.00    +0.000 OA
BRANCH  17  18
ATOM     18  C   UNL     1      48.457   8.891  14.354  0.00  0.00    +0.000 C 
BRANCH  18  19
ATOM     19  C   UNL     1      49.516   7.808  14.566  0.00  0.00    +0.000 C 
ATOM     20  F   UNL     1      49.925   7.362  13.337  0.00  0.00    +0.000 F 
ATOM     21  F   UNL     1      50.626   8.418  15.092  0.00  0.00    +0.000 F 
BRANCH  19  22
ATOM     22  C   UNL     1      49.012   6.694  15.459  0.00  0.00    +0.000 A 
ATOM     23  C   UNL     1      49.292   6.699  16.822  0.00  0.00    +0.000 A 
ATOM     24  C   UNL     1      48.823   5.652  17.609  0.00  0.00    +0.000 A 
ATOM     25  C   UNL     1      48.094   4.648  16.996  0.00  0.00    +0.000 A 
ATOM     26  N   UNL     1      47.821   4.663  15.668  0.00  0.00    +0.000 NA
ATOM     27  N   UNL     1      48.281   5.697  14.896  0.00  0.00    +0.000 NA
BRANCH  25  28
ATOM     28  C   UNL     1      47.581   3.495  17.787  0.00  0.00    +0.000 C 
ATOM     29  N   UNL     1      48.293   3.166  18.911  0.00  0.00    +0.000 N 
ATOM     30  O   UNL     1      46.582   2.873  17.459  0.00  0.00    +0.000 OA
ATOM     31  H   UNL     1      49.122   3.683  19.176  0.00  0.00    +0.000 HD
ATOM     32  H   UNL     1      47.984   2.388  19.475  0.00  0.00    +0.000 HD
ENDBRANCH  25  28
ENDBRANCH  19  22
ENDBRANCH  18  19
ENDBRANCH  17  18
ENDBRANCH   5  17
TORSDOF 7
ENDMDL
MODEL 8
REMARK VINA RESULT:    -7.454      2.031      2.566
REMARK INTER + INTRA:         -11.269
REMARK INTER:                 -10.309
REMARK INTRA:                  -0.959
REMARK UNBOUND:                -0.982
REMARK  Name = 
REMARK  8 active torsions:
REMARK  status: ('A' for Active; 'I' for Inactive)
REMARK    1  A    between atoms: C_1  and  C_2
REMARK    2  A    between atoms: C_2  and  C_3
REMARK    3  A    between atoms: C_7  and  O_8
REMARK    4  A    between atoms: O_8  and  C_9
REMARK    5  A    between atoms: C_9  and  C_10
REMARK    6  A    between atoms: C_10  and  C_13
REMARK    7  A    between atoms: C_16  and  C_17
REMARK    8  A    between atoms: C_25  and  N_26
REMARK                            x       y       z     vdW  Elec       q    Type
REMARK                         _______ _______ _______ _____ _____    ______ ____
ROOT
ATOM      1  C   UNL     1      46.845   5.864  12.641  0.00  0.00    +0.000 A 
ATOM      2  C   UNL     1      47.389   6.788  11.730  0.00  0.00    +0.000 A 
ATOM      3  C   UNL     1      48.514   7.547  12.052  0.00  0.00    +0.000 A 
ATOM      4  C   UNL     1      49.124   7.404  13.292  0.00  0.00    +0.000 A 
ATOM      5  C   UNL     1      48.623   6.484  14.212  0.00  0.00    +0.000 A 
ATOM      6  C   UNL     1      47.508   5.709  13.873  0.00  0.00    +0.000 A 
ENDROOT
BRANCH   1   8
ATOM      7  C   UNL     1      45.739   3.643  12.611  0.00  0.00    +0.000 C 
ATOM      8  C   UNL     1      45.515   5.149  12.316  0.00  0.00    +0.000 C 
ATOM      9  C   UNL     1      44.371   5.703  13.212  0.00  0.00    +0.000 C 
ATOM     10  C   UNL     1      42.988   5.136  12.865  0.00  0.00    +0.000 C 
ATOM     11  C   UNL     1      42.621   5.301  11.386  0.00  0.00    +0.000 C 
ATOM     12  C   UNL     1      43.723   4.730  10.491  0.00  0.00    +0.000 C 
ATOM     13  C   UNL     1      45.102   5.303  10.823  0.00  0.00    +0.000 C 
BRANCH  11  14
ATOM     14  N   UNL     1      42.375   6.707  11.059  0.00  0.00    +0.000 NA
ATOM     15  H   UNL     1      41.495   6.811  10.556  0.00  0.00    +0.000 HD
ATOM     16  H   UNL     1      43.097   7.042  10.421  0.00  0.00    +0.000 HD
ENDBRANCH  11  14
ENDBRANCH   1   8
BRANCH   5  17
ATOM     17  O   UNL     1      49.111   6.268  15.473  0.00  0.00    +0.000 OA
BRANCH  17  18
ATOM     18  C   UNL     1      48.321   5.415  16.310  0.00  0.00    +0.000 C 
BRANCH  18  19
ATOM     19  C   UNL     1      48.982   5.209  17.673  0.00  0.00    +0.000 C 
ATOM     20  F   UNL     1      49.513   6.406  18.076  0.00  0.00    +0.000 F 
ATOM     21  F   UNL     1      47.984   4.959  18.580  0.00  0.00    +0.000 F 
BRANCH  19  22
ATOM     22  C   UNL     1      50.004   4.092  17.641  0.00  0.00    +0.000 A 
ATOM     23  C   UNL     1      49.630   2.803  17.278  0.00  0.00    +0.000 A 
ATOM     24  C   UNL     1      50.594   1.800  17.272  0.00  0.00    +0.000 A 
ATOM     25  C   UNL     1      51.889   2.134  17.629  0.00  0.00    +0.000 A 
ATOM     26  N   UNL     1      52.239   3.398  17.971  0.00  0.00    +0.000 NA
ATOM     27  N   UNL     1      51.288   4.385  17.973  0.00  0.00    +0.000 NA
BRANCH  25  28
ATOM     28  C   UNL     1      52.958   1.097  17.657  0.00  0.00    +0.000 C 
ATOM     29  N   UNL     1      52.600  -0.130  18.150  0.00  0.00    +0.000 N 
ATOM     30  O   UNL     1      54.092   1.320  17.261  0.00  0.00    +0.000 OA
ATOM     31  H   UNL     1      51.659  -0.309  18.480  0.00  0.00    +0.000 HD
ATOM     32  H   UNL     1      53.294  -0.862  18.191  0.00  0.00    +0.000 HD
ENDBRANCH  25  28
ENDBRANCH  19  22
ENDBRANCH  18  19
ENDBRANCH  17  18
ENDBRANCH   5  17
TORSDOF 7
ENDMDL
MODEL 9
REMARK VINA RESULT:    -7.272      3.123      7.566
REMARK INTER + INTRA:         -11.017
REMARK INTER:                  -9.476
REMARK INTRA:                  -1.541
REMARK UNBOUND:                -0.982
REMARK  Name = 
REMARK  8 active torsions:
REMARK  status: ('A' for Active; 'I' for Inactive)
REMARK    1  A    between atoms: C_1  and  C_2
REMARK    2  A    between atoms: C_2  and  C_3
REMARK    3  A    between atoms: C_7  and  O_8
REMARK    4  A    between atoms: O_8  and  C_9
REMARK    5  A    between atoms: C_9  and  C_10
REMARK    6  A    between atoms: C_10  and  C_13
REMARK    7  A    between atoms: C_16  and  C_17
REMARK    8  A    between atoms: C_25  and  N_26
REMARK                            x       y       z     vdW  Elec       q    Type
REMARK                         _______ _______ _______ _____ _____    ______ ____
ROOT
ATOM      1  C   UNL     1      48.614   6.678  17.171  0.00  0.00    +0.000 A 
ATOM      2  C   UNL     1      48.265   7.765  17.994  0.00  0.00    +0.000 A 
ATOM      3  C   UNL     1      48.286   9.074  17.514  0.00  0.00    +0.000 A 
ATOM      4  C   UNL     1      48.655   9.332  16.199  0.00  0.00    +0.000 A 
ATOM      5  C   UNL     1      48.988   8.277  15.350  0.00  0.00    +0.000 A 
ATOM      6  C   UNL     1      48.943   6.964  15.833  0.00  0.00    +0.000 A 
ENDROOT
BRANCH   1   8
ATOM      7  C   UNL     1      48.617   5.419  19.309  0.00  0.00    +0.000 C 
ATOM      8  C   UNL     1      48.726   5.258  17.771  0.00  0.00    +0.000 C 
ATOM      9  C   UNL     1      47.572   4.358  17.245  0.00  0.00    +0.000 C 
ATOM     10  C   UNL     1      47.682   2.894  17.693  0.00  0.00    +0.000 C 
ATOM     11  C   UNL     1      49.035   2.259  17.355  0.00  0.00    +0.000 C 
ATOM     12  C   UNL     1      50.181   3.117  17.895  0.00  0.00    +0.000 C 
ATOM     13  C   UNL     1      50.086   4.575  17.440  0.00  0.00    +0.000 C 
BRANCH  11  14
ATOM     14  N   UNL     1      49.179   2.064  15.912  0.00  0.00    +0.000 NA
ATOM     15  H   UNL     1      48.548   2.680  15.401  0.00  0.00    +0.000 HD
ATOM     16  H   UNL     1      48.898   1.116  15.663  0.00  0.00    +0.000 HD
ENDBRANCH  11  14
ENDBRANCH   1   8
BRANCH   5  17
ATOM     17  O   UNL     1      49.396   8.397  14.049  0.00  0.00    +0.000 OA
BRANCH  17  18
ATOM     18  C   UNL     1      49.218   7.234  13.230  0.00  0.00    +0.000 C 
BRANCH  18  19
ATOM     19  C   UNL     1      48.120   7.453  12.189  0.00  0.00    +0.000 C 
ATOM     20  F   UNL     1      47.548   8.677  12.420  0.00  0.00    +0.000 F 
ATOM     21  F   UNL     1      48.732   7.589  10.969  0.00  0.00    +0.000 F 
BRANCH  19  22
ATOM     22  C   UNL     1      47.111   6.323  12.188  0.00  0.00    +0.000 A 
ATOM     23  C   UNL     1      47.014   5.462  13.277  0.00  0.00    +0.000 A 
ATOM     24  C   UNL     1      46.084   4.428  13.236  0.00  0.00    +0.000 A 
ATOM     25  C   UNL     1      45.294   4.303  12.106  0.00  0.00    +0.000 A 
ATOM     26  N   UNL     1      45.395   5.156  11.057  0.00  0.00    +0.000 NA
ATOM     27  N   UNL     1      46.309   6.176  11.102  0.00  0.00    +0.000 NA
BRANCH  25  28
ATOM     28  C   UNL     1      44.294   3.205  12.000  0.00  0.00    +0.000 C 
ATOM     29  N   UNL     1      44.240   2.548  10.799  0.00  0.00    +0.000 N 
ATOM     30  O   UNL     1      43.560   2.900  12.928  0.00  0.00    +0.000 OA
ATOM     31  H   UNL     1      44.848   2.807  10.032  0.00  0.00    +0.000 HD
ATOM     32  H   UNL     1      43.574   1.799  10.681  0.00  0.00    +0.000 HD
ENDBRANCH  25  28
ENDBRANCH  19  22
ENDBRANCH  18  19
ENDBRANCH  17  18
ENDBRANCH   5  17
TORSDOF 7
ENDMDL
