MODEL 1
REMARK VINA RESULT:    -8.536      0.000      0.000
REMARK INTER + INTRA:         -12.131
REMARK INTER:                 -11.030
REMARK INTRA:                  -1.100
REMARK UNBOUND:                -1.100
REMARK  Name = 
REMARK  5 active torsions:
REMARK  status: ('A' for Active; 'I' for Inactive)
REMARK    1  A    between atoms: C_2  and  C_3
REMARK    2  A    between atoms: C_8  and  N_9
REMARK    3  A    between atoms: N_9  and  C_10
REMARK    4  A    between atoms: C_10  and  C_11
REMARK    5  A    between atoms: C_15  and  C_16
REMARK                            x       y       z     vdW  Elec       q    Type
REMARK                         _______ _______ _______ _____ _____    ______ ____
ROOT
ATOM      1  C   UNL     1      44.183   5.233  11.157  0.00  0.00    +0.000 A 
ATOM      2  C   UNL     1      43.385   4.361  11.903  0.00  0.00    +0.000 A 
ATOM      3  C   UNL     1      43.342   3.008  11.579  0.00  0.00    +0.000 A 
ATOM      4  C   UNL     1      44.095   2.514  10.508  0.00  0.00    +0.000 A 
ATOM      5  C   UNL     1      44.913   3.358   9.736  0.00  0.00    +0.000 A 
ATOM      6  C   UNL     1      44.955   4.716  10.101  0.00  0.00    +0.000 A 
ENDROOT
BRANCH   5   7
ATOM      7  C   UNL     1      45.669   2.856   8.564  0.00  0.00    +0.000 A 
ATOM      8  C   UNL     1      46.076   3.718   7.526  0.00  0.00    +0.000 A 
ATOM      9  C   UNL     1      46.771   3.247   6.406  0.00  0.00    +0.000 A 
ATOM     10  C   UNL     1      47.088   1.897   6.306  0.00  0.00    +0.000 A 
ATOM     11  C   UNL     1      46.694   1.033   7.316  0.00  0.00    +0.000 A 
ATOM     12  F   UNL     1      46.992  -0.270   7.222  0.00  0.00    +0.000 F 
ATOM     13  C   UNL     1      45.989   1.492   8.426  0.00  0.00    +0.000 A 
ENDBRANCH   5   7
BRANCH   1  14
ATOM     14  C   UNL     1      44.173   6.721  11.415  0.00  0.00    +0.000 C 
BRANCH  14  15
ATOM     15  N   UNL     1      44.971   7.059  12.585  0.00  0.00    +0.000 N 
ATOM     16  H   UNL     1      44.589   7.839  13.117  0.00  0.00    +0.000 HD
BRANCH  15  22
ATOM     17  C   UNL     1      47.214   5.999  13.110  0.00  0.00    +0.000 A 
ATOM     18  N   UNL     1      48.579   6.084  13.157  0.00  0.00    +0.000 NA
ATOM     19  C   UNL     1      49.151   7.214  12.708  0.00  0.00    +0.000 A 
ATOM     20  C   UNL     1      48.430   8.275  12.205  0.00  0.00    +0.000 A 
ATOM     21  C   UNL     1      47.038   8.167  12.162  0.00  0.00    +0.000 A 
ATOM     22  C   UNL     1      46.370   7.005  12.596  0.00  0.00    +0.000 A 
BRANCH  17  24
ATOM     23  N   UNL     1      46.368   3.704  14.007  0.00  0.00    +0.000 NA
ATOM     24  C   UNL     1      46.746   4.737  13.620  0.00  0.00    +0.000 C 
ENDBRANCH  17  24
ENDBRANCH  15  22
ENDBRANCH  14  15
ENDBRANCH   1  14
TORSDOF 5
ENDMDL
MODEL 2
REMARK VINA RESULT:    -7.868      1.393      2.394
REMARK INTER + INTRA:         -11.268
REMARK INTER:                 -10.357
REMARK INTRA:                  -0.911
REMARK UNBOUND:                -1.100
REMARK  Name = 
REMARK  5 active torsions:
REMARK  status: ('A' for Active; 'I' for Inactive)
REMARK    1  A    between atoms: C_2  and  C_3
REMARK    2  A    between atoms: C_8  and  N_9
REMARK    3  A    between atoms: N_9  and  C_10
REMARK    4  A    between atoms: C_10  and  C_11
REMARK    5  A    between atoms: C_15  and  C_16
REMARK                            x       y       z     vdW  Elec       q    Type
REMARK                         _______ _______ _______ _____ _____    ______ ____
ROOT
ATOM      1  C   UNL     1      43.924   5.171  11.161  0.00  0.00    +0.000 A 
ATOM      2  C   UNL     1      43.213   4.253  11.941  0.00  0.00    +0.000 A 
ATOM      3  C   UNL     1      43.289   2.892  11.656  0.00  0.00    +0.000 A 
ATOM      4  C   UNL     1      44.075   2.436  10.593  0.00  0.00    +0.000 A 
ATOM      5  C   UNL     1      44.808   3.326   9.789  0.00  0.00    +0.000 A 
ATOM      6  C   UNL     1      44.730   4.694  10.113  0.00  0.00    +0.000 A 
ENDROOT
BRANCH   5   7
ATOM      7  C   UNL     1      45.597   2.859   8.624  0.00  0.00    +0.000 A 
ATOM      8  C   UNL     1      46.010   3.747   7.610  0.00  0.00    +0.000 A 
ATOM      9  C   UNL     1      46.736   3.309   6.497  0.00  0.00    +0.000 A 
ATOM     10  C   UNL     1      47.081   1.967   6.379  0.00  0.00    +0.000 A 
ATOM     11  C   UNL     1      46.681   1.078   7.366  0.00  0.00    +0.000 A 
ATOM     12  F   UNL     1      47.005  -0.218   7.254  0.00  0.00    +0.000 F 
ATOM     13  C   UNL     1      45.945   1.505   8.468  0.00  0.00    +0.000 A 
ENDBRANCH   5   7
BRANCH   1  14
ATOM     14  C   UNL     1      43.782   6.659  11.376  0.00  0.00    +0.000 C 
BRANCH  14  15
ATOM     15  N   UNL     1      44.546   7.100  12.533  0.00  0.00    +0.000 N 
ATOM     16  H   UNL     1      43.960   7.443  13.292  0.00  0.00    +0.000 HD
BRANCH  15  22
ATOM     17  C   UNL     1      46.024   9.125  12.149  0.00  0.00    +0.000 A 
ATOM     18  N   UNL     1      47.270   9.661  11.975  0.00  0.00    +0.000 NA
ATOM     19  C   UNL     1      48.324   8.832  12.046  0.00  0.00    +0.000 A 
ATOM     20  C   UNL     1      48.205   7.480  12.289  0.00  0.00    +0.000 A 
ATOM     21  C   UNL     1      46.924   6.953  12.469  0.00  0.00    +0.000 A 
ATOM     22  C   UNL     1      45.774   7.765  12.429  0.00  0.00    +0.000 A 
BRANCH  17  24
ATOM     23  N   UNL     1      44.182  10.955  11.948  0.00  0.00    +0.000 NA
ATOM     24  C   UNL     1      44.997  10.128  12.048  0.00  0.00    +0.000 C 
ENDBRANCH  17  24
ENDBRANCH  15  22
ENDBRANCH  14  15
ENDBRANCH   1  14
TORSDOF 5
ENDMDL
MODEL 3
REMARK VINA RESULT:    -7.263      2.070      2.479
REMARK INTER + INTRA:         -10.486
REMARK INTER:                  -9.839
REMARK INTRA:                  -0.647
REMARK UNBOUND:                -1.100
REMARK  Name = 
REMARK  5 active torsions:
REMARK  status: ('A' for Active; 'I' for Inactive)
REMARK    1  A    between atoms: C_2  and  C_3
REMARK    2  A    between atoms: C_8  and  N_9
REMARK    3  A    between atoms: N_9  and  C_10
REMARK    4  A    between atoms: C_10  and  C_11
REMARK    5  A    between atoms: C_15  and  C_16
REMARK                            x       y       z     vdW  Elec       q    Type
REMARK                         _______ _______ _______ _____ _____    ______ ____
ROOT
ATOM      1  C   UNL     1      45.197   5.629  12.252  0.00  0.00    +0.000 A 
ATOM      2  C   UNL     1      43.815   5.830  12.305  0.00  0.00    +0.000 A 
ATOM      3  C   UNL     1      42.994   5.282  11.323  0.00  0.00    +0.000 A 
ATOM      4  C   UNL     1      43.546   4.529  10.281  0.00  0.00    +0.000 A 
ATOM      5  C   UNL     1      44.930   4.300  10.195  0.00  0.00    +0.000 A 
ATOM      6  C   UNL     1      45.733   4.847  11.214  0.00  0.00    +0.000 A 
ENDROOT
BRANCH   5   7
ATOM      7  C   UNL     1      45.531   3.554   9.064  0.00  0.00    +0.000 A 
ATOM      8  C   UNL     1      46.026   4.218   7.924  0.00  0.00    +0.000 A 
ATOM      9  C   UNL     1      46.574   3.517   6.843  0.00  0.00    +0.000 A 
ATOM     10  C   UNL     1      46.653   2.130   6.885  0.00  0.00    +0.000 A 
ATOM     11  C   UNL     1      46.168   1.459   7.998  0.00  0.00    +0.000 A 
ATOM     12  F   UNL     1      46.236   0.121   8.041  0.00  0.00    +0.000 F 
ATOM     13  C   UNL     1      45.608   2.149   9.070  0.00  0.00    +0.000 A 
ENDBRANCH   5   7
BRANCH   1  14
ATOM     14  C   UNL     1      46.125   6.295  13.241  0.00  0.00    +0.000 C 
BRANCH  14  15
ATOM     15  N   UNL     1      46.527   5.371  14.291  0.00  0.00    +0.000 N 
ATOM     16  H   UNL     1      45.738   4.984  14.806  0.00  0.00    +0.000 HD
BRANCH  15  22
ATOM     17  C   UNL     1      48.025   4.932  16.290  0.00  0.00    +0.000 A 
ATOM     18  N   UNL     1      49.127   5.257  17.034  0.00  0.00    +0.000 NA
ATOM     19  C   UNL     1      49.905   6.259  16.595  0.00  0.00    +0.000 A 
ATOM     20  C   UNL     1      49.647   6.964  15.439  0.00  0.00    +0.000 A 
ATOM     21  C   UNL     1      48.520   6.614  14.691  0.00  0.00    +0.000 A 
ATOM     22  C   UNL     1      47.670   5.560  15.078  0.00  0.00    +0.000 A 
BRANCH  17  24
ATOM     23  N   UNL     1      46.694   2.977  17.379  0.00  0.00    +0.000 NA
ATOM     24  C   UNL     1      47.291   3.844  16.879  0.00  0.00    +0.000 C 
ENDBRANCH  17  24
ENDBRANCH  15  22
ENDBRANCH  14  15
ENDBRANCH   1  14
TORSDOF 5
ENDMDL
MODEL 4
REMARK VINA RESULT:    -7.228      3.410      7.032
REMARK INTER + INTRA:         -10.441
REMARK INTER:                  -9.867
REMARK INTRA:                  -0.574
REMARK UNBOUND:                -1.100
REMARK  Name = 
REMARK  5 active torsions:
REMARK  status: ('A' for Active; 'I' for Inactive)
REMARK    1  A    between atoms: C_2  and  C_3
REMARK    2  A    between atoms: C_8  and  N_9
REMARK    3  A    between atoms: N_9  and  C_10
REMARK    4  A    between atoms: C_10  and  C_11
REMARK    5  A    between atoms: C_15  and  C_16
REMARK                            x       y       z     vdW  Elec       q    Type
REMARK                         _______ _______ _______ _____ _____    ______ ____
ROOT
ATOM      1  C   UNL     1      45.913   5.876  12.214  0.00  0.00    +0.000 A 
ATOM      2  C   UNL     1      46.817   6.729  11.576  0.00  0.00    +0.000 A 
ATOM      3  C   UNL     1      48.019   7.061  12.198  0.00  0.00    +0.000 A 
ATOM      4  C   UNL     1      48.326   6.544  13.461  0.00  0.00    +0.000 A 
ATOM      5  C   UNL     1      47.445   5.679  14.133  0.00  0.00    +0.000 A 
ATOM      6  C   UNL     1      46.249   5.343  13.471  0.00  0.00    +0.000 A 
ENDROOT
BRANCH   5   7
ATOM      7  C   UNL     1      47.735   5.172  15.496  0.00  0.00    +0.000 A 
ATOM      8  C   UNL     1      48.652   5.824  16.344  0.00  0.00    +0.000 A 
ATOM      9  C   UNL     1      48.947   5.338  17.623  0.00  0.00    +0.000 A 
ATOM     10  C   UNL     1      48.317   4.191  18.091  0.00  0.00    +0.000 A 
ATOM     11  C   UNL     1      47.413   3.534  17.269  0.00  0.00    +0.000 A 
ATOM     12  F   UNL     1      46.807   2.424  17.712  0.00  0.00    +0.000 F 
ATOM     13  C   UNL     1      47.126   4.003  15.989  0.00  0.00    +0.000 A 
ENDBRANCH   5   7
BRANCH   1  14
ATOM     14  C   UNL     1      44.558   5.579  11.616  0.00  0.00    +0.000 C 
BRANCH  14  15
ATOM     15  N   UNL     1      44.623   5.527  10.163  0.00  0.00    +0.000 N 
ATOM     16  H   UNL     1      43.893   6.075   9.711  0.00  0.00    +0.000 HD
BRANCH  15  22
ATOM     17  C   UNL     1      44.677   3.025   9.750  0.00  0.00    +0.000 A 
ATOM     18  N   UNL     1      45.152   1.956   9.042  0.00  0.00    +0.000 NA
ATOM     19  C   UNL     1      45.982   2.203   8.015  0.00  0.00    +0.000 A 
ATOM     20  C   UNL     1      46.368   3.474   7.647  0.00  0.00    +0.000 A 
ATOM     21  C   UNL     1      45.869   4.553   8.380  0.00  0.00    +0.000 A 
ATOM     22  C   UNL     1      44.977   4.372   9.456  0.00  0.00    +0.000 A 
BRANCH  17  24
ATOM     23  N   UNL     1      43.072   2.276  11.658  0.00  0.00    +0.000 NA
ATOM     24  C   UNL     1      43.802   2.609  10.814  0.00  0.00    +0.000 C 
ENDBRANCH  17  24
ENDBRANCH  15  22
ENDBRANCH  14  15
ENDBRANCH   1  14
TORSDOF 5
ENDMDL
MODEL 5
REMARK VINA RESULT:    -7.016      1.661      2.760
REMARK INTER + INTRA:         -10.167
REMARK INTER:                  -9.365
REMARK INTRA:                  -0.802
REMARK UNBOUND:                -1.100
REMARK  Name = 
REMARK  5 active torsions:
REMARK  status: ('A' for Active; 'I' for Inactive)
REMARK    1  A    between atoms: C_2  and  C_3
REMARK    2  A    between atoms: C_8  and  N_9
REMARK    3  A    between atoms: N_9  and  C_10
REMARK    4  A    between atoms: C_10  and  C_11
REMARK    5  A    between atoms: C_15  and  C_16
REMARK                            x       y       z     vdW  Elec       q    Type
REMARK                         _______ _______ _______ _____ _____    ______ ____
ROOT
ATOM      1  C   UNL     1      45.045   5.939  11.900  0.00  0.00    +0.000 A 
ATOM      2  C   UNL     1      43.665   5.843  12.104  0.00  0.00    +0.000 A 
ATOM      3  C   UNL     1      42.901   4.994  11.307  0.00  0.00    +0.000 A 
ATOM      4  C   UNL     1      43.508   4.233  10.302  0.00  0.00    +0.000 A 
ATOM      5  C   UNL     1      44.893   4.298  10.069  0.00  0.00    +0.000 A 
ATOM      6  C   UNL     1      45.643   5.147  10.904  0.00  0.00    +0.000 A 
ENDROOT
BRANCH   5   7
ATOM      7  C   UNL     1      45.537   3.541   8.969  0.00  0.00    +0.000 A 
ATOM      8  C   UNL     1      46.083   4.194   7.846  0.00  0.00    +0.000 A 
ATOM      9  C   UNL     1      46.673   3.484   6.794  0.00  0.00    +0.000 A 
ATOM     10  C   UNL     1      46.742   2.097   6.848  0.00  0.00    +0.000 A 
ATOM     11  C   UNL     1      46.207   1.436   7.944  0.00  0.00    +0.000 A 
ATOM     12  F   UNL     1      46.266   0.098   7.998  0.00  0.00    +0.000 F 
ATOM     13  C   UNL     1      45.606   2.135   8.987  0.00  0.00    +0.000 A 
ENDBRANCH   5   7
BRANCH   1  14
ATOM     14  C   UNL     1      45.886   6.925  12.674  0.00  0.00    +0.000 C 
BRANCH  14  15
ATOM     15  N   UNL     1      47.207   6.384  12.956  0.00  0.00    +0.000 N 
ATOM     16  H   UNL     1      47.589   5.839  12.185  0.00  0.00    +0.000 HD
BRANCH  15  22
ATOM     17  C   UNL     1      48.640   6.339  15.049  0.00  0.00    +0.000 A 
ATOM     18  N   UNL     1      48.985   5.742  16.231  0.00  0.00    +0.000 NA
ATOM     19  C   UNL     1      48.290   4.658  16.612  0.00  0.00    +0.000 A 
ATOM     20  C   UNL     1      47.254   4.129  15.873  0.00  0.00    +0.000 A 
ATOM     21  C   UNL     1      46.914   4.755  14.671  0.00  0.00    +0.000 A 
ATOM     22  C   UNL     1      47.584   5.908  14.219  0.00  0.00    +0.000 A 
BRANCH  17  24
ATOM     23  N   UNL     1      50.132   8.420  14.577  0.00  0.00    +0.000 NA
ATOM     24  C   UNL     1      49.466   7.484  14.773  0.00  0.00    +0.000 C 
ENDBRANCH  17  24
ENDBRANCH  15  22
ENDBRANCH  14  15
ENDBRANCH   1  14
TORSDOF 5
ENDMDL
MODEL 6
REMARK VINA RESULT:    -6.686      2.923      4.465
REMARK INTER + INTRA:          -9.741
REMARK INTER:                  -9.079
REMARK INTRA:                  -0.663
REMARK UNBOUND:                -1.100
REMARK  Name = 
REMARK  5 active torsions:
REMARK  status: ('A' for Active; 'I' for Inactive)
REMARK    1  A    between atoms: C_2  and  C_3
REMARK    2  A    between atoms: C_8  and  N_9
REMARK    3  A    between atoms: N_9  and  C_10
REMARK    4  A    between atoms: C_10  and  C_11
REMARK    5  A    between atoms: C_15  and  C_16
REMARK                            x       y       z     vdW  Elec       q    Type
REMARK                         _______ _______ _______ _____ _____    ______ ____
ROOT
ATOM      1  C   UNL     1      46.957   7.199  13.205  0.00  0.00    +0.000 A 
ATOM      2  C   UNL     1      46.277   8.412  13.063  0.00  0.00    +0.000 A 
ATOM      3  C   UNL     1      45.239   8.525  12.141  0.00  0.00    +0.000 A 
ATOM      4  C   UNL     1      44.871   7.428  11.355  0.00  0.00    +0.000 A 
ATOM      5  C   UNL     1      45.527   6.189  11.472  0.00  0.00    +0.000 A 
ATOM      6  C   UNL     1      46.556   6.098  12.427  0.00  0.00    +0.000 A 
ENDROOT
BRANCH   5   7
ATOM      7  C   UNL     1      45.183   5.038  10.603  0.00  0.00    +0.000 A 
ATOM      8  C   UNL     1      44.444   3.942  11.091  0.00  0.00    +0.000 A 
ATOM      9  C   UNL     1      44.135   2.842  10.283  0.00  0.00    +0.000 A 
ATOM     10  C   UNL     1      44.549   2.820   8.956  0.00  0.00    +0.000 A 
ATOM     11  C   UNL     1      45.280   3.888   8.459  0.00  0.00    +0.000 A 
ATOM     12  F   UNL     1      45.687   3.870   7.181  0.00  0.00    +0.000 F 
ATOM     13  C   UNL     1      45.604   4.979   9.261  0.00  0.00    +0.000 A 
ENDBRANCH   5   7
BRANCH   1  14
ATOM     14  C   UNL     1      48.153   7.072  14.118  0.00  0.00    +0.000 C 
BRANCH  14  15
ATOM     15  N   UNL     1      47.841   6.260  15.285  0.00  0.00    +0.000 N 
ATOM     16  H   UNL     1      46.975   6.536  15.743  0.00  0.00    +0.000 HD
BRANCH  15  22
ATOM     17  C   UNL     1      48.736   4.737  17.105  0.00  0.00    +0.000 A 
ATOM     18  N   UNL     1      49.722   4.416  17.997  0.00  0.00    +0.000 NA
ATOM     19  C   UNL     1      50.832   5.172  18.002  0.00  0.00    +0.000 A 
ATOM     20  C   UNL     1      51.019   6.243  17.155  0.00  0.00    +0.000 A 
ATOM     21  C   UNL     1      50.001   6.553  16.249  0.00  0.00    +0.000 A 
ATOM     22  C   UNL     1      48.819   5.791  16.171  0.00  0.00    +0.000 A 
BRANCH  17  24
ATOM     23  N   UNL     1      46.689   3.140  17.306  0.00  0.00    +0.000 NA
ATOM     24  C   UNL     1      47.614   3.843  17.212  0.00  0.00    +0.000 C 
ENDBRANCH  17  24
ENDBRANCH  15  22
ENDBRANCH  14  15
ENDBRANCH   1  14
TORSDOF 5
ENDMDL
MODEL 7
REMARK VINA RESULT:    -6.638      3.399      6.481
REMARK INTER + INTRA:          -9.678
REMARK INTER:                  -8.798
REMARK INTRA:                  -0.880
REMARK UNBOUND:                -1.100
REMARK  Name = 
REMARK  5 active torsions:
REMARK  status: ('A' for Active; 'I' for Inactive)
REMARK    1  A    between atoms: C_2  and  C_3
REMARK    2  A    between atoms: C_8  and  N_9
REMARK    3  A    between atoms: N_9  and  C_10
REMARK    4  A    between atoms: C_10  and  C_11
REMARK    5  A    between atoms: C_15  and  C_16
REMARK                            x       y       z     vdW  Elec       q    Type
REMARK                         _______ _______ _______ _____ _____    ______ ____
ROOT
ATOM      1  C   UNL     1      44.110   3.526  10.686  0.00  0.00    +0.000 A 
ATOM      2  C   UNL     1      43.387   3.098  11.803  0.00  0.00    +0.000 A 
ATOM      3  C   UNL     1      43.430   3.834  12.984  0.00  0.00    +0.000 A 
ATOM      4  C   UNL     1      44.195   5.003  13.060  0.00  0.00    +0.000 A 
ATOM      5  C   UNL     1      44.932   5.469  11.958  0.00  0.00    +0.000 A 
ATOM      6  C   UNL     1      44.851   4.718  10.770  0.00  0.00    +0.000 A 
ENDROOT
BRANCH   5   7
ATOM      7  C   UNL     1      45.791   6.674  12.045  0.00  0.00    +0.000 A 
ATOM      8  C   UNL     1      45.281   7.912  12.486  0.00  0.00    +0.000 A 
ATOM      9  C   UNL     1      46.081   9.058  12.550  0.00  0.00    +0.000 A 
ATOM     10  C   UNL     1      47.421   8.989  12.186  0.00  0.00    +0.000 A 
ATOM     11  C   UNL     1      47.940   7.781  11.746  0.00  0.00    +0.000 A 
ATOM     12  F   UNL     1      49.230   7.710  11.389  0.00  0.00    +0.000 F 
ATOM     13  C   UNL     1      47.146   6.639  11.666  0.00  0.00    +0.000 A 
ENDBRANCH   5   7
BRANCH   1  14
ATOM     14  C   UNL     1      44.169   2.699   9.424  0.00  0.00    +0.000 C 
BRANCH  14  15
ATOM     15  N   UNL     1      45.510   2.182   9.194  0.00  0.00    +0.000 N 
ATOM     16  H   UNL     1      46.113   2.260  10.011  0.00  0.00    +0.000 HD
BRANCH  15  22
ATOM     17  C   UNL     1      46.829   1.357   7.192  0.00  0.00    +0.000 A 
ATOM     18  N   UNL     1      47.550   1.625   6.061  0.00  0.00    +0.000 NA
ATOM     19  C   UNL     1      47.682   2.910   5.693  0.00  0.00    +0.000 A 
ATOM     20  C   UNL     1      47.124   3.957   6.395  0.00  0.00    +0.000 A 
ATOM     21  C   UNL     1      46.387   3.661   7.545  0.00  0.00    +0.000 A 
ATOM     22  C   UNL     1      46.189   2.336   7.980  0.00  0.00    +0.000 A 
BRANCH  17  24
ATOM     23  N   UNL     1      46.725  -1.205   7.649  0.00  0.00    +0.000 NA
ATOM     24  C   UNL     1      46.772  -0.056   7.460  0.00  0.00    +0.000 C 
ENDBRANCH  17  24
ENDBRANCH  15  22
ENDBRANCH  14  15
ENDBRANCH   1  14
TORSDOF 5
ENDMDL
MODEL 8
REMARK VINA RESULT:    -6.499      2.894      4.768
REMARK INTER + INTRA:          -9.499
REMARK INTER:                  -8.737
REMARK INTRA:                  -0.761
REMARK UNBOUND:                -1.100
REMARK  Name = 
REMARK  5 active torsions:
REMARK  status: ('A' for Active; 'I' for Inactive)
REMARK    1  A    between atoms: C_2  and  C_3
REMARK    2  A    between atoms: C_8  and  N_9
REMARK    3  A    between atoms: N_9  and  C_10
REMARK    4  A    between atoms: C_10  and  C_11
REMARK    5  A    between atoms: C_15  and  C_16
REMARK                            x       y       z     vdW  Elec       q    Type
REMARK                         _______ _______ _______ _____ _____    ______ ____
ROOT
ATOM      1  C   UNL     1      47.115   6.825  13.237  0.00  0.00    +0.000 A 
ATOM      2  C   UNL     1      46.457   8.057  13.168  0.00  0.00    +0.000 A 
ATOM      3  C   UNL     1      45.409   8.237  12.269  0.00  0.00    +0.000 A 
ATOM      4  C   UNL     1      45.009   7.190  11.432  0.00  0.00    +0.000 A 
ATOM      5  C   UNL     1      45.642   5.935  11.474  0.00  0.00    +0.000 A 
ATOM      6  C   UNL     1      46.682   5.775  12.408  0.00  0.00    +0.000 A 
ENDROOT
BRANCH   5   7
ATOM      7  C   UNL     1      45.264   4.838  10.552  0.00  0.00    +0.000 A 
ATOM      8  C   UNL     1      44.529   3.722  10.997  0.00  0.00    +0.000 A 
ATOM      9  C   UNL     1      44.188   2.672  10.137  0.00  0.00    +0.000 A 
ATOM     10  C   UNL     1      44.565   2.722   8.800  0.00  0.00    +0.000 A 
ATOM     11  C   UNL     1      45.291   3.812   8.344  0.00  0.00    +0.000 A 
ATOM     12  F   UNL     1      45.662   3.863   7.056  0.00  0.00    +0.000 F 
ATOM     13  C   UNL     1      45.647   4.853   9.198  0.00  0.00    +0.000 A 
ENDBRANCH   5   7
BRANCH   1  14
ATOM     14  C   UNL     1      48.320   6.627  14.125  0.00  0.00    +0.000 C 
BRANCH  14  15
ATOM     15  N   UNL     1      47.927   6.435  15.513  0.00  0.00    +0.000 N 
ATOM     16  H   UNL     1      47.886   7.306  16.040  0.00  0.00    +0.000 HD
BRANCH  15  22
ATOM     17  C   UNL     1      49.536   5.155  16.999  0.00  0.00    +0.000 A 
ATOM     18  N   UNL     1      49.884   3.999  17.641  0.00  0.00    +0.000 NA
ATOM     19  C   UNL     1      49.042   2.956  17.554  0.00  0.00    +0.000 A 
ATOM     20  C   UNL     1      47.853   3.003  16.858  0.00  0.00    +0.000 A 
ATOM     21  C   UNL     1      47.513   4.195  16.212  0.00  0.00    +0.000 A 
ATOM     22  C   UNL     1      48.337   5.336  16.277  0.00  0.00    +0.000 A 
BRANCH  17  24
ATOM     23  N   UNL     1      51.321   7.027  17.306  0.00  0.00    +0.000 NA
ATOM     24  C   UNL     1      50.529   6.181  17.180  0.00  0.00    +0.000 C 
ENDBRANCH  17  24
ENDBRANCH  15  22
ENDBRANCH  14  15
ENDBRANCH   1  14
TORSDOF 5
ENDMDL
MODEL 9
REMARK VINA RESULT:    -6.470      3.437      7.273
REMARK INTER + INTRA:          -9.462
REMARK INTER:                  -8.564
REMARK INTRA:                  -0.898
REMARK UNBOUND:                -1.100
REMARK  Name = 
REMARK  5 active torsions:
REMARK  status: ('A' for Active; 'I' for Inactive)
REMARK    1  A    between atoms: C_2  and  C_3
REMARK    2  A    between atoms: C_8  and  N_9
REMARK    3  A    between atoms: N_9  and  C_10
REMARK    4  A    between atoms: C_10  and  C_11
REMARK    5  A    between atoms: C_15  and  C_16
REMARK                            x       y       z     vdW  Elec       q    Type
REMARK                         _______ _______ _______ _____ _____    ______ ____
ROOT
ATOM      1  C   UNL     1      46.767   7.205  12.372  0.00  0.00    +0.000 A 
ATOM      2  C   UNL     1      47.897   7.779  11.783  0.00  0.00    +0.000 A 
ATOM      3  C   UNL     1      49.137   7.675  12.409  0.00  0.00    +0.000 A 
ATOM      4  C   UNL     1      49.258   6.998  13.627  0.00  0.00    +0.000 A 
ATOM      5  C   UNL     1      48.146   6.403  14.249  0.00  0.00    +0.000 A 
ATOM      6  C   UNL     1      46.911   6.504  13.583  0.00  0.00    +0.000 A 
ENDROOT
BRANCH   5   7
ATOM      7  C   UNL     1      48.253   5.734  15.568  0.00  0.00    +0.000 A 
ATOM      8  C   UNL     1      49.142   6.197  16.558  0.00  0.00    +0.000 A 
ATOM      9  C   UNL     1      49.264   5.557  17.797  0.00  0.00    +0.000 A 
ATOM     10  C   UNL     1      48.484   4.442  18.080  0.00  0.00    +0.000 A 
ATOM     11  C   UNL     1      47.604   3.971  17.117  0.00  0.00    +0.000 A 
ATOM     12  F   UNL     1      46.853   2.893  17.382  0.00  0.00    +0.000 F 
ATOM     13  C   UNL     1      47.488   4.594  15.877  0.00  0.00    +0.000 A 
ENDBRANCH   5   7
BRANCH   1  14
ATOM     14  C   UNL     1      45.392   7.388  11.774  0.00  0.00    +0.000 C 
BRANCH  14  15
ATOM     15  N   UNL     1      45.151   6.430  10.705  0.00  0.00    +0.000 N 
ATOM     16  H   UNL     1      44.811   6.864   9.849  0.00  0.00    +0.000 HD
BRANCH  15  22
ATOM     17  C   UNL     1      44.531   4.062  10.039  0.00  0.00    +0.000 A 
ATOM     18  N   UNL     1      43.913   2.877  10.330  0.00  0.00    +0.000 NA
ATOM     19  C   UNL     1      43.334   2.753  11.535  0.00  0.00    +0.000 A 
ATOM     20  C   UNL     1      43.339   3.755  12.481  0.00  0.00    +0.000 A 
ATOM     21  C   UNL     1      43.979   4.956  12.167  0.00  0.00    +0.000 A 
ATOM     22  C   UNL     1      44.627   5.151  10.931  0.00  0.00    +0.000 A 
BRANCH  17  24
ATOM     23  N   UNL     1      45.565   4.012   7.649  0.00  0.00    +0.000 NA
ATOM     24  C   UNL     1      45.106   4.050   8.720  0.00  0.00    +0.000 C 
ENDBRANCH  17  24
ENDBRANCH  15  22
ENDBRANCH  14  15
ENDBRANCH   1  14
TORSDOF 5
ENDMDL
