MODEL 1
REMARK VINA RESULT:    -9.539      0.000      0.000
REMARK INTER + INTRA:         -12.225
REMARK INTER:                 -11.770
REMARK INTRA:                  -0.455
REMARK UNBOUND:                -0.455
REMARK  Name = 
REMARK  4 active torsions:
REMARK  status: ('A' for Active; 'I' for Inactive)
REMARK    1  A    between atoms: C_2  and  C_4
REMARK    2  A    between atoms: N_8  and  C_9
REMARK    3  A    between atoms: C_9  and  C_10
REMARK    4  A    between atoms: C_14  and  C_15
REMARK                            x       y       z     vdW  Elec       q    Type
REMARK                         _______ _______ _______ _____ _____    ______ ____
ROOT
ATOM      1  C   UNL     1      43.857   4.918  11.475  0.00  0.00    +0.000 C 
ATOM      2  C   UNL     1      42.741   4.985  12.512  0.00  0.00    +0.000 C 
ATOM      3  C   UNL     1      42.752   5.951  11.374  0.00  0.00    +0.000 C 
ENDROOT
BRANCH   1   8
ATOM      4  C   UNL     1      46.392   2.693   7.513  0.00  0.00    +0.000 A 
ATOM      5  C   UNL     1      45.972   4.015   7.632  0.00  0.00    +0.000 A 
ATOM      6  C   UNL     1      45.161   4.382   8.709  0.00  0.00    +0.000 A 
ATOM      7  C   UNL     1      44.780   3.423   9.640  0.00  0.00    +0.000 A 
ATOM      8  N   UNL     1      43.874   3.679  10.676  0.00  0.00    +0.000 N 
ATOM      9  N   UNL     1      45.190   2.140   9.540  0.00  0.00    +0.000 NA
ATOM     10  C   UNL     1      45.977   1.799   8.487  0.00  0.00    +0.000 A 
ATOM     11  H   UNL     1      43.852   2.816  11.219  0.00  0.00    +0.000 HD
BRANCH   4  13
ATOM     12  N   UNL     1      47.249   2.966   5.253  0.00  0.00    +0.000 N 
ATOM     13  C   UNL     1      47.204   2.196   6.381  0.00  0.00    +0.000 C 
ATOM     14  O   UNL     1      47.828   1.147   6.455  0.00  0.00    +0.000 OA
ATOM     15  H   UNL     1      47.869   2.651   4.517  0.00  0.00    +0.000 HD
ATOM     16  H   UNL     1      46.955   3.932   5.235  0.00  0.00    +0.000 HD
ENDBRANCH   4  13
ENDBRANCH   1   8
BRANCH   1  17
ATOM     17  C   UNL     1      45.257   5.376  11.876  0.00  0.00    +0.000 A 
ATOM     18  C   UNL     1      45.946   6.362  11.153  0.00  0.00    +0.000 A 
ATOM     19  C   UNL     1      47.154   6.887  11.610  0.00  0.00    +0.000 A 
ATOM     20  C   UNL     1      47.687   6.450  12.821  0.00  0.00    +0.000 A 
ATOM     21  C   UNL     1      47.038   5.470  13.589  0.00  0.00    +0.000 A 
ATOM     22  C   UNL     1      45.848   4.922  13.072  0.00  0.00    +0.000 A 
BRANCH  21  23
ATOM     23  C   UNL     1      47.520   5.101  14.936  0.00  0.00    +0.000 A 
ATOM     24  C   UNL     1      48.529   5.804  15.598  0.00  0.00    +0.000 A 
ATOM     25  N   UNL     1      49.048   5.469  16.807  0.00  0.00    +0.000 NA
ATOM     26  C   UNL     1      48.528   4.369  17.402  0.00  0.00    +0.000 A 
ATOM     27  C   UNL     1      47.523   3.607  16.841  0.00  0.00    +0.000 A 
ATOM     28  F   UNL     1      47.049   2.526  17.474  0.00  0.00    +0.000 F 
ATOM     29  C   UNL     1      47.013   3.971  15.605  0.00  0.00    +0.000 A 
ENDBRANCH  21  23
ENDBRANCH   1  17
TORSDOF 4
ENDMDL
MODEL 2
REMARK VINA RESULT:    -9.530      2.619      3.630
REMARK INTER + INTRA:         -12.214
REMARK INTER:                 -11.079
REMARK INTRA:                  -1.134
REMARK UNBOUND:                -0.455
REMARK  Name = 
REMARK  4 active torsions:
REMARK  status: ('A' for Active; 'I' for Inactive)
REMARK    1  A    between atoms: C_2  and  C_4
REMARK    2  A    between atoms: N_8  and  C_9
REMARK    3  A    between atoms: C_9  and  C_10
REMARK    4  A    between atoms: C_14  and  C_15
REMARK                            x       y       z     vdW  Elec       q    Type
REMARK                         _______ _______ _______ _____ _____    ______ ____
ROOT
ATOM      1  C   UNL     1      43.783   4.882  11.359  0.00  0.00    +0.000 C 
ATOM      2  C   UNL     1      42.438   5.123  12.034  0.00  0.00    +0.000 C 
ATOM      3  C   UNL     1      42.954   6.109  11.039  0.00  0.00    +0.000 C 
ENDROOT
BRANCH   1   8
ATOM      4  C   UNL     1      46.583   2.777   7.511  0.00  0.00    +0.000 A 
ATOM      5  C   UNL     1      46.207   4.108   7.673  0.00  0.00    +0.000 A 
ATOM      6  C   UNL     1      45.315   4.448   8.694  0.00  0.00    +0.000 A 
ATOM      7  C   UNL     1      44.812   3.454   9.525  0.00  0.00    +0.000 A 
ATOM      8  N   UNL     1      43.824   3.691  10.489  0.00  0.00    +0.000 N 
ATOM      9  N   UNL     1      45.177   2.162   9.383  0.00  0.00    +0.000 NA
ATOM     10  C   UNL     1      46.044   1.848   8.385  0.00  0.00    +0.000 A 
ATOM     11  H   UNL     1      43.717   2.800  10.973  0.00  0.00    +0.000 HD
BRANCH   4  13
ATOM     12  N   UNL     1      47.393   2.951   5.223  0.00  0.00    +0.000 N 
ATOM     13  C   UNL     1      47.475   2.310   6.428  0.00  0.00    +0.000 C 
ATOM     14  O   UNL     1      48.272   1.399   6.604  0.00  0.00    +0.000 OA
ATOM     15  H   UNL     1      48.062   2.671   4.518  0.00  0.00    +0.000 HD
ATOM     16  H   UNL     1      46.936   3.844   5.106  0.00  0.00    +0.000 HD
ENDBRANCH   4  13
ENDBRANCH   1   8
BRANCH   1  17
ATOM     17  C   UNL     1      45.057   5.049  12.183  0.00  0.00    +0.000 A 
ATOM     18  C   UNL     1      45.551   4.017  12.995  0.00  0.00    +0.000 A 
ATOM     19  C   UNL     1      46.792   4.118  13.621  0.00  0.00    +0.000 A 
ATOM     20  C   UNL     1      47.581   5.251  13.425  0.00  0.00    +0.000 A 
ATOM     21  C   UNL     1      47.138   6.311  12.618  0.00  0.00    +0.000 A 
ATOM     22  C   UNL     1      45.857   6.202  12.044  0.00  0.00    +0.000 A 
BRANCH  21  23
ATOM     23  C   UNL     1      48.020   7.451  12.291  0.00  0.00    +0.000 A 
ATOM     24  C   UNL     1      47.544   8.754  12.127  0.00  0.00    +0.000 A 
ATOM     25  N   UNL     1      48.302   9.822  11.767  0.00  0.00    +0.000 NA
ATOM     26  C   UNL     1      49.620   9.583  11.563  0.00  0.00    +0.000 A 
ATOM     27  C   UNL     1      50.196   8.338  11.707  0.00  0.00    +0.000 A 
ATOM     28  F   UNL     1      51.505   8.159  11.489  0.00  0.00    +0.000 F 
ATOM     29  C   UNL     1      49.398   7.265  12.073  0.00  0.00    +0.000 A 
ENDBRANCH  21  23
ENDBRANCH   1  17
TORSDOF 4
ENDMDL
MODEL 3
REMARK VINA RESULT:    -7.640      4.107      8.437
REMARK INTER + INTRA:          -9.881
REMARK INTER:                  -8.897
REMARK INTRA:                  -0.985
REMARK UNBOUND:                -0.455
REMARK  Name = 
REMARK  4 active torsions:
REMARK  status: ('A' for Active; 'I' for Inactive)
REMARK    1  A    between atoms: C_2  and  C_4
REMARK    2  A    between atoms: N_8  and  C_9
REMARK    3  A    between atoms: C_9  and  C_10
REMARK    4  A    between atoms: C_14  and  C_15
REMARK                            x       y       z     vdW  Elec       q    Type
REMARK                         _______ _______ _______ _____ _____    ______ ____
ROOT
ATOM      1  C   UNL     1      48.996   7.909  12.646  0.00  0.00    +0.000 C 
ATOM      2  C   UNL     1      49.947   8.117  11.473  0.00  0.00    +0.000 C 
ATOM      3  C   UNL     1      49.647   9.254  12.393  0.00  0.00    +0.000 C 
ENDROOT
BRANCH   1   8
ATOM      4  C   UNL     1      48.459   6.762  17.693  0.00  0.00    +0.000 A 
ATOM      5  C   UNL     1      48.568   8.018  17.104  0.00  0.00    +0.000 A 
ATOM      6  C   UNL     1      48.867   8.112  15.742  0.00  0.00    +0.000 A 
ATOM      7  C   UNL     1      49.061   6.953  15.000  0.00  0.00    +0.000 A 
ATOM      8  N   UNL     1      49.483   6.960  13.665  0.00  0.00    +0.000 N 
ATOM      9  N   UNL     1      48.949   5.729  15.559  0.00  0.00    +0.000 NA
ATOM     10  C   UNL     1      48.658   5.655  16.884  0.00  0.00    +0.000 A 
ATOM     11  H   UNL     1      49.466   5.980  13.384  0.00  0.00    +0.000 HD
BRANCH   4  13
ATOM     12  N   UNL     1      47.209   5.686  19.481  0.00  0.00    +0.000 N 
ATOM     13  C   UNL     1      48.201   6.560  19.135  0.00  0.00    +0.000 C 
ATOM     14  O   UNL     1      48.860   7.136  19.990  0.00  0.00    +0.000 OA
ATOM     15  H   UNL     1      47.096   5.501  20.470  0.00  0.00    +0.000 HD
ATOM     16  H   UNL     1      46.811   5.021  18.833  0.00  0.00    +0.000 HD
ENDBRANCH   4  13
ENDBRANCH   1   8
BRANCH   1  17
ATOM     17  C   UNL     1      47.505   7.748  12.362  0.00  0.00    +0.000 A 
ATOM     18  C   UNL     1      46.602   8.809  12.536  0.00  0.00    +0.000 A 
ATOM     19  C   UNL     1      45.273   8.705  12.128  0.00  0.00    +0.000 A 
ATOM     20  C   UNL     1      44.825   7.538  11.511  0.00  0.00    +0.000 A 
ATOM     21  C   UNL     1      45.686   6.448  11.306  0.00  0.00    +0.000 A 
ATOM     22  C   UNL     1      47.007   6.565  11.778  0.00  0.00    +0.000 A 
BRANCH  21  23
ATOM     23  C   UNL     1      45.260   5.265  10.531  0.00  0.00    +0.000 A 
ATOM     24  C   UNL     1      44.498   4.232  11.082  0.00  0.00    +0.000 A 
ATOM     25  N   UNL     1      44.135   3.097  10.431  0.00  0.00    +0.000 NA
ATOM     26  C   UNL     1      44.549   2.981   9.147  0.00  0.00    +0.000 A 
ATOM     27  C   UNL     1      45.298   3.945   8.501  0.00  0.00    +0.000 A 
ATOM     28  F   UNL     1      45.683   3.775   7.230  0.00  0.00    +0.000 F 
ATOM     29  C   UNL     1      45.656   5.092   9.191  0.00  0.00    +0.000 A 
ENDBRANCH  21  23
ENDBRANCH   1  17
TORSDOF 4
ENDMDL
MODEL 4
REMARK VINA RESULT:    -7.518      3.522      7.739
REMARK INTER + INTRA:          -9.731
REMARK INTER:                  -9.721
REMARK INTRA:                  -0.010
REMARK UNBOUND:                -0.455
REMARK  Name = 
REMARK  4 active torsions:
REMARK  status: ('A' for Active; 'I' for Inactive)
REMARK    1  A    between atoms: C_2  and  C_4
REMARK    2  A    between atoms: N_8  and  C_9
REMARK    3  A    between atoms: C_9  and  C_10
REMARK    4  A    between atoms: C_14  and  C_15
REMARK                            x       y       z     vdW  Elec       q    Type
REMARK                         _______ _______ _______ _____ _____    ______ ____
ROOT
ATOM      1  C   UNL     1      48.417   7.706  12.762  0.00  0.00    +0.000 C 
ATOM      2  C   UNL     1      49.543   7.038  11.982  0.00  0.00    +0.000 C 
ATOM      3  C   UNL     1      49.365   8.518  11.903  0.00  0.00    +0.000 C 
ENDROOT
BRANCH   1   8
ATOM      4  C   UNL     1      47.980   4.259  16.636  0.00  0.00    +0.000 A 
ATOM      5  C   UNL     1      47.145   4.426  15.535  0.00  0.00    +0.000 A 
ATOM      6  C   UNL     1      47.342   5.517  14.685  0.00  0.00    +0.000 A 
ATOM      7  C   UNL     1      48.361   6.424  14.956  0.00  0.00    +0.000 A 
ATOM      8  N   UNL     1      48.547   7.605  14.228  0.00  0.00    +0.000 N 
ATOM      9  N   UNL     1      49.183   6.267  16.016  0.00  0.00    +0.000 NA
ATOM     10  C   UNL     1      48.977   5.201  16.833  0.00  0.00    +0.000 A 
ATOM     11  H   UNL     1      49.398   8.014  14.614  0.00  0.00    +0.000 HD
BRANCH   4  13
ATOM     12  N   UNL     1      48.873   2.907  18.451  0.00  0.00    +0.000 N 
ATOM     13  C   UNL     1      47.818   3.170  17.623  0.00  0.00    +0.000 C 
ATOM     14  O   UNL     1      46.774   2.539  17.712  0.00  0.00    +0.000 OA
ATOM     15  H   UNL     1      48.719   2.212  19.170  0.00  0.00    +0.000 HD
ATOM     16  H   UNL     1      49.646   3.545  18.575  0.00  0.00    +0.000 HD
ENDBRANCH   4  13
ENDBRANCH   1   8
BRANCH   1  17
ATOM     17  C   UNL     1      46.980   7.509  12.287  0.00  0.00    +0.000 A 
ATOM     18  C   UNL     1      46.044   8.555  12.314  0.00  0.00    +0.000 A 
ATOM     19  C   UNL     1      44.783   8.415  11.737  0.00  0.00    +0.000 A 
ATOM     20  C   UNL     1      44.440   7.227  11.095  0.00  0.00    +0.000 A 
ATOM     21  C   UNL     1      45.338   6.150  11.034  0.00  0.00    +0.000 A 
ATOM     22  C   UNL     1      46.583   6.304  11.673  0.00  0.00    +0.000 A 
BRANCH  21  23
ATOM     23  C   UNL     1      45.039   4.940  10.239  0.00  0.00    +0.000 A 
ATOM     24  C   UNL     1      44.272   3.882  10.731  0.00  0.00    +0.000 A 
ATOM     25  N   UNL     1      44.021   2.725  10.064  0.00  0.00    +0.000 NA
ATOM     26  C   UNL     1      44.561   2.614   8.827  0.00  0.00    +0.000 A 
ATOM     27  C   UNL     1      45.326   3.602   8.242  0.00  0.00    +0.000 A 
ATOM     28  F   UNL     1      45.838   3.436   7.016  0.00  0.00    +0.000 F 
ATOM     29  C   UNL     1      45.568   4.771   8.946  0.00  0.00    +0.000 A 
ENDBRANCH  21  23
ENDBRANCH   1  17
TORSDOF 4
ENDMDL
MODEL 5
REMARK VINA RESULT:    -7.237      4.201      7.461
REMARK INTER + INTRA:          -9.385
REMARK INTER:                  -8.406
REMARK INTRA:                  -0.979
REMARK UNBOUND:                -0.455
REMARK  Name = 
REMARK  4 active torsions:
REMARK  status: ('A' for Active; 'I' for Inactive)
REMARK    1  A    between atoms: C_2  and  C_4
REMARK    2  A    between atoms: N_8  and  C_9
REMARK    3  A    between atoms: C_9  and  C_10
REMARK    4  A    between atoms: C_14  and  C_15
REMARK                            x       y       z     vdW  Elec       q    Type
REMARK                         _______ _______ _______ _____ _____    ______ ____
ROOT
ATOM      1  C   UNL     1      46.111   5.001  13.305  0.00  0.00    +0.000 C 
ATOM      2  C   UNL     1      46.001   4.080  14.515  0.00  0.00    +0.000 C 
ATOM      3  C   UNL     1      47.209   4.011  13.641  0.00  0.00    +0.000 C 
ENDROOT
BRANCH   1   8
ATOM      4  C   UNL     1      48.355   9.404  11.678  0.00  0.00    +0.000 A 
ATOM      5  C   UNL     1      48.920   8.136  11.775  0.00  0.00    +0.000 A 
ATOM      6  C   UNL     1      48.198   7.109  12.389  0.00  0.00    +0.000 A 
ATOM      7  C   UNL     1      46.932   7.372  12.901  0.00  0.00    +0.000 A 
ATOM      8  N   UNL     1      46.196   6.436  13.637  0.00  0.00    +0.000 N 
ATOM      9  N   UNL     1      46.370   8.596  12.804  0.00  0.00    +0.000 NA
ATOM     10  C   UNL     1      47.086   9.583  12.205  0.00  0.00    +0.000 A 
ATOM     11  H   UNL     1      45.300   6.891  13.811  0.00  0.00    +0.000 HD
BRANCH   4  13
ATOM     12  N   UNL     1      48.301  11.516  10.471  0.00  0.00    +0.000 N 
ATOM     13  C   UNL     1      49.060  10.567  11.096  0.00  0.00    +0.000 C 
ATOM     14  O   UNL     1      50.274  10.689  11.187  0.00  0.00    +0.000 OA
ATOM     15  H   UNL     1      48.789  12.341  10.146  0.00  0.00    +0.000 HD
ATOM     16  H   UNL     1      47.299  11.579  10.581  0.00  0.00    +0.000 HD
ENDBRANCH   4  13
ENDBRANCH   1   8
BRANCH   1  17
ATOM     17  C   UNL     1      45.222   4.731  12.095  0.00  0.00    +0.000 A 
ATOM     18  C   UNL     1      44.010   5.412  11.903  0.00  0.00    +0.000 A 
ATOM     19  C   UNL     1      43.280   5.277  10.724  0.00  0.00    +0.000 A 
ATOM     20  C   UNL     1      43.764   4.470   9.695  0.00  0.00    +0.000 A 
ATOM     21  C   UNL     1      44.973   3.769   9.831  0.00  0.00    +0.000 A 
ATOM     22  C   UNL     1      45.659   3.885  11.055  0.00  0.00    +0.000 A 
BRANCH  21  23
ATOM     23  C   UNL     1      45.564   3.025   8.699  0.00  0.00    +0.000 A 
ATOM     24  C   UNL     1      45.870   1.663   8.766  0.00  0.00    +0.000 A 
ATOM     25  N   UNL     1      46.469   0.950   7.778  0.00  0.00    +0.000 NA
ATOM     26  C   UNL     1      46.778   1.628   6.647  0.00  0.00    +0.000 A 
ATOM     27  C   UNL     1      46.512   2.971   6.472  0.00  0.00    +0.000 A 
ATOM     28  F   UNL     1      46.843   3.592   5.332  0.00  0.00    +0.000 F 
ATOM     29  C   UNL     1      45.901   3.675   7.498  0.00  0.00    +0.000 A 
ENDBRANCH  21  23
ENDBRANCH   1  17
TORSDOF 4
ENDMDL
MODEL 6
REMARK VINA RESULT:    -7.175      2.815      4.549
REMARK INTER + INTRA:          -9.308
REMARK INTER:                  -8.874
REMARK INTRA:                  -0.434
REMARK UNBOUND:                -0.455
REMARK  Name = 
REMARK  4 active torsions:
REMARK  status: ('A' for Active; 'I' for Inactive)
REMARK    1  A    between atoms: C_2  and  C_4
REMARK    2  A    between atoms: N_8  and  C_9
REMARK    3  A    between atoms: C_9  and  C_10
REMARK    4  A    between atoms: C_14  and  C_15
REMARK                            x       y       z     vdW  Elec       q    Type
REMARK                         _______ _______ _______ _____ _____    ______ ____
ROOT
ATOM      1  C   UNL     1      47.311   8.428  13.129  0.00  0.00    +0.000 C 
ATOM      2  C   UNL     1      47.437   9.752  12.383  0.00  0.00    +0.000 C 
ATOM      3  C   UNL     1      48.123   8.536  11.854  0.00  0.00    +0.000 C 
ENDROOT
BRANCH   1   8
ATOM      4  C   UNL     1      44.579   4.278  11.583  0.00  0.00    +0.000 A 
ATOM      5  C   UNL     1      45.549   4.983  10.874  0.00  0.00    +0.000 A 
ATOM      6  C   UNL     1      46.056   6.172  11.405  0.00  0.00    +0.000 A 
ATOM      7  C   UNL     1      45.579   6.638  12.625  0.00  0.00    +0.000 A 
ATOM      8  N   UNL     1      45.943   7.877  13.166  0.00  0.00    +0.000 N 
ATOM      9  N   UNL     1      44.646   5.958  13.325  0.00  0.00    +0.000 NA
ATOM     10  C   UNL     1      44.163   4.804  12.795  0.00  0.00    +0.000 A 
ATOM     11  H   UNL     1      45.493   7.901  14.081  0.00  0.00    +0.000 HD
BRANCH   4  13
ATOM     12  N   UNL     1      44.571   2.377  10.066  0.00  0.00    +0.000 N 
ATOM     13  C   UNL     1      43.942   3.042  11.080  0.00  0.00    +0.000 C 
ATOM     14  O   UNL     1      42.902   2.617  11.564  0.00  0.00    +0.000 OA
ATOM     15  H   UNL     1      44.164   1.493   9.785  0.00  0.00    +0.000 HD
ATOM     16  H   UNL     1      45.532   2.552   9.806  0.00  0.00    +0.000 HD
ENDBRANCH   4  13
ENDBRANCH   1   8
BRANCH   1  17
ATOM     17  C   UNL     1      48.045   8.263  14.457  0.00  0.00    +0.000 A 
ATOM     18  C   UNL     1      48.275   9.351  15.313  0.00  0.00    +0.000 A 
ATOM     19  C   UNL     1      48.805   9.170  16.590  0.00  0.00    +0.000 A 
ATOM     20  C   UNL     1      49.093   7.886  17.048  0.00  0.00    +0.000 A 
ATOM     21  C   UNL     1      48.877   6.761  16.236  0.00  0.00    +0.000 A 
ATOM     22  C   UNL     1      48.392   6.982  14.933  0.00  0.00    +0.000 A 
BRANCH  21  23
ATOM     23  C   UNL     1      49.046   5.389  16.759  0.00  0.00    +0.000 A 
ATOM     24  C   UNL     1      50.299   4.827  17.017  0.00  0.00    +0.000 A 
ATOM     25  N   UNL     1      50.509   3.552  17.438  0.00  0.00    +0.000 NA
ATOM     26  C   UNL     1      49.406   2.789  17.621  0.00  0.00    +0.000 A 
ATOM     27  C   UNL     1      48.122   3.246  17.404  0.00  0.00    +0.000 A 
ATOM     28  F   UNL     1      47.067   2.445  17.598  0.00  0.00    +0.000 F 
ATOM     29  C   UNL     1      47.936   4.551  16.973  0.00  0.00    +0.000 A 
ENDBRANCH  21  23
ENDBRANCH   1  17
TORSDOF 4
ENDMDL
MODEL 7
REMARK VINA RESULT:    -6.836      3.064      3.786
REMARK INTER + INTRA:          -8.890
REMARK INTER:                  -8.880
REMARK INTRA:                  -0.010
REMARK UNBOUND:                -0.455
REMARK  Name = 
REMARK  4 active torsions:
REMARK  status: ('A' for Active; 'I' for Inactive)
REMARK    1  A    between atoms: C_2  and  C_4
REMARK    2  A    between atoms: N_8  and  C_9
REMARK    3  A    between atoms: C_9  and  C_10
REMARK    4  A    between atoms: C_14  and  C_15
REMARK                            x       y       z     vdW  Elec       q    Type
REMARK                         _______ _______ _______ _____ _____    ______ ____
ROOT
ATOM      1  C   UNL     1      43.947   4.654  11.816  0.00  0.00    +0.000 C 
ATOM      2  C   UNL     1      44.777   3.947  12.881  0.00  0.00    +0.000 C 
ATOM      3  C   UNL     1      43.349   4.280  13.157  0.00  0.00    +0.000 C 
ENDROOT
BRANCH   1   8
ATOM      4  C   UNL     1      46.370   3.209   7.444  0.00  0.00    +0.000 A 
ATOM      5  C   UNL     1      46.375   4.458   8.057  0.00  0.00    +0.000 A 
ATOM      6  C   UNL     1      45.528   4.691   9.144  0.00  0.00    +0.000 A 
ATOM      7  C   UNL     1      44.689   3.677   9.590  0.00  0.00    +0.000 A 
ATOM      8  N   UNL     1      43.727   3.864  10.590  0.00  0.00    +0.000 N 
ATOM      9  N   UNL     1      44.683   2.457   9.010  0.00  0.00    +0.000 NA
ATOM     10  C   UNL     1      45.512   2.248   7.954  0.00  0.00    +0.000 A 
ATOM     11  H   UNL     1      43.328   2.937  10.741  0.00  0.00    +0.000 HD
BRANCH   4  13
ATOM     12  N   UNL     1      48.494   2.540   6.463  0.00  0.00    +0.000 N 
ATOM     13  C   UNL     1      47.188   2.883   6.255  0.00  0.00    +0.000 C 
ATOM     14  O   UNL     1      46.712   2.898   5.129  0.00  0.00    +0.000 OA
ATOM     15  H   UNL     1      49.018   2.246   5.649  0.00  0.00    +0.000 HD
ATOM     16  H   UNL     1      48.857   2.284   7.371  0.00  0.00    +0.000 HD
ENDBRANCH   4  13
ENDBRANCH   1   8
BRANCH   1  17
ATOM     17  C   UNL     1      44.232   6.124  11.522  0.00  0.00    +0.000 A 
ATOM     18  C   UNL     1      43.205   7.025  11.201  0.00  0.00    +0.000 A 
ATOM     19  C   UNL     1      43.448   8.393  11.087  0.00  0.00    +0.000 A 
ATOM     20  C   UNL     1      44.728   8.893  11.318  0.00  0.00    +0.000 A 
ATOM     21  C   UNL     1      45.792   8.038  11.648  0.00  0.00    +0.000 A 
ATOM     22  C   UNL     1      45.525   6.657  11.702  0.00  0.00    +0.000 A 
BRANCH  21  23
ATOM     23  C   UNL     1      47.117   8.569  12.030  0.00  0.00    +0.000 A 
ATOM     24  C   UNL     1      47.297   9.852  12.553  0.00  0.00    +0.000 A 
ATOM     25  N   UNL     1      48.498  10.407  12.861  0.00  0.00    +0.000 NA
ATOM     26  C   UNL     1      49.591   9.637  12.644  0.00  0.00    +0.000 A 
ATOM     27  C   UNL     1      49.527   8.353  12.140  0.00  0.00    +0.000 A 
ATOM     28  F   UNL     1      50.642   7.639  11.942  0.00  0.00    +0.000 F 
ATOM     29  C   UNL     1      48.288   7.813  11.832  0.00  0.00    +0.000 A 
ENDBRANCH  21  23
ENDBRANCH   1  17
TORSDOF 4
ENDMDL
MODEL 8
REMARK VINA RESULT:    -6.562      4.038      8.293
REMARK INTER + INTRA:          -8.551
REMARK INTER:                  -8.426
REMARK INTRA:                  -0.125
REMARK UNBOUND:                -0.455
REMARK  Name = 
REMARK  4 active torsions:
REMARK  status: ('A' for Active; 'I' for Inactive)
REMARK    1  A    between atoms: C_2  and  C_4
REMARK    2  A    between atoms: N_8  and  C_9
REMARK    3  A    between atoms: C_9  and  C_10
REMARK    4  A    between atoms: C_14  and  C_15
REMARK                            x       y       z     vdW  Elec       q    Type
REMARK                         _______ _______ _______ _____ _____    ______ ____
ROOT
ATOM      1  C   UNL     1      46.203   7.574  12.443  0.00  0.00    +0.000 C 
ATOM      2  C   UNL     1      46.404   8.866  11.658  0.00  0.00    +0.000 C 
ATOM      3  C   UNL     1      45.656   8.893  12.949  0.00  0.00    +0.000 C 
ENDROOT
BRANCH   1   8
ATOM      4  C   UNL     1      49.250   7.554  16.661  0.00  0.00    +0.000 A 
ATOM      5  C   UNL     1      48.628   8.641  16.054  0.00  0.00    +0.000 A 
ATOM      6  C   UNL     1      47.978   8.464  14.830  0.00  0.00    +0.000 A 
ATOM      7  C   UNL     1      47.969   7.208  14.233  0.00  0.00    +0.000 A 
ATOM      8  N   UNL     1      47.449   6.972  12.955  0.00  0.00    +0.000 N 
ATOM      9  N   UNL     1      48.561   6.144  14.817  0.00  0.00    +0.000 NA
ATOM     10  C   UNL     1      49.190   6.334  16.006  0.00  0.00    +0.000 A 
ATOM     11  H   UNL     1      47.523   5.963  12.828  0.00  0.00    +0.000 HD
BRANCH   4  13
ATOM     12  N   UNL     1      50.806   8.750  18.099  0.00  0.00    +0.000 N 
ATOM     13  C   UNL     1      50.010   7.652  17.926  0.00  0.00    +0.000 C 
ATOM     14  O   UNL     1      49.918   6.797  18.795  0.00  0.00    +0.000 OA
ATOM     15  H   UNL     1      51.258   8.841  18.999  0.00  0.00    +0.000 HD
ATOM     16  H   UNL     1      50.728   9.581  17.528  0.00  0.00    +0.000 HD
ENDBRANCH   4  13
ENDBRANCH   1   8
BRANCH   1  17
ATOM     17  C   UNL     1      45.229   6.532  11.902  0.00  0.00    +0.000 A 
ATOM     18  C   UNL     1      43.847   6.628  12.126  0.00  0.00    +0.000 A 
ATOM     19  C   UNL     1      42.948   5.764  11.502  0.00  0.00    +0.000 A 
ATOM     20  C   UNL     1      43.417   4.797  10.614  0.00  0.00    +0.000 A 
ATOM     21  C   UNL     1      44.788   4.660  10.347  0.00  0.00    +0.000 A 
ATOM     22  C   UNL     1      45.673   5.512  11.035  0.00  0.00    +0.000 A 
BRANCH  21  23
ATOM     23  C   UNL     1      45.283   3.735   9.307  0.00  0.00    +0.000 A 
ATOM     24  C   UNL     1      45.310   2.349   9.477  0.00  0.00    +0.000 A 
ATOM     25  N   UNL     1      45.812   1.463   8.577  0.00  0.00    +0.000 NA
ATOM     26  C   UNL     1      46.312   1.985   7.432  0.00  0.00    +0.000 A 
ATOM     27  C   UNL     1      46.326   3.337   7.158  0.00  0.00    +0.000 A 
ATOM     28  F   UNL     1      46.837   3.798   6.009  0.00  0.00    +0.000 F 
ATOM     29  C   UNL     1      45.810   4.219   8.095  0.00  0.00    +0.000 A 
ENDBRANCH  21  23
ENDBRANCH   1  17
TORSDOF 4
ENDMDL
