MODEL 1
REMARK VINA RESULT:    -7.028      0.000      0.000
REMARK INTER + INTRA:          -8.099
REMARK INTER:                  -8.056
REMARK INTRA:                  -0.043
REMARK UNBOUND:                -0.043
REMARK  Name = 
REMARK  4 active torsions:
REMARK  status: ('A' for Active; 'I' for Inactive)
REMARK    1  A    between atoms: C_1  and  N_2
REMARK    2  A    between atoms: C_6  and  C_7
REMARK    3  A    between atoms: C_7  and  C_8
REMARK    4  A    between atoms: C_11  and  O_12
REMARK                            x       y       z     vdW  Elec       q    Type
REMARK                         _______ _______ _______ _____ _____    ______ ____
ROOT
ATOM      1  C   UNL     1      44.474   4.632  11.070  0.00  0.00    +0.000 C 
ATOM      2  C   UNL     1      43.124   4.202  11.653  0.00  0.00    +0.000 C 
ATOM      3  C   UNL     1      43.221   5.503  10.928  0.00  0.00    +0.000 C 
ENDROOT
BRANCH   1   9
ATOM      4  C   UNL     1      48.040   2.276   6.304  0.00  0.00    +0.000 C 
ATOM      5  N   UNL     1      46.773   1.766   6.792  0.00  0.00    +0.000 N 
ATOM      6  C   UNL     1      46.138   2.509   7.784  0.00  0.00    +0.000 A 
ATOM      7  C   UNL     1      46.046   3.889   7.800  0.00  0.00    +0.000 A 
ATOM      8  N   UNL     1      45.483   4.614   8.799  0.00  0.00    +0.000 NA
ATOM      9  C   UNL     1      44.954   3.901   9.816  0.00  0.00    +0.000 A 
ATOM     10  N   UNL     1      44.952   2.546   9.815  0.00  0.00    +0.000 NA
ATOM     11  N   UNL     1      45.551   1.846   8.789  0.00  0.00    +0.000 NA
ATOM     12  H   UNL     1      46.807   0.801   7.119  0.00  0.00    +0.000 HD
ENDBRANCH   1   9
BRANCH   1  13
ATOM     13  C   UNL     1      45.541   5.117  12.041  0.00  0.00    +0.000 A 
ATOM     14  C   UNL     1      45.802   4.454  13.249  0.00  0.00    +0.000 A 
ATOM     15  C   UNL     1      46.856   4.857  14.070  0.00  0.00    +0.000 A 
ATOM     16  C   UNL     1      47.623   5.932  13.660  0.00  0.00    +0.000 A 
ATOM     17  N   UNL     1      47.393   6.632  12.540  0.00  0.00    +0.000 NA
ATOM     18  C   UNL     1      46.360   6.217  11.767  0.00  0.00    +0.000 A 
BRANCH  16  19
ATOM     19  O   UNL     1      48.701   6.346  14.384  0.00  0.00    +0.000 OA
ATOM     20  H   UNL     1      49.188   6.991  13.852  0.00  0.00    +0.000 HD
ENDBRANCH  16  19
ENDBRANCH   1  13
TORSDOF 3
ENDMDL
MODEL 2
REMARK VINA RESULT:    -6.946      2.919      5.917
REMARK INTER + INTRA:          -8.004
REMARK INTER:                  -8.157
REMARK INTRA:                   0.153
REMARK UNBOUND:                -0.043
REMARK  Name = 
REMARK  4 active torsions:
REMARK  status: ('A' for Active; 'I' for Inactive)
REMARK    1  A    between atoms: C_1  and  N_2
REMARK    2  A    between atoms: C_6  and  C_7
REMARK    3  A    between atoms: C_7  and  C_8
REMARK    4  A    between atoms: C_11  and  O_12
REMARK                            x       y       z     vdW  Elec       q    Type
REMARK                         _______ _______ _______ _____ _____    ______ ____
ROOT
ATOM      1  C   UNL     1      44.636   3.796  11.555  0.00  0.00    +0.000 C 
ATOM      2  C   UNL     1      43.232   4.386  11.723  0.00  0.00    +0.000 C 
ATOM      3  C   UNL     1      43.418   2.908  11.831  0.00  0.00    +0.000 C 
ENDROOT
BRANCH   1   9
ATOM      4  C   UNL     1      47.245   4.691  17.332  0.00  0.00    +0.000 C 
ATOM      5  N   UNL     1      47.882   4.137  16.154  0.00  0.00    +0.000 N 
ATOM      6  C   UNL     1      47.133   4.129  14.980  0.00  0.00    +0.000 A 
ATOM      7  C   UNL     1      46.331   5.169  14.548  0.00  0.00    +0.000 A 
ATOM      8  N   UNL     1      45.552   5.136  13.438  0.00  0.00    +0.000 NA
ATOM      9  C   UNL     1      45.618   4.000  12.708  0.00  0.00    +0.000 A 
ATOM     10  N   UNL     1      46.442   2.979  13.048  0.00  0.00    +0.000 NA
ATOM     11  N   UNL     1      47.205   3.046  14.195  0.00  0.00    +0.000 NA
ATOM     12  H   UNL     1      48.249   3.194  16.279  0.00  0.00    +0.000 HD
ENDBRANCH   1   9
BRANCH   1  13
ATOM     13  C   UNL     1      45.219   3.748  10.149  0.00  0.00    +0.000 A 
ATOM     14  C   UNL     1      45.314   2.551   9.426  0.00  0.00    +0.000 A 
ATOM     15  C   UNL     1      45.754   2.551   8.102  0.00  0.00    +0.000 A 
ATOM     16  C   UNL     1      46.100   3.763   7.534  0.00  0.00    +0.000 A 
ATOM     17  N   UNL     1      46.072   4.932   8.190  0.00  0.00    +0.000 NA
ATOM     18  C   UNL     1      45.644   4.897   9.474  0.00  0.00    +0.000 A 
BRANCH  16  19
ATOM     19  O   UNL     1      46.485   3.846   6.229  0.00  0.00    +0.000 OA
ATOM     20  H   UNL     1      46.009   4.584   5.823  0.00  0.00    +0.000 HD
ENDBRANCH  16  19
ENDBRANCH   1  13
TORSDOF 3
ENDMDL
MODEL 3
REMARK VINA RESULT:    -6.442      2.671      5.800
REMARK INTER + INTRA:          -7.427
REMARK INTER:                  -7.633
REMARK INTRA:                   0.206
REMARK UNBOUND:                -0.043
REMARK  Name = 
REMARK  4 active torsions:
REMARK  status: ('A' for Active; 'I' for Inactive)
REMARK    1  A    between atoms: C_1  and  N_2
REMARK    2  A    between atoms: C_6  and  C_7
REMARK    3  A    between atoms: C_7  and  C_8
REMARK    4  A    between atoms: C_11  and  O_12
REMARK                            x       y       z     vdW  Elec       q    Type
REMARK                         _______ _______ _______ _____ _____    ______ ____
ROOT
ATOM      1  C   UNL     1      44.386   4.282  11.348  0.00  0.00    +0.000 C 
ATOM      2  C   UNL     1      42.877   4.540  11.378  0.00  0.00    +0.000 C 
ATOM      3  C   UNL     1      43.412   3.288  11.989  0.00  0.00    +0.000 C 
ENDROOT
BRANCH   1   9
ATOM      4  C   UNL     1      49.283   7.291  14.168  0.00  0.00    +0.000 C 
ATOM      5  N   UNL     1      47.869   7.583  14.310  0.00  0.00    +0.000 N 
ATOM      6  C   UNL     1      46.983   6.724  13.665  0.00  0.00    +0.000 A 
ATOM      7  C   UNL     1      47.105   5.347  13.626  0.00  0.00    +0.000 A 
ATOM      8  N   UNL     1      46.277   4.517  12.944  0.00  0.00    +0.000 NA
ATOM      9  C   UNL     1      45.252   5.112  12.296  0.00  0.00    +0.000 A 
ATOM     10  N   UNL     1      45.045   6.450  12.360  0.00  0.00    +0.000 NA
ATOM     11  N   UNL     1      45.921   7.261  13.050  0.00  0.00    +0.000 NA
ATOM     12  H   UNL     1      47.608   8.532  14.046  0.00  0.00    +0.000 HD
ENDBRANCH   1   9
BRANCH   1  13
ATOM     13  C   UNL     1      45.008   3.876  10.019  0.00  0.00    +0.000 A 
ATOM     14  C   UNL     1      45.081   2.536   9.612  0.00  0.00    +0.000 A 
ATOM     15  C   UNL     1      45.559   2.201   8.345  0.00  0.00    +0.000 A 
ATOM     16  C   UNL     1      45.966   3.227   7.513  0.00  0.00    +0.000 A 
ATOM     17  N   UNL     1      45.961   4.521   7.864  0.00  0.00    +0.000 NA
ATOM     18  C   UNL     1      45.495   4.812   9.101  0.00  0.00    +0.000 A 
BRANCH  16  19
ATOM     19  O   UNL     1      46.392   2.979   6.243  0.00  0.00    +0.000 OA
ATOM     20  H   UNL     1      46.992   2.221   6.272  0.00  0.00    +0.000 HD
ENDBRANCH  16  19
ENDBRANCH   1  13
TORSDOF 3
ENDMDL
MODEL 4
REMARK VINA RESULT:    -5.949      1.767      2.628
REMARK INTER + INTRA:          -6.862
REMARK INTER:                  -6.901
REMARK INTRA:                   0.039
REMARK UNBOUND:                -0.043
REMARK  Name = 
REMARK  4 active torsions:
REMARK  status: ('A' for Active; 'I' for Inactive)
REMARK    1  A    between atoms: C_1  and  N_2
REMARK    2  A    between atoms: C_6  and  C_7
REMARK    3  A    between atoms: C_7  and  C_8
REMARK    4  A    between atoms: C_11  and  O_12
REMARK                            x       y       z     vdW  Elec       q    Type
REMARK                         _______ _______ _______ _____ _____    ______ ____
ROOT
ATOM      1  C   UNL     1      45.642   6.511  11.788  0.00  0.00    +0.000 C 
ATOM      2  C   UNL     1      44.536   6.998  12.729  0.00  0.00    +0.000 C 
ATOM      3  C   UNL     1      44.811   7.761  11.475  0.00  0.00    +0.000 C 
ENDROOT
BRANCH   1   9
ATOM      4  C   UNL     1      46.175   1.317   8.084  0.00  0.00    +0.000 C 
ATOM      5  N   UNL     1      45.099   1.639   9.001  0.00  0.00    +0.000 N 
ATOM      6  C   UNL     1      45.161   2.880   9.631  0.00  0.00    +0.000 A 
ATOM      7  C   UNL     1      45.526   4.062   9.013  0.00  0.00    +0.000 A 
ATOM      8  N   UNL     1      45.648   5.257   9.642  0.00  0.00    +0.000 NA
ATOM      9  C   UNL     1      45.349   5.261  10.959  0.00  0.00    +0.000 A 
ATOM     10  N   UNL     1      44.916   4.146  11.598  0.00  0.00    +0.000 NA
ATOM     11  N   UNL     1      44.823   2.946  10.926  0.00  0.00    +0.000 NA
ATOM     12  H   UNL     1      44.945   0.943   9.730  0.00  0.00    +0.000 HD
ENDBRANCH   1   9
BRANCH   1  13
ATOM     13  C   UNL     1      47.085   6.736  12.217  0.00  0.00    +0.000 A 
ATOM     14  C   UNL     1      47.987   7.471  11.436  0.00  0.00    +0.000 A 
ATOM     15  C   UNL     1      49.272   7.751  11.903  0.00  0.00    +0.000 A 
ATOM     16  C   UNL     1      49.627   7.271  13.150  0.00  0.00    +0.000 A 
ATOM     17  N   UNL     1      48.824   6.524  13.921  0.00  0.00    +0.000 NA
ATOM     18  C   UNL     1      47.585   6.269  13.437  0.00  0.00    +0.000 A 
BRANCH  16  19
ATOM     19  O   UNL     1      50.845   7.551  13.693  0.00  0.00    +0.000 OA
ATOM     20  H   UNL     1      51.519   7.381  13.019  0.00  0.00    +0.000 HD
ENDBRANCH  16  19
ENDBRANCH   1  13
TORSDOF 3
ENDMDL
MODEL 5
REMARK VINA RESULT:    -5.879      3.740      7.310
REMARK INTER + INTRA:          -6.781
REMARK INTER:                  -7.234
REMARK INTRA:                   0.452
REMARK UNBOUND:                -0.043
REMARK  Name = 
REMARK  4 active torsions:
REMARK  status: ('A' for Active; 'I' for Inactive)
REMARK    1  A    between atoms: C_1  and  N_2
REMARK    2  A    between atoms: C_6  and  C_7
REMARK    3  A    between atoms: C_7  and  C_8
REMARK    4  A    between atoms: C_11  and  O_12
REMARK                            x       y       z     vdW  Elec       q    Type
REMARK                         _______ _______ _______ _____ _____    ______ ____
ROOT
ATOM      1  C   UNL     1      47.007   5.501  13.852  0.00  0.00    +0.000 C 
ATOM      2  C   UNL     1      48.099   6.013  12.908  0.00  0.00    +0.000 C 
ATOM      3  C   UNL     1      47.225   6.999  13.611  0.00  0.00    +0.000 C 
ENDROOT
BRANCH   1   9
ATOM      4  C   UNL     1      48.618   4.850  20.013  0.00  0.00    +0.000 C 
ATOM      5  N   UNL     1      48.198   3.807  19.097  0.00  0.00    +0.000 N 
ATOM      6  C   UNL     1      47.989   4.183  17.772  0.00  0.00    +0.000 A 
ATOM      7  C   UNL     1      48.805   5.039  17.056  0.00  0.00    +0.000 A 
ATOM      8  N   UNL     1      48.566   5.454  15.787  0.00  0.00    +0.000 NA
ATOM      9  C   UNL     1      47.460   4.945  15.202  0.00  0.00    +0.000 A 
ATOM     10  N   UNL     1      46.665   4.046  15.833  0.00  0.00    +0.000 NA
ATOM     11  N   UNL     1      46.934   3.664  17.130  0.00  0.00    +0.000 NA
ATOM     12  H   UNL     1      47.369   3.295  19.395  0.00  0.00    +0.000 HD
ENDBRANCH   1   9
BRANCH   1  13
ATOM     13  C   UNL     1      45.767   4.878  13.226  0.00  0.00    +0.000 A 
ATOM     14  C   UNL     1      44.530   5.537  13.214  0.00  0.00    +0.000 A 
ATOM     15  C   UNL     1      43.436   4.989  12.542  0.00  0.00    +0.000 A 
ATOM     16  C   UNL     1      43.610   3.777  11.901  0.00  0.00    +0.000 A 
ATOM     17  N   UNL     1      44.755   3.079  11.917  0.00  0.00    +0.000 NA
ATOM     18  C   UNL     1      45.796   3.637  12.581  0.00  0.00    +0.000 A 
BRANCH  16  19
ATOM     19  O   UNL     1      42.603   3.209  11.180  0.00  0.00    +0.000 OA
ATOM     20  H   UNL     1      42.290   2.432  11.663  0.00  0.00    +0.000 HD
ENDBRANCH  16  19
ENDBRANCH   1  13
TORSDOF 3
ENDMDL
MODEL 6
REMARK VINA RESULT:    -5.854      3.774      6.718
REMARK INTER + INTRA:          -6.752
REMARK INTER:                  -7.154
REMARK INTRA:                   0.402
REMARK UNBOUND:                -0.043
REMARK  Name = 
REMARK  4 active torsions:
REMARK  status: ('A' for Active; 'I' for Inactive)
REMARK    1  A    between atoms: C_1  and  N_2
REMARK    2  A    between atoms: C_6  and  C_7
REMARK    3  A    between atoms: C_7  and  C_8
REMARK    4  A    between atoms: C_11  and  O_12
REMARK                            x       y       z     vdW  Elec       q    Type
REMARK                         _______ _______ _______ _____ _____    ______ ____
ROOT
ATOM      1  C   UNL     1      46.449   5.829  13.079  0.00  0.00    +0.000 C 
ATOM      2  C   UNL     1      47.244   6.635  12.047  0.00  0.00    +0.000 C 
ATOM      3  C   UNL     1      46.166   7.314  12.825  0.00  0.00    +0.000 C 
ENDROOT
BRANCH   1   9
ATOM      4  C   UNL     1      49.812   2.857  17.643  0.00  0.00    +0.000 C 
ATOM      5  N   UNL     1      49.562   4.280  17.518  0.00  0.00    +0.000 N 
ATOM      6  C   UNL     1      48.718   4.680  16.485  0.00  0.00    +0.000 A 
ATOM      7  C   UNL     1      47.548   4.037  16.127  0.00  0.00    +0.000 A 
ATOM      8  N   UNL     1      46.760   4.389  15.081  0.00  0.00    +0.000 NA
ATOM      9  C   UNL     1      47.162   5.474  14.383  0.00  0.00    +0.000 A 
ATOM     10  N   UNL     1      48.262   6.184  14.735  0.00  0.00    +0.000 NA
ATOM     11  N   UNL     1      49.046   5.781  15.795  0.00  0.00    +0.000 NA
ATOM     12  H   UNL     1      50.405   4.849  17.451  0.00  0.00    +0.000 HD
ENDBRANCH   1   9
BRANCH   1  13
ATOM     13  C   UNL     1      45.421   4.835  12.558  0.00  0.00    +0.000 A 
ATOM     14  C   UNL     1      45.565   4.198  11.318  0.00  0.00    +0.000 A 
ATOM     15  C   UNL     1      44.663   3.213  10.912  0.00  0.00    +0.000 A 
ATOM     16  C   UNL     1      43.623   2.896  11.765  0.00  0.00    +0.000 A 
ATOM     17  N   UNL     1      43.408   3.502  12.942  0.00  0.00    +0.000 NA
ATOM     18  C   UNL     1      44.299   4.456  13.304  0.00  0.00    +0.000 A 
BRANCH  16  19
ATOM     19  O   UNL     1      42.737   1.907  11.459  0.00  0.00    +0.000 OA
ATOM     20  H   UNL     1      42.931   1.598  10.564  0.00  0.00    +0.000 HD
ENDBRANCH  16  19
ENDBRANCH   1  13
TORSDOF 3
ENDMDL
MODEL 7
REMARK VINA RESULT:    -5.708      3.132      6.275
REMARK INTER + INTRA:          -6.585
REMARK INTER:                  -7.248
REMARK INTRA:                   0.662
REMARK UNBOUND:                -0.043
REMARK  Name = 
REMARK  4 active torsions:
REMARK  status: ('A' for Active; 'I' for Inactive)
REMARK    1  A    between atoms: C_1  and  N_2
REMARK    2  A    between atoms: C_6  and  C_7
REMARK    3  A    between atoms: C_7  and  C_8
REMARK    4  A    between atoms: C_11  and  O_12
REMARK                            x       y       z     vdW  Elec       q    Type
REMARK                         _______ _______ _______ _____ _____    ______ ____
ROOT
ATOM      1  C   UNL     1      46.077   5.814  12.432  0.00  0.00    +0.000 C 
ATOM      2  C   UNL     1      46.569   7.223  12.085  0.00  0.00    +0.000 C 
ATOM      3  C   UNL     1      45.292   7.064  12.844  0.00  0.00    +0.000 C 
ENDROOT
BRANCH   1   9
ATOM      4  C   UNL     1      47.918   3.408  18.072  0.00  0.00    +0.000 C 
ATOM      5  N   UNL     1      48.242   2.905  16.751  0.00  0.00    +0.000 N 
ATOM      6  C   UNL     1      47.799   3.658  15.666  0.00  0.00    +0.000 A 
ATOM      7  C   UNL     1      47.848   5.038  15.591  0.00  0.00    +0.000 A 
ATOM      8  N   UNL     1      47.358   5.774  14.562  0.00  0.00    +0.000 NA
ATOM      9  C   UNL     1      46.823   5.071  13.539  0.00  0.00    +0.000 A 
ATOM     10  N   UNL     1      46.816   3.715  13.530  0.00  0.00    +0.000 NA
ATOM     11  N   UNL     1      47.308   3.005  14.605  0.00  0.00    +0.000 NA
ATOM     12  H   UNL     1      47.948   1.943  16.584  0.00  0.00    +0.000 HD
ENDBRANCH   1   9
BRANCH   1  13
ATOM     13  C   UNL     1      45.489   4.973  11.307  0.00  0.00    +0.000 A 
ATOM     14  C   UNL     1      45.732   5.265   9.958  0.00  0.00    +0.000 A 
ATOM     15  C   UNL     1      45.269   4.418   8.950  0.00  0.00    +0.000 A 
ATOM     16  C   UNL     1      44.558   3.294   9.325  0.00  0.00    +0.000 A 
ATOM     17  N   UNL     1      44.256   2.988  10.595  0.00  0.00    +0.000 NA
ATOM     18  C   UNL     1      44.717   3.832  11.548  0.00  0.00    +0.000 A 
BRANCH  16  19
ATOM     19  O   UNL     1      44.122   2.393   8.399  0.00  0.00    +0.000 OA
ATOM     20  H   UNL     1      44.514   1.535   8.610  0.00  0.00    +0.000 HD
ENDBRANCH  16  19
ENDBRANCH   1  13
TORSDOF 3
ENDMDL
MODEL 8
REMARK VINA RESULT:    -5.537      4.587      7.114
REMARK INTER + INTRA:          -6.390
REMARK INTER:                  -6.477
REMARK INTRA:                   0.087
REMARK UNBOUND:                -0.043
REMARK  Name = 
REMARK  4 active torsions:
REMARK  status: ('A' for Active; 'I' for Inactive)
REMARK    1  A    between atoms: C_1  and  N_2
REMARK    2  A    between atoms: C_6  and  C_7
REMARK    3  A    between atoms: C_7  and  C_8
REMARK    4  A    between atoms: C_11  and  O_12
REMARK                            x       y       z     vdW  Elec       q    Type
REMARK                         _______ _______ _______ _____ _____    ______ ____
ROOT
ATOM      1  C   UNL     1      48.300   3.636  16.968  0.00  0.00    +0.000 C 
ATOM      2  C   UNL     1      47.166   2.921  17.709  0.00  0.00    +0.000 C 
ATOM      3  C   UNL     1      47.590   4.279  18.164  0.00  0.00    +0.000 C 
ENDROOT
BRANCH   1   9
ATOM      4  C   UNL     1      45.289   5.938  11.809  0.00  0.00    +0.000 C 
ATOM      5  N   UNL     1      46.681   6.121  12.171  0.00  0.00    +0.000 N 
ATOM      6  C   UNL     1      47.130   5.440  13.301  0.00  0.00    +0.000 A 
ATOM      7  C   UNL     1      46.803   4.135  13.618  0.00  0.00    +0.000 A 
ATOM      8  N   UNL     1      47.188   3.494  14.749  0.00  0.00    +0.000 NA
ATOM      9  C   UNL     1      47.978   4.204  15.586  0.00  0.00    +0.000 A 
ATOM     10  N   UNL     1      48.387   5.461  15.289  0.00  0.00    +0.000 NA
ATOM     11  N   UNL     1      47.957   6.083  14.136  0.00  0.00    +0.000 NA
ATOM     12  H   UNL     1      46.962   7.095  12.280  0.00  0.00    +0.000 HD
ENDBRANCH   1   9
BRANCH   1  13
ATOM     13  C   UNL     1      49.720   3.138  17.199  0.00  0.00    +0.000 A 
ATOM     14  C   UNL     1      50.730   3.975  17.693  0.00  0.00    +0.000 A 
ATOM     15  C   UNL     1      51.994   3.466  17.995  0.00  0.00    +0.000 A 
ATOM     16  C   UNL     1      52.218   2.119  17.780  0.00  0.00    +0.000 A 
ATOM     17  N   UNL     1      51.306   1.280  17.267  0.00  0.00    +0.000 NA
ATOM     18  C   UNL     1      50.091   1.807  16.982  0.00  0.00    +0.000 A 
BRANCH  16  19
ATOM     19  O   UNL     1      53.410   1.542  18.103  0.00  0.00    +0.000 OA
ATOM     20  H   UNL     1      53.235   0.635  18.390  0.00  0.00    +0.000 HD
ENDBRANCH  16  19
ENDBRANCH   1  13
TORSDOF 3
ENDMDL
MODEL 9
REMARK VINA RESULT:    -5.227      2.889      6.021
REMARK INTER + INTRA:          -6.034
REMARK INTER:                  -6.164
REMARK INTRA:                   0.130
REMARK UNBOUND:                -0.043
REMARK  Name = 
REMARK  4 active torsions:
REMARK  status: ('A' for Active; 'I' for Inactive)
REMARK    1  A    between atoms: C_1  and  N_2
REMARK    2  A    between atoms: C_6  and  C_7
REMARK    3  A    between atoms: C_7  and  C_8
REMARK    4  A    between atoms: C_11  and  O_12
REMARK                            x       y       z     vdW  Elec       q    Type
REMARK                         _______ _______ _______ _____ _____    ______ ____
ROOT
ATOM      1  C   UNL     1      45.663   6.473  11.748  0.00  0.00    +0.000 C 
ATOM      2  C   UNL     1      44.922   7.770  11.405  0.00  0.00    +0.000 C 
ATOM      3  C   UNL     1      44.511   6.995  12.613  0.00  0.00    +0.000 C 
ENDROOT
BRANCH   1   9
ATOM      4  C   UNL     1      51.060   8.736  14.343  0.00  0.00    +0.000 C 
ATOM      5  N   UNL     1      50.603   7.360  14.319  0.00  0.00    +0.000 N 
ATOM      6  C   UNL     1      49.434   7.099  13.608  0.00  0.00    +0.000 A 
ATOM      7  C   UNL     1      49.119   7.646  12.378  0.00  0.00    +0.000 A 
ATOM      8  N   UNL     1      47.952   7.442  11.717  0.00  0.00    +0.000 NA
ATOM      9  C   UNL     1      47.074   6.610  12.319  0.00  0.00    +0.000 A 
ATOM     10  N   UNL     1      47.363   5.991  13.490  0.00  0.00    +0.000 NA
ATOM     11  N   UNL     1      48.553   6.240  14.139  0.00  0.00    +0.000 NA
ATOM     12  H   UNL     1      50.492   6.938  15.240  0.00  0.00    +0.000 HD
ENDBRANCH   1   9
BRANCH   1  13
ATOM     13  C   UNL     1      45.378   5.249  10.889  0.00  0.00    +0.000 A 
ATOM     14  C   UNL     1      44.861   4.065  11.433  0.00  0.00    +0.000 A 
ATOM     15  C   UNL     1      44.511   2.995  10.609  0.00  0.00    +0.000 A 
ATOM     16  C   UNL     1      44.701   3.137   9.247  0.00  0.00    +0.000 A 
ATOM     17  N   UNL     1      45.233   4.226   8.675  0.00  0.00    +0.000 NA
ATOM     18  C   UNL     1      45.565   5.245   9.503  0.00  0.00    +0.000 A 
BRANCH  16  19
ATOM     19  O   UNL     1      44.331   2.155   8.377  0.00  0.00    +0.000 OA
ATOM     20  H   UNL     1      43.942   2.576   7.598  0.00  0.00    +0.000 HD
ENDBRANCH  16  19
ENDBRANCH   1  13
TORSDOF 3
ENDMDL
