MODEL 1
REMARK VINA RESULT:    -8.373      0.000      0.000
REMARK INTER + INTRA:         -12.444
REMARK INTER:                 -11.310
REMARK INTRA:                  -1.134
REMARK UNBOUND:                -1.134
REMARK  Name = 
REMARK  7 active torsions:
REMARK  status: ('A' for Active; 'I' for Inactive)
REMARK    1  A    between atoms: C_1  and  C_2
REMARK    2  A    between atoms: C_2  and  N_3
REMARK    3  A    between atoms: C_2  and  C_16
REMARK    4  A    between atoms: C_4  and  C_6
REMARK    5  A    between atoms: C_19  and  C_20
REMARK    6  A    between atoms: C_20  and  N_21
REMARK    7  A    between atoms: C_22  and  C_24
REMARK                            x       y       z     vdW  Elec       q    Type
REMARK                         _______ _______ _______ _____ _____    ______ ____
ROOT
ATOM      1  C   UNL     1      47.225   5.798  13.733  0.00  0.00    +0.000 A 
ATOM      2  C   UNL     1      46.216   6.373  12.959  0.00  0.00    +0.000 A 
ATOM      3  C   UNL     1      45.299   5.550  12.304  0.00  0.00    +0.000 A 
ATOM      4  C   UNL     1      45.396   4.165  12.433  0.00  0.00    +0.000 A 
ATOM      5  C   UNL     1      46.402   3.677  13.259  0.00  0.00    +0.000 A 
ATOM      6  N   UNL     1      47.311   4.454  13.902  0.00  0.00    +0.000 NA
ENDROOT
BRANCH   1   8
ATOM      7  C   UNL     1      48.328   8.039  13.693  0.00  0.00    +0.000 C 
ATOM      8  C   UNL     1      48.307   6.667  14.380  0.00  0.00    +0.000 C 
BRANCH   8   9
ATOM      9  N   UNL     1      48.103   6.770  15.822  0.00  0.00    +0.000 N 
ATOM     10  C   UNL     1      48.915   6.140  16.737  0.00  0.00    +0.000 C 
ATOM     11  O   UNL     1      49.914   5.508  16.419  0.00  0.00    +0.000 OA
ATOM     12  H   UNL     1      47.144   6.956  16.105  0.00  0.00    +0.000 HD
BRANCH  10  13
ATOM     13  C   UNL     1      48.556   6.320  18.150  0.00  0.00    +0.000 A 
ATOM     14  C   UNL     1      48.642   5.243  19.023  0.00  0.00    +0.000 A 
ATOM     15  S   UNL     1      48.213   5.629  20.629  0.00  0.00    +0.000 S 
ATOM     16  C   UNL     1      47.853   7.238  20.205  0.00  0.00    +0.000 A 
ATOM     17  N   UNL     1      47.388   8.119  21.130  0.00  0.00    +0.000 NA
ATOM     18  C   UNL     1      47.122   9.292  20.660  0.00  0.00    +0.000 A 
ATOM     19  N   UNL     1      47.295   9.668  19.354  0.00  0.00    +0.000 N 
ATOM     20  C   UNL     1      47.812   8.827  18.400  0.00  0.00    +0.000 A 
ATOM     21  O   UNL     1      48.038   9.218  17.257  0.00  0.00    +0.000 OA
ATOM     22  C   UNL     1      48.090   7.485  18.864  0.00  0.00    +0.000 A 
ATOM     23  H   UNL     1      47.089  10.610  19.054  0.00  0.00    +0.000 HD
ENDBRANCH  10  13
ENDBRANCH   8   9
ENDBRANCH   1   8
BRANCH   4  24
ATOM     24  C   UNL     1      44.473   3.243  11.691  0.00  0.00    +0.000 C 
BRANCH  24  25
ATOM     25  N   UNL     1      45.027   2.779  10.443  0.00  0.00    +0.000 N 
ATOM     26  C   UNL     1      44.710   3.407   9.257  0.00  0.00    +0.000 C 
ATOM     27  O   UNL     1      43.976   4.392   9.201  0.00  0.00    +0.000 OA
ATOM     28  H   UNL     1      45.393   1.835  10.355  0.00  0.00    +0.000 HD
BRANCH  26  29
ATOM     29  C   UNL     1      45.362   2.795   7.995  0.00  0.00    +0.000 C 
ATOM     30  C   UNL     1      46.188   1.562   8.377  0.00  0.00    +0.000 C 
ATOM     31  C   UNL     1      46.885   0.961   7.159  0.00  0.00    +0.000 C 
ATOM     32  C   UNL     1      47.676   2.028   6.413  0.00  0.00    +0.000 C 
ATOM     33  C   UNL     1      46.800   3.235   6.086  0.00  0.00    +0.000 C 
ATOM     34  N   UNL     1      46.197   3.809   7.293  0.00  0.00    +0.000 NA
ATOM     35  H   UNL     1      45.576   4.570   7.007  0.00  0.00    +0.000 HD
ENDBRANCH  26  29
ENDBRANCH  24  25
ENDBRANCH   4  24
TORSDOF 6
ENDMDL
MODEL 2
REMARK VINA RESULT:    -8.358      1.599      2.201
REMARK INTER + INTRA:         -12.423
REMARK INTER:                 -11.341
REMARK INTRA:                  -1.082
REMARK UNBOUND:                -1.134
REMARK  Name = 
REMARK  7 active torsions:
REMARK  status: ('A' for Active; 'I' for Inactive)
REMARK    1  A    between atoms: C_1  and  C_2
REMARK    2  A    between atoms: C_2  and  N_3
REMARK    3  A    between atoms: C_2  and  C_16
REMARK    4  A    between atoms: C_4  and  C_6
REMARK    5  A    between atoms: C_19  and  C_20
REMARK    6  A    between atoms: C_20  and  N_21
REMARK    7  A    between atoms: C_22  and  C_24
REMARK                            x       y       z     vdW  Elec       q    Type
REMARK                         _______ _______ _______ _____ _____    ______ ____
ROOT
ATOM      1  C   UNL     1      47.228   6.342  13.553  0.00  0.00    +0.000 A 
ATOM      2  C   UNL     1      46.133   6.748  12.788  0.00  0.00    +0.000 A 
ATOM      3  C   UNL     1      45.274   5.787  12.254  0.00  0.00    +0.000 A 
ATOM      4  C   UNL     1      45.513   4.435  12.493  0.00  0.00    +0.000 A 
ATOM      5  C   UNL     1      46.598   4.119  13.303  0.00  0.00    +0.000 A 
ATOM      6  N   UNL     1      47.454   5.032  13.830  0.00  0.00    +0.000 NA
ENDROOT
BRANCH   1   8
ATOM      7  C   UNL     1      47.901   8.747  13.499  0.00  0.00    +0.000 C 
ATOM      8  C   UNL     1      48.246   7.364  14.067  0.00  0.00    +0.000 C 
BRANCH   8   9
ATOM      9  N   UNL     1      48.303   7.359  15.525  0.00  0.00    +0.000 N 
ATOM     10  C   UNL     1      49.382   6.873  16.228  0.00  0.00    +0.000 C 
ATOM     11  O   UNL     1      50.407   6.479  15.689  0.00  0.00    +0.000 OA
ATOM     12  H   UNL     1      47.397   7.328  15.988  0.00  0.00    +0.000 HD
BRANCH  10  13
ATOM     13  C   UNL     1      49.268   6.912  17.692  0.00  0.00    +0.000 A 
ATOM     14  C   UNL     1      49.454   8.113  18.364  0.00  0.00    +0.000 A 
ATOM     15  S   UNL     1      49.264   7.988  20.055  0.00  0.00    +0.000 S 
ATOM     16  C   UNL     1      48.972   6.314  19.954  0.00  0.00    +0.000 A 
ATOM     17  N   UNL     1      48.761   5.570  21.072  0.00  0.00    +0.000 NA
ATOM     18  C   UNL     1      48.590   4.310  20.849  0.00  0.00    +0.000 A 
ATOM     19  N   UNL     1      48.595   3.729  19.608  0.00  0.00    +0.000 N 
ATOM     20  C   UNL     1      48.749   4.450  18.449  0.00  0.00    +0.000 A 
ATOM     21  O   UNL     1      48.661   3.916  17.347  0.00  0.00    +0.000 OA
ATOM     22  C   UNL     1      48.986   5.865  18.645  0.00  0.00    +0.000 A 
ATOM     23  H   UNL     1      48.431   2.739  19.499  0.00  0.00    +0.000 HD
ENDBRANCH  10  13
ENDBRANCH   8   9
ENDBRANCH   1   8
BRANCH   4  24
ATOM     24  C   UNL     1      44.654   3.367  11.881  0.00  0.00    +0.000 C 
BRANCH  24  25
ATOM     25  N   UNL     1      45.153   2.905  10.610  0.00  0.00    +0.000 N 
ATOM     26  C   UNL     1      44.682   3.444   9.431  0.00  0.00    +0.000 C 
ATOM     27  O   UNL     1      43.849   4.348   9.400  0.00  0.00    +0.000 OA
ATOM     28  H   UNL     1      45.606   1.998  10.527  0.00  0.00    +0.000 HD
BRANCH  26  29
ATOM     29  C   UNL     1      45.293   2.843   8.144  0.00  0.00    +0.000 C 
ATOM     30  C   UNL     1      46.128   1.605   8.487  0.00  0.00    +0.000 C 
ATOM     31  C   UNL     1      46.786   1.016   7.242  0.00  0.00    +0.000 C 
ATOM     32  C   UNL     1      47.555   2.089   6.482  0.00  0.00    +0.000 C 
ATOM     33  C   UNL     1      46.670   3.300   6.194  0.00  0.00    +0.000 C 
ATOM     34  N   UNL     1      46.107   3.863   7.425  0.00  0.00    +0.000 NA
ATOM     35  H   UNL     1      45.478   4.628   7.167  0.00  0.00    +0.000 HD
ENDBRANCH  26  29
ENDBRANCH  24  25
ENDBRANCH   4  24
TORSDOF 6
ENDMDL
MODEL 3
REMARK VINA RESULT:    -8.159      2.537      3.152
REMARK INTER + INTRA:         -12.155
REMARK INTER:                 -11.064
REMARK INTRA:                  -1.090
REMARK UNBOUND:                -1.134
REMARK  Name = 
REMARK  7 active torsions:
REMARK  status: ('A' for Active; 'I' for Inactive)
REMARK    1  A    between atoms: C_1  and  C_2
REMARK    2  A    between atoms: C_2  and  N_3
REMARK    3  A    between atoms: C_2  and  C_16
REMARK    4  A    between atoms: C_4  and  C_6
REMARK    5  A    between atoms: C_19  and  C_20
REMARK    6  A    between atoms: C_20  and  N_21
REMARK    7  A    between atoms: C_22  and  C_24
REMARK                            x       y       z     vdW  Elec       q    Type
REMARK                         _______ _______ _______ _____ _____    ______ ____
ROOT
ATOM      1  C   UNL     1      46.499   7.444  12.439  0.00  0.00    +0.000 A 
ATOM      2  C   UNL     1      46.923   6.823  11.263  0.00  0.00    +0.000 A 
ATOM      3  C   UNL     1      46.027   6.036  10.540  0.00  0.00    +0.000 A 
ATOM      4  C   UNL     1      44.718   5.881  10.995  0.00  0.00    +0.000 A 
ATOM      5  C   UNL     1      44.366   6.570  12.150  0.00  0.00    +0.000 A 
ATOM      6  N   UNL     1      45.218   7.337  12.876  0.00  0.00    +0.000 NA
ENDROOT
BRANCH   1   8
ATOM      7  C   UNL     1      46.942   9.647  13.530  0.00  0.00    +0.000 C 
ATOM      8  C   UNL     1      47.485   8.229  13.309  0.00  0.00    +0.000 C 
BRANCH   8   9
ATOM      9  N   UNL     1      47.747   7.531  14.564  0.00  0.00    +0.000 N 
ATOM     10  C   UNL     1      48.978   7.002  14.880  0.00  0.00    +0.000 C 
ATOM     11  O   UNL     1      49.966   7.140  14.171  0.00  0.00    +0.000 OA
ATOM     12  H   UNL     1      46.933   7.093  14.987  0.00  0.00    +0.000 HD
BRANCH  10  13
ATOM     13  C   UNL     1      49.068   6.304  16.169  0.00  0.00    +0.000 A 
ATOM     14  C   UNL     1      49.908   6.796  17.159  0.00  0.00    +0.000 A 
ATOM     15  S   UNL     1      49.875   5.882  18.600  0.00  0.00    +0.000 S 
ATOM     16  C   UNL     1      48.773   4.769  17.934  0.00  0.00    +0.000 A 
ATOM     17  N   UNL     1      48.347   3.693  18.647  0.00  0.00    +0.000 NA
ATOM     18  C   UNL     1      47.541   2.914  18.005  0.00  0.00    +0.000 A 
ATOM     19  N   UNL     1      47.111   3.123  16.721  0.00  0.00    +0.000 N 
ATOM     20  C   UNL     1      47.473   4.224  15.985  0.00  0.00    +0.000 A 
ATOM     21  O   UNL     1      47.003   4.431  14.869  0.00  0.00    +0.000 OA
ATOM     22  C   UNL     1      48.409   5.110  16.644  0.00  0.00    +0.000 A 
ATOM     23  H   UNL     1      46.461   2.487  16.283  0.00  0.00    +0.000 HD
ENDBRANCH  10  13
ENDBRANCH   8   9
ENDBRANCH   1   8
BRANCH   4  24
ATOM     24  C   UNL     1      43.742   4.989  10.285  0.00  0.00    +0.000 C 
BRANCH  24  25
ATOM     25  N   UNL     1      44.296   4.380   9.101  0.00  0.00    +0.000 N 
ATOM     26  C   UNL     1      44.966   3.176   9.177  0.00  0.00    +0.000 C 
ATOM     27  O   UNL     1      45.100   2.555  10.229  0.00  0.00    +0.000 OA
ATOM     28  H   UNL     1      44.484   4.935   8.270  0.00  0.00    +0.000 HD
BRANCH  26  29
ATOM     29  C   UNL     1      45.520   2.648   7.833  0.00  0.00    +0.000 C 
ATOM     30  C   UNL     1      46.472   1.474   8.082  0.00  0.00    +0.000 C 
ATOM     31  C   UNL     1      47.075   0.961   6.778  0.00  0.00    +0.000 C 
ATOM     32  C   UNL     1      47.697   2.105   5.986  0.00  0.00    +0.000 C 
ATOM     33  C   UNL     1      46.702   3.246   5.796  0.00  0.00    +0.000 C 
ATOM     34  N   UNL     1      46.194   3.741   7.079  0.00  0.00    +0.000 NA
ATOM     35  H   UNL     1      45.489   4.459   6.887  0.00  0.00    +0.000 HD
ENDBRANCH  26  29
ENDBRANCH  24  25
ENDBRANCH   4  24
TORSDOF 6
ENDMDL
MODEL 4
REMARK VINA RESULT:    -7.833      2.123      2.954
REMARK INTER + INTRA:         -11.714
REMARK INTER:                 -10.611
REMARK INTRA:                  -1.103
REMARK UNBOUND:                -1.134
REMARK  Name = 
REMARK  7 active torsions:
REMARK  status: ('A' for Active; 'I' for Inactive)
REMARK    1  A    between atoms: C_1  and  C_2
REMARK    2  A    between atoms: C_2  and  N_3
REMARK    3  A    between atoms: C_2  and  C_16
REMARK    4  A    between atoms: C_4  and  C_6
REMARK    5  A    between atoms: C_19  and  C_20
REMARK    6  A    between atoms: C_20  and  N_21
REMARK    7  A    between atoms: C_22  and  C_24
REMARK                            x       y       z     vdW  Elec       q    Type
REMARK                         _______ _______ _______ _____ _____    ______ ____
ROOT
ATOM      1  C   UNL     1      46.631   4.807  14.455  0.00  0.00    +0.000 A 
ATOM      2  C   UNL     1      47.403   5.746  13.767  0.00  0.00    +0.000 A 
ATOM      3  C   UNL     1      46.969   6.214  12.526  0.00  0.00    +0.000 A 
ATOM      4  C   UNL     1      45.770   5.747  11.989  0.00  0.00    +0.000 A 
ATOM      5  C   UNL     1      45.041   4.849  12.761  0.00  0.00    +0.000 A 
ATOM      6  N   UNL     1      45.442   4.371  13.967  0.00  0.00    +0.000 NA
ENDROOT
BRANCH   1   8
ATOM      7  C   UNL     1      47.895   2.903  15.463  0.00  0.00    +0.000 C 
ATOM      8  C   UNL     1      47.129   4.197  15.768  0.00  0.00    +0.000 C 
BRANCH   8   9
ATOM      9  N   UNL     1      47.933   5.156  16.519  0.00  0.00    +0.000 N 
ATOM     10  C   UNL     1      47.654   5.506  17.821  0.00  0.00    +0.000 C 
ATOM     11  O   UNL     1      46.759   4.987  18.475  0.00  0.00    +0.000 OA
ATOM     12  H   UNL     1      48.420   5.844  15.950  0.00  0.00    +0.000 HD
BRANCH  10  13
ATOM     13  C   UNL     1      48.542   6.508  18.424  0.00  0.00    +0.000 A 
ATOM     14  C   UNL     1      48.002   7.533  19.190  0.00  0.00    +0.000 A 
ATOM     15  S   UNL     1      49.172   8.595  19.835  0.00  0.00    +0.000 S 
ATOM     16  C   UNL     1      50.439   7.748  19.076  0.00  0.00    +0.000 A 
ATOM     17  N   UNL     1      51.729   8.163  19.194  0.00  0.00    +0.000 NA
ATOM     18  C   UNL     1      52.579   7.449  18.536  0.00  0.00    +0.000 A 
ATOM     19  N   UNL     1      52.260   6.348  17.784  0.00  0.00    +0.000 N 
ATOM     20  C   UNL     1      50.979   5.864  17.682  0.00  0.00    +0.000 A 
ATOM     21  O   UNL     1      50.735   4.825  17.074  0.00  0.00    +0.000 OA
ATOM     22  C   UNL     1      49.978   6.652  18.369  0.00  0.00    +0.000 A 
ATOM     23  H   UNL     1      52.977   5.818  17.312  0.00  0.00    +0.000 HD
ENDBRANCH  10  13
ENDBRANCH   8   9
ENDBRANCH   1   8
BRANCH   4  24
ATOM     24  C   UNL     1      45.302   6.173  10.629  0.00  0.00    +0.000 C 
BRANCH  24  25
ATOM     25  N   UNL     1      45.691   5.254   9.588  0.00  0.00    +0.000 N 
ATOM     26  C   UNL     1      44.821   4.277   9.151  0.00  0.00    +0.000 C 
ATOM     27  O   UNL     1      43.682   4.154   9.595  0.00  0.00    +0.000 OA
ATOM     28  H   UNL     1      46.673   5.096   9.374  0.00  0.00    +0.000 HD
BRANCH  26  29
ATOM     29  C   UNL     1      45.377   3.353   8.042  0.00  0.00    +0.000 C 
ATOM     30  C   UNL     1      45.980   2.089   8.663  0.00  0.00    +0.000 C 
ATOM     31  C   UNL     1      46.581   1.178   7.596  0.00  0.00    +0.000 C 
ATOM     32  C   UNL     1      47.547   1.954   6.709  0.00  0.00    +0.000 C 
ATOM     33  C   UNL     1      46.888   3.209   6.144  0.00  0.00    +0.000 C 
ATOM     34  N   UNL     1      46.376   4.078   7.209  0.00  0.00    +0.000 NA
ATOM     35  H   UNL     1      45.894   4.867   6.771  0.00  0.00    +0.000 HD
ENDBRANCH  26  29
ENDBRANCH  24  25
ENDBRANCH   4  24
TORSDOF 6
ENDMDL
MODEL 5
REMARK VINA RESULT:    -7.821      3.923      5.563
REMARK INTER + INTRA:         -11.699
REMARK INTER:                 -10.579
REMARK INTRA:                  -1.120
REMARK UNBOUND:                -1.134
REMARK  Name = 
REMARK  7 active torsions:
REMARK  status: ('A' for Active; 'I' for Inactive)
REMARK    1  A    between atoms: C_1  and  C_2
REMARK    2  A    between atoms: C_2  and  N_3
REMARK    3  A    between atoms: C_2  and  C_16
REMARK    4  A    between atoms: C_4  and  C_6
REMARK    5  A    between atoms: C_19  and  C_20
REMARK    6  A    between atoms: C_20  and  N_21
REMARK    7  A    between atoms: C_22  and  C_24
REMARK                            x       y       z     vdW  Elec       q    Type
REMARK                         _______ _______ _______ _____ _____    ______ ____
ROOT
ATOM      1  C   UNL     1      47.985   4.759  15.973  0.00  0.00    +0.000 A 
ATOM      2  C   UNL     1      46.974   4.171  15.211  0.00  0.00    +0.000 A 
ATOM      3  C   UNL     1      46.549   4.793  14.037  0.00  0.00    +0.000 A 
ATOM      4  C   UNL     1      47.140   5.989  13.633  0.00  0.00    +0.000 A 
ATOM      5  C   UNL     1      48.171   6.482  14.426  0.00  0.00    +0.000 A 
ATOM      6  N   UNL     1      48.600   5.902  15.576  0.00  0.00    +0.000 NA
ENDROOT
BRANCH   1   8
ATOM      7  C   UNL     1      47.514   2.943  17.623  0.00  0.00    +0.000 C 
ATOM      8  C   UNL     1      48.402   4.157  17.318  0.00  0.00    +0.000 C 
BRANCH   8   9
ATOM      9  N   UNL     1      49.823   3.823  17.324  0.00  0.00    +0.000 N 
ATOM     10  C   UNL     1      50.663   4.151  18.364  0.00  0.00    +0.000 C 
ATOM     11  O   UNL     1      50.271   4.680  19.396  0.00  0.00    +0.000 OA
ATOM     12  H   UNL     1      50.243   3.728  16.402  0.00  0.00    +0.000 HD
BRANCH  10  13
ATOM     13  C   UNL     1      52.072   3.770  18.201  0.00  0.00    +0.000 A 
ATOM     14  C   UNL     1      53.068   4.714  18.410  0.00  0.00    +0.000 A 
ATOM     15  S   UNL     1      54.647   4.100  18.204  0.00  0.00    +0.000 S 
ATOM     16  C   UNL     1      54.053   2.562  17.782  0.00  0.00    +0.000 A 
ATOM     17  N   UNL     1      54.899   1.553  17.444  0.00  0.00    +0.000 NA
ATOM     18  C   UNL     1      54.309   0.453  17.111  0.00  0.00    +0.000 A 
ATOM     19  N   UNL     1      52.952   0.267  17.102  0.00  0.00    +0.000 N 
ATOM     20  C   UNL     1      52.064   1.241  17.487  0.00  0.00    +0.000 A 
ATOM     21  O   UNL     1      50.859   1.018  17.553  0.00  0.00    +0.000 OA
ATOM     22  C   UNL     1      52.671   2.509  17.832  0.00  0.00    +0.000 A 
ATOM     23  H   UNL     1      52.554  -0.627  16.853  0.00  0.00    +0.000 HD
ENDBRANCH  10  13
ENDBRANCH   8   9
ENDBRANCH   1   8
BRANCH   4  24
ATOM     24  C   UNL     1      46.667   6.725  12.415  0.00  0.00    +0.000 C 
BRANCH  24  25
ATOM     25  N   UNL     1      46.335   5.846  11.321  0.00  0.00    +0.000 N 
ATOM     26  C   UNL     1      45.018   5.572  11.015  0.00  0.00    +0.000 C 
ATOM     27  O   UNL     1      44.075   6.073  11.624  0.00  0.00    +0.000 OA
ATOM     28  H   UNL     1      47.016   5.183  10.962  0.00  0.00    +0.000 HD
BRANCH  26  29
ATOM     29  C   UNL     1      44.809   4.601   9.829  0.00  0.00    +0.000 C 
ATOM     30  C   UNL     1      44.871   3.151  10.319  0.00  0.00    +0.000 C 
ATOM     31  C   UNL     1      44.716   2.167   9.163  0.00  0.00    +0.000 C 
ATOM     32  C   UNL     1      45.706   2.486   8.050  0.00  0.00    +0.000 C 
ATOM     33  C   UNL     1      45.606   3.949   7.627  0.00  0.00    +0.000 C 
ATOM     34  N   UNL     1      45.816   4.855   8.761  0.00  0.00    +0.000 NA
ATOM     35  H   UNL     1      45.676   5.814   8.432  0.00  0.00    +0.000 HD
ENDBRANCH  26  29
ENDBRANCH  24  25
ENDBRANCH   4  24
TORSDOF 6
ENDMDL
MODEL 6
REMARK VINA RESULT:    -7.699      3.056      4.358
REMARK INTER + INTRA:         -11.533
REMARK INTER:                 -10.433
REMARK INTRA:                  -1.101
REMARK UNBOUND:                -1.134
REMARK  Name = 
REMARK  7 active torsions:
REMARK  status: ('A' for Active; 'I' for Inactive)
REMARK    1  A    between atoms: C_1  and  C_2
REMARK    2  A    between atoms: C_2  and  N_3
REMARK    3  A    between atoms: C_2  and  C_16
REMARK    4  A    between atoms: C_4  and  C_6
REMARK    5  A    between atoms: C_19  and  C_20
REMARK    6  A    between atoms: C_20  and  N_21
REMARK    7  A    between atoms: C_22  and  C_24
REMARK                            x       y       z     vdW  Elec       q    Type
REMARK                         _______ _______ _______ _____ _____    ______ ____
ROOT
ATOM      1  C   UNL     1      46.335   5.052  13.729  0.00  0.00    +0.000 A 
ATOM      2  C   UNL     1      46.120   3.751  13.270  0.00  0.00    +0.000 A 
ATOM      3  C   UNL     1      45.285   3.540  12.173  0.00  0.00    +0.000 A 
ATOM      4  C   UNL     1      44.679   4.626  11.543  0.00  0.00    +0.000 A 
ATOM      5  C   UNL     1      44.983   5.890  12.036  0.00  0.00    +0.000 A 
ATOM      6  N   UNL     1      45.787   6.125  13.104  0.00  0.00    +0.000 NA
ENDROOT
BRANCH   1   8
ATOM      7  C   UNL     1      47.364   3.985  15.740  0.00  0.00    +0.000 C 
ATOM      8  C   UNL     1      47.163   5.309  14.991  0.00  0.00    +0.000 C 
BRANCH   8   9
ATOM      9  N   UNL     1      48.427   5.962  14.665  0.00  0.00    +0.000 N 
ATOM     10  C   UNL     1      49.065   6.826  15.525  0.00  0.00    +0.000 C 
ATOM     11  O   UNL     1      48.663   7.057  16.658  0.00  0.00    +0.000 OA
ATOM     12  H   UNL     1      48.597   6.090  13.670  0.00  0.00    +0.000 HD
BRANCH  10  13
ATOM     13  C   UNL     1      50.314   7.423  15.033  0.00  0.00    +0.000 A 
ATOM     14  C   UNL     1      51.463   7.348  15.809  0.00  0.00    +0.000 A 
ATOM     15  S   UNL     1      52.827   8.068  15.080  0.00  0.00    +0.000 S 
ATOM     16  C   UNL     1      51.919   8.545  13.721  0.00  0.00    +0.000 A 
ATOM     17  N   UNL     1      52.490   9.252  12.709  0.00  0.00    +0.000 NA
ATOM     18  C   UNL     1      51.676   9.577  11.762  0.00  0.00    +0.000 A 
ATOM     19  N   UNL     1      50.346   9.247  11.727  0.00  0.00    +0.000 N 
ATOM     20  C   UNL     1      49.742   8.489  12.700  0.00  0.00    +0.000 A 
ATOM     21  O   UNL     1      48.571   8.134  12.599  0.00  0.00    +0.000 OA
ATOM     22  C   UNL     1      50.602   8.131  13.808  0.00  0.00    +0.000 A 
ATOM     23  H   UNL     1      49.767   9.512  10.945  0.00  0.00    +0.000 HD
ENDBRANCH  10  13
ENDBRANCH   8   9
ENDBRANCH   1   8
BRANCH   4  24
ATOM     24  C   UNL     1      43.721   4.437  10.404  0.00  0.00    +0.000 C 
BRANCH  24  25
ATOM     25  N   UNL     1      44.275   3.654   9.328  0.00  0.00    +0.000 N 
ATOM     26  C   UNL     1      45.273   4.168   8.526  0.00  0.00    +0.000 C 
ATOM     27  O   UNL     1      45.754   5.286   8.697  0.00  0.00    +0.000 OA
ATOM     28  H   UNL     1      43.763   2.866   8.940  0.00  0.00    +0.000 HD
BRANCH  26  29
ATOM     29  C   UNL     1      45.762   3.224   7.402  0.00  0.00    +0.000 C 
ATOM     30  C   UNL     1      46.452   1.998   8.009  0.00  0.00    +0.000 C 
ATOM     31  C   UNL     1      46.990   1.069   6.924  0.00  0.00    +0.000 C 
ATOM     32  C   UNL     1      47.857   1.842   5.937  0.00  0.00    +0.000 C 
ATOM     33  C   UNL     1      47.117   3.060   5.391  0.00  0.00    +0.000 C 
ATOM     34  N   UNL     1      46.668   3.948   6.468  0.00  0.00    +0.000 NA
ATOM     35  H   UNL     1      46.128   4.710   6.048  0.00  0.00    +0.000 HD
ENDBRANCH  26  29
ENDBRANCH  24  25
ENDBRANCH   4  24
TORSDOF 6
ENDMDL
MODEL 7
REMARK VINA RESULT:    -7.534      1.648      2.355
REMARK INTER + INTRA:         -11.311
REMARK INTER:                 -10.239
REMARK INTRA:                  -1.072
REMARK UNBOUND:                -1.134
REMARK  Name = 
REMARK  7 active torsions:
REMARK  status: ('A' for Active; 'I' for Inactive)
REMARK    1  A    between atoms: C_1  and  C_2
REMARK    2  A    between atoms: C_2  and  N_3
REMARK    3  A    between atoms: C_2  and  C_16
REMARK    4  A    between atoms: C_4  and  C_6
REMARK    5  A    between atoms: C_19  and  C_20
REMARK    6  A    between atoms: C_20  and  N_21
REMARK    7  A    between atoms: C_22  and  C_24
REMARK                            x       y       z     vdW  Elec       q    Type
REMARK                         _______ _______ _______ _____ _____    ______ ____
ROOT
ATOM      1  C   UNL     1      47.083   7.434  13.140  0.00  0.00    +0.000 A 
ATOM      2  C   UNL     1      47.381   6.154  13.612  0.00  0.00    +0.000 A 
ATOM      3  C   UNL     1      46.637   5.064  13.157  0.00  0.00    +0.000 A 
ATOM      4  C   UNL     1      45.610   5.262  12.236  0.00  0.00    +0.000 A 
ATOM      5  C   UNL     1      45.411   6.562  11.784  0.00  0.00    +0.000 A 
ATOM      6  N   UNL     1      46.114   7.641  12.213  0.00  0.00    +0.000 NA
ENDROOT
BRANCH   1   8
ATOM      7  C   UNL     1      47.402   9.898  12.885  0.00  0.00    +0.000 C 
ATOM      8  C   UNL     1      47.812   8.661  13.695  0.00  0.00    +0.000 C 
BRANCH   8   9
ATOM      9  N   UNL     1      47.555   8.820  15.124  0.00  0.00    +0.000 N 
ATOM     10  C   UNL     1      48.562   8.952  16.052  0.00  0.00    +0.000 C 
ATOM     11  O   UNL     1      49.746   9.023  15.748  0.00  0.00    +0.000 OA
ATOM     12  H   UNL     1      46.677   8.421  15.447  0.00  0.00    +0.000 HD
BRANCH  10  13
ATOM     13  C   UNL     1      48.137   9.073  17.453  0.00  0.00    +0.000 A 
ATOM     14  C   UNL     1      47.837  10.325  17.974  0.00  0.00    +0.000 A 
ATOM     15  S   UNL     1      47.337  10.284  19.605  0.00  0.00    +0.000 S 
ATOM     16  C   UNL     1      47.547   8.597  19.686  0.00  0.00    +0.000 A 
ATOM     17  N   UNL     1      47.320   7.917  20.841  0.00  0.00    +0.000 NA
ATOM     18  C   UNL     1      47.555   6.650  20.767  0.00  0.00    +0.000 A 
ATOM     19  N   UNL     1      47.982   5.998  19.639  0.00  0.00    +0.000 N 
ATOM     20  C   UNL     1      48.171   6.637  18.438  0.00  0.00    +0.000 A 
ATOM     21  O   UNL     1      48.469   6.015  17.422  0.00  0.00    +0.000 OA
ATOM     22  C   UNL     1      47.961   8.069  18.476  0.00  0.00    +0.000 A 
ATOM     23  H   UNL     1      48.125   5.000  19.640  0.00  0.00    +0.000 HD
ENDBRANCH  10  13
ENDBRANCH   8   9
ENDBRANCH   1   8
BRANCH   4  24
ATOM     24  C   UNL     1      44.742   4.129  11.774  0.00  0.00    +0.000 C 
BRANCH  24  25
ATOM     25  N   UNL     1      45.220   3.516  10.559  0.00  0.00    +0.000 N 
ATOM     26  C   UNL     1      44.629   3.806   9.346  0.00  0.00    +0.000 C 
ATOM     27  O   UNL     1      43.703   4.606   9.231  0.00  0.00    +0.000 OA
ATOM     28  H   UNL     1      45.763   2.657  10.588  0.00  0.00    +0.000 HD
BRANCH  26  29
ATOM     29  C   UNL     1      45.233   3.065   8.130  0.00  0.00    +0.000 C 
ATOM     30  C   UNL     1      45.983   1.813   8.596  0.00  0.00    +0.000 C 
ATOM     31  C   UNL     1      46.631   1.084   7.422  0.00  0.00    +0.000 C 
ATOM     32  C   UNL     1      47.481   2.044   6.598  0.00  0.00    +0.000 C 
ATOM     33  C   UNL     1      46.679   3.276   6.188  0.00  0.00    +0.000 C 
ATOM     34  N   UNL     1      46.123   3.972   7.353  0.00  0.00    +0.000 NA
ATOM     35  H   UNL     1      45.547   4.748   7.016  0.00  0.00    +0.000 HD
ENDBRANCH  26  29
ENDBRANCH  24  25
ENDBRANCH   4  24
TORSDOF 6
ENDMDL
MODEL 8
REMARK VINA RESULT:    -7.350      4.331      9.412
REMARK INTER + INTRA:         -11.062
REMARK INTER:                 -10.043
REMARK INTRA:                  -1.018
REMARK UNBOUND:                -1.134
REMARK  Name = 
REMARK  7 active torsions:
REMARK  status: ('A' for Active; 'I' for Inactive)
REMARK    1  A    between atoms: C_1  and  C_2
REMARK    2  A    between atoms: C_2  and  N_3
REMARK    3  A    between atoms: C_2  and  C_16
REMARK    4  A    between atoms: C_4  and  C_6
REMARK    5  A    between atoms: C_19  and  C_20
REMARK    6  A    between atoms: C_20  and  N_21
REMARK    7  A    between atoms: C_22  and  C_24
REMARK                            x       y       z     vdW  Elec       q    Type
REMARK                         _______ _______ _______ _____ _____    ______ ____
ROOT
ATOM      1  C   UNL     1      48.457   6.273  14.936  0.00  0.00    +0.000 A 
ATOM      2  C   UNL     1      49.550   6.749  15.662  0.00  0.00    +0.000 A 
ATOM      3  C   UNL     1      49.943   6.085  16.824  0.00  0.00    +0.000 A 
ATOM      4  C   UNL     1      49.247   4.953  17.246  0.00  0.00    +0.000 A 
ATOM      5  C   UNL     1      48.200   4.521  16.439  0.00  0.00    +0.000 A 
ATOM      6  N   UNL     1      47.791   5.150  15.308  0.00  0.00    +0.000 NA
ENDROOT
BRANCH   1   8
ATOM      7  C   UNL     1      49.104   7.781  13.052  0.00  0.00    +0.000 C 
ATOM      8  C   UNL     1      47.937   7.036  13.714  0.00  0.00    +0.000 C 
BRANCH   8   9
ATOM      9  N   UNL     1      47.252   6.140  12.789  0.00  0.00    +0.000 N 
ATOM     10  C   UNL     1      46.295   6.574  11.900  0.00  0.00    +0.000 C 
ATOM     11  O   UNL     1      45.998   7.753  11.762  0.00  0.00    +0.000 OA
ATOM     12  H   UNL     1      47.191   5.172  13.097  0.00  0.00    +0.000 HD
BRANCH  10  13
ATOM     13  C   UNL     1      45.679   5.539  11.058  0.00  0.00    +0.000 A 
ATOM     14  C   UNL     1      45.779   5.628   9.677  0.00  0.00    +0.000 A 
ATOM     15  S   UNL     1      45.031   4.335   8.852  0.00  0.00    +0.000 S 
ATOM     16  C   UNL     1      44.506   3.635  10.312  0.00  0.00    +0.000 A 
ATOM     17  N   UNL     1      43.762   2.497  10.316  0.00  0.00    +0.000 NA
ATOM     18  C   UNL     1      43.404   2.100  11.491  0.00  0.00    +0.000 A 
ATOM     19  N   UNL     1      43.735   2.728  12.663  0.00  0.00    +0.000 N 
ATOM     20  C   UNL     1      44.529   3.848  12.708  0.00  0.00    +0.000 A 
ATOM     21  O   UNL     1      44.883   4.339  13.777  0.00  0.00    +0.000 OA
ATOM     22  C   UNL     1      44.926   4.360  11.413  0.00  0.00    +0.000 A 
ATOM     23  H   UNL     1      43.442   2.353  13.553  0.00  0.00    +0.000 HD
ENDBRANCH  10  13
ENDBRANCH   8   9
ENDBRANCH   1   8
BRANCH   4  24
ATOM     24  C   UNL     1      49.594   4.250  18.525  0.00  0.00    +0.000 C 
BRANCH  24  25
ATOM     25  N   UNL     1      50.948   3.754  18.544  0.00  0.00    +0.000 N 
ATOM     26  C   UNL     1      51.301   2.647  17.800  0.00  0.00    +0.000 C 
ATOM     27  O   UNL     1      50.506   2.052  17.075  0.00  0.00    +0.000 OA
ATOM     28  H   UNL     1      51.578   3.990  19.306  0.00  0.00    +0.000 HD
BRANCH  26  29
ATOM     29  C   UNL     1      52.781   2.217  17.927  0.00  0.00    +0.000 C 
ATOM     30  C   UNL     1      52.930   0.734  17.572  0.00  0.00    +0.000 C 
ATOM     31  C   UNL     1      54.373   0.266  17.734  0.00  0.00    +0.000 C 
ATOM     32  C   UNL     1      54.903   0.628  19.116  0.00  0.00    +0.000 C 
ATOM     33  C   UNL     1      54.702   2.112  19.412  0.00  0.00    +0.000 C 
ATOM     34  N   UNL     1      53.293   2.500  19.296  0.00  0.00    +0.000 NA
ATOM     35  H   UNL     1      53.228   3.511  19.443  0.00  0.00    +0.000 HD
ENDBRANCH  26  29
ENDBRANCH  24  25
ENDBRANCH   4  24
TORSDOF 6
ENDMDL
MODEL 9
REMARK VINA RESULT:    -7.253      2.214      2.730
REMARK INTER + INTRA:         -10.931
REMARK INTER:                  -9.782
REMARK INTRA:                  -1.149
REMARK UNBOUND:                -1.134
REMARK  Name = 
REMARK  7 active torsions:
REMARK  status: ('A' for Active; 'I' for Inactive)
REMARK    1  A    between atoms: C_1  and  C_2
REMARK    2  A    between atoms: C_2  and  N_3
REMARK    3  A    between atoms: C_2  and  C_16
REMARK    4  A    between atoms: C_4  and  C_6
REMARK    5  A    between atoms: C_19  and  C_20
REMARK    6  A    between atoms: C_20  and  N_21
REMARK    7  A    between atoms: C_22  and  C_24
REMARK                            x       y       z     vdW  Elec       q    Type
REMARK                         _______ _______ _______ _____ _____    ______ ____
ROOT
ATOM      1  C   UNL     1      46.899   4.984  14.342  0.00  0.00    +0.000 A 
ATOM      2  C   UNL     1      46.096   4.081  13.643  0.00  0.00    +0.000 A 
ATOM      3  C   UNL     1      45.633   4.417  12.371  0.00  0.00    +0.000 A 
ATOM      4  C   UNL     1      45.978   5.645  11.809  0.00  0.00    +0.000 A 
ATOM      5  C   UNL     1      46.819   6.465  12.554  0.00  0.00    +0.000 A 
ATOM      6  N   UNL     1      47.279   6.167  13.796  0.00  0.00    +0.000 NA
ENDROOT
BRANCH   1   8
ATOM      7  C   UNL     1      47.793   3.227  15.877  0.00  0.00    +0.000 C 
ATOM      8  C   UNL     1      47.339   4.690  15.779  0.00  0.00    +0.000 C 
BRANCH   8   9
ATOM      9  N   UNL     1      48.374   5.625  16.212  0.00  0.00    +0.000 N 
ATOM     10  C   UNL     1      48.459   6.098  17.501  0.00  0.00    +0.000 C 
ATOM     11  O   UNL     1      47.725   5.716  18.403  0.00  0.00    +0.000 OA
ATOM     12  H   UNL     1      48.748   6.218  15.475  0.00  0.00    +0.000 HD
BRANCH  10  13
ATOM     13  C   UNL     1      49.541   7.056  17.766  0.00  0.00    +0.000 A 
ATOM     14  C   UNL     1      50.552   6.721  18.657  0.00  0.00    +0.000 A 
ATOM     15  S   UNL     1      51.740   7.934  18.831  0.00  0.00    +0.000 S 
ATOM     16  C   UNL     1      50.919   8.969  17.756  0.00  0.00    +0.000 A 
ATOM     17  N   UNL     1      51.393  10.214  17.483  0.00  0.00    +0.000 NA
ATOM     18  C   UNL     1      50.650  10.901  16.681  0.00  0.00    +0.000 A 
ATOM     19  N   UNL     1      49.486  10.451  16.116  0.00  0.00    +0.000 N 
ATOM     20  C   UNL     1      49.000   9.184  16.322  0.00  0.00    +0.000 A 
ATOM     21  O   UNL     1      48.002   8.777  15.734  0.00  0.00    +0.000 OA
ATOM     22  C   UNL     1      49.774   8.383  17.247  0.00  0.00    +0.000 A 
ATOM     23  H   UNL     1      48.962  11.031  15.477  0.00  0.00    +0.000 HD
ENDBRANCH  10  13
ENDBRANCH   8   9
ENDBRANCH   1   8
BRANCH   4  24
ATOM     24  C   UNL     1      45.446   6.074  10.473  0.00  0.00    +0.000 C 
BRANCH  24  25
ATOM     25  N   UNL     1      45.847   5.197   9.401  0.00  0.00    +0.000 N 
ATOM     26  C   UNL     1      44.990   4.223   8.932  0.00  0.00    +0.000 C 
ATOM     27  O   UNL     1      43.852   4.070   9.372  0.00  0.00    +0.000 OA
ATOM     28  H   UNL     1      46.829   5.059   9.181  0.00  0.00    +0.000 HD
BRANCH  26  29
ATOM     29  C   UNL     1      45.556   3.346   7.791  0.00  0.00    +0.000 C 
ATOM     30  C   UNL     1      46.169   2.065   8.368  0.00  0.00    +0.000 C 
ATOM     31  C   UNL     1      46.780   1.199   7.270  0.00  0.00    +0.000 C 
ATOM     32  C   UNL     1      47.742   2.015   6.415  0.00  0.00    +0.000 C 
ATOM     33  C   UNL     1      47.073   3.284   5.894  0.00  0.00    +0.000 C 
ATOM     34  N   UNL     1      46.551   4.109   6.989  0.00  0.00    +0.000 NA
ATOM     35  H   UNL     1      46.063   4.909   6.579  0.00  0.00    +0.000 HD
ENDBRANCH  26  29
ENDBRANCH  24  25
ENDBRANCH   4  24
TORSDOF 6
ENDMDL
