MODEL 1
REMARK VINA RESULT:    -7.449      0.000      0.000
REMARK INTER + INTRA:         -10.233
REMARK INTER:                  -9.626
REMARK INTRA:                  -0.607
REMARK UNBOUND:                -0.607
REMARK  Name = 
REMARK  7 active torsions:
REMARK  status: ('A' for Active; 'I' for Inactive)
REMARK    1  A    between atoms: C_1  and  N_2
REMARK    2  A    between atoms: C_8  and  C_9
REMARK    3  A    between atoms: N_11  and  C_12
REMARK    4  A    between atoms: C_12  and  C_13
REMARK    5  A    between atoms: C_16  and  C_17
REMARK    6  A    between atoms: C_17  and  C_18
REMARK    7  A    between atoms: C_21  and  C_22
REMARK                            x       y       z     vdW  Elec       q    Type
REMARK                         _______ _______ _______ _____ _____    ______ ____
ROOT
ATOM      1  C   UNL     1      50.041   2.244  16.917  0.00  0.00    +0.000 C 
ATOM      2  O   UNL     1      49.724   1.505  15.989  0.00  0.00    +0.000 OA
ATOM      3  N   UNL     1      49.129   3.016  17.584  0.00  0.00    +0.000 N 
ATOM      4  H   UNL     1      49.423   3.634  18.329  0.00  0.00    +0.000 HD
ENDROOT
BRANCH   1  12
ATOM      5  C   UNL     1      52.920   7.131  17.431  0.00  0.00    +0.000 C 
ATOM      6  N   UNL     1      53.110   5.709  17.625  0.00  0.00    +0.000 N 
ATOM      7  C   UNL     1      54.310   5.212  18.081  0.00  0.00    +0.000 A 
ATOM      8  N   UNL     1      54.571   3.961  18.303  0.00  0.00    +0.000 NA
ATOM      9  C   UNL     1      53.539   3.119  18.043  0.00  0.00    +0.000 A 
ATOM     10  S   UNL     1      53.707   1.438  18.251  0.00  0.00    +0.000 S 
ATOM     11  C   UNL     1      52.110   1.156  17.722  0.00  0.00    +0.000 A 
ATOM     12  C   UNL     1      51.422   2.317  17.402  0.00  0.00    +0.000 A 
ATOM     13  C   UNL     1      52.280   3.463  17.593  0.00  0.00    +0.000 A 
ATOM     14  C   UNL     1      52.027   4.875  17.363  0.00  0.00    +0.000 A 
ATOM     15  O   UNL     1      50.937   5.305  16.995  0.00  0.00    +0.000 OA
ENDBRANCH   1  12
BRANCH   3  16
ATOM     16  C   UNL     1      47.735   3.074  17.217  0.00  0.00    +0.000 C 
BRANCH  16  17
ATOM     17  C   UNL     1      47.516   3.893  15.969  0.00  0.00    +0.000 A 
ATOM     18  C   UNL     1      47.762   5.263  15.988  0.00  0.00    +0.000 A 
ATOM     19  C   UNL     1      47.585   5.995  14.820  0.00  0.00    +0.000 A 
ATOM     20  C   UNL     1      47.179   5.346  13.655  0.00  0.00    +0.000 A 
ATOM     21  C   UNL     1      46.972   3.972  13.726  0.00  0.00    +0.000 A 
ATOM     22  N   UNL     1      47.128   3.235  14.848  0.00  0.00    +0.000 NA
BRANCH  20  23
ATOM     23  C   UNL     1      46.980   6.106  12.373  0.00  0.00    +0.000 C 
BRANCH  23  24
ATOM     24  C   UNL     1      45.562   5.975  11.784  0.00  0.00    +0.000 C 
ATOM     25  C   UNL     1      45.508   4.917  10.666  0.00  0.00    +0.000 C 
ATOM     26  C   UNL     1      44.085   4.697  10.157  0.00  0.00    +0.000 C 
ATOM     27  C   UNL     1      43.103   4.348  11.281  0.00  0.00    +0.000 C 
ATOM     28  C   UNL     1      43.368   2.951  11.847  0.00  0.00    +0.000 C 
ATOM     29  C   UNL     1      43.152   5.425  12.372  0.00  0.00    +0.000 C 
ATOM     30  C   UNL     1      44.564   5.656  12.909  0.00  0.00    +0.000 C 
ENDBRANCH  23  24
ENDBRANCH  20  23
ENDBRANCH  16  17
ENDBRANCH   3  16
TORSDOF 5
ENDMDL
MODEL 2
REMARK VINA RESULT:    -7.380      4.394      9.042
REMARK INTER + INTRA:         -10.144
REMARK INTER:                  -9.361
REMARK INTRA:                  -0.783
REMARK UNBOUND:                -0.607
REMARK  Name = 
REMARK  7 active torsions:
REMARK  status: ('A' for Active; 'I' for Inactive)
REMARK    1  A    between atoms: C_1  and  N_2
REMARK    2  A    between atoms: C_8  and  C_9
REMARK    3  A    between atoms: N_11  and  C_12
REMARK    4  A    between atoms: C_12  and  C_13
REMARK    5  A    between atoms: C_16  and  C_17
REMARK    6  A    between atoms: C_17  and  C_18
REMARK    7  A    between atoms: C_21  and  C_22
REMARK                            x       y       z     vdW  Elec       q    Type
REMARK                         _______ _______ _______ _____ _____    ______ ____
ROOT
ATOM      1  C   UNL     1      45.287   6.569  11.578  0.00  0.00    +0.000 C 
ATOM      2  O   UNL     1      44.564   7.561  11.557  0.00  0.00    +0.000 OA
ATOM      3  N   UNL     1      46.625   6.643  11.854  0.00  0.00    +0.000 N 
ATOM      4  H   UNL     1      47.201   5.810  11.840  0.00  0.00    +0.000 HD
ENDROOT
BRANCH   1  12
ATOM      5  C   UNL     1      46.286   3.575   6.837  0.00  0.00    +0.000 C 
ATOM      6  N   UNL     1      45.558   3.464   8.083  0.00  0.00    +0.000 N 
ATOM      7  C   UNL     1      44.828   2.335   8.377  0.00  0.00    +0.000 A 
ATOM      8  N   UNL     1      44.160   2.133   9.469  0.00  0.00    +0.000 NA
ATOM      9  C   UNL     1      44.220   3.156  10.359  0.00  0.00    +0.000 A 
ATOM     10  S   UNL     1      43.383   3.079  11.840  0.00  0.00    +0.000 S 
ATOM     11  C   UNL     1      43.921   4.634  12.289  0.00  0.00    +0.000 A 
ATOM     12  C   UNL     1      44.751   5.225  11.348  0.00  0.00    +0.000 A 
ATOM     13  C   UNL     1      44.913   4.342  10.216  0.00  0.00    +0.000 A 
ATOM     14  C   UNL     1      45.654   4.524   8.979  0.00  0.00    +0.000 A 
ATOM     15  O   UNL     1      46.333   5.522   8.752  0.00  0.00    +0.000 OA
ENDBRANCH   1  12
BRANCH   3  16
ATOM     16  C   UNL     1      47.311   7.891  12.082  0.00  0.00    +0.000 C 
BRANCH  16  17
ATOM     17  C   UNL     1      48.063   7.888  13.390  0.00  0.00    +0.000 A 
ATOM     18  C   UNL     1      47.743   8.819  14.375  0.00  0.00    +0.000 A 
ATOM     19  C   UNL     1      48.425   8.780  15.585  0.00  0.00    +0.000 A 
ATOM     20  C   UNL     1      49.402   7.808  15.795  0.00  0.00    +0.000 A 
ATOM     21  C   UNL     1      49.644   6.909  14.760  0.00  0.00    +0.000 A 
ATOM     22  N   UNL     1      49.003   6.927  13.570  0.00  0.00    +0.000 NA
BRANCH  20  23
ATOM     23  C   UNL     1      50.158   7.735  17.092  0.00  0.00    +0.000 C 
BRANCH  23  24
ATOM     24  C   UNL     1      49.815   6.497  17.945  0.00  0.00    +0.000 C 
ATOM     25  C   UNL     1      48.294   6.291  18.061  0.00  0.00    +0.000 C 
ATOM     26  C   UNL     1      47.947   5.004  18.806  0.00  0.00    +0.000 C 
ATOM     27  C   UNL     1      48.615   3.769  18.192  0.00  0.00    +0.000 C 
ATOM     28  C   UNL     1      48.012   3.421  16.828  0.00  0.00    +0.000 C 
ATOM     29  C   UNL     1      50.132   3.981  18.108  0.00  0.00    +0.000 C 
ATOM     30  C   UNL     1      50.507   5.257  17.355  0.00  0.00    +0.000 C 
ENDBRANCH  23  24
ENDBRANCH  20  23
ENDBRANCH  16  17
ENDBRANCH   3  16
TORSDOF 5
ENDMDL
MODEL 3
REMARK VINA RESULT:    -6.984      4.608      8.997
REMARK INTER + INTRA:          -9.632
REMARK INTER:                  -8.622
REMARK INTRA:                  -1.010
REMARK UNBOUND:                -0.607
REMARK  Name = 
REMARK  7 active torsions:
REMARK  status: ('A' for Active; 'I' for Inactive)
REMARK    1  A    between atoms: C_1  and  N_2
REMARK    2  A    between atoms: C_8  and  C_9
REMARK    3  A    between atoms: N_11  and  C_12
REMARK    4  A    between atoms: C_12  and  C_13
REMARK    5  A    between atoms: C_16  and  C_17
REMARK    6  A    between atoms: C_17  and  C_18
REMARK    7  A    between atoms: C_21  and  C_22
REMARK                            x       y       z     vdW  Elec       q    Type
REMARK                         _______ _______ _______ _____ _____    ______ ____
ROOT
ATOM      1  C   UNL     1      47.433   5.772  14.068  0.00  0.00    +0.000 C 
ATOM      2  O   UNL     1      48.618   5.959  13.807  0.00  0.00    +0.000 OA
ATOM      3  N   UNL     1      47.026   5.076  15.172  0.00  0.00    +0.000 N 
ATOM      4  H   UNL     1      46.042   4.916  15.348  0.00  0.00    +0.000 HD
ENDROOT
BRANCH   1  12
ATOM      5  C   UNL     1      43.315   2.591  11.751  0.00  0.00    +0.000 C 
ATOM      6  N   UNL     1      43.759   3.969  11.792  0.00  0.00    +0.000 N 
ATOM      7  C   UNL     1      43.075   4.953  11.115  0.00  0.00    +0.000 A 
ATOM      8  N   UNL     1      43.381   6.212  11.104  0.00  0.00    +0.000 NA
ATOM      9  C   UNL     1      44.478   6.528  11.837  0.00  0.00    +0.000 A 
ATOM     10  S   UNL     1      45.045   8.131  11.920  0.00  0.00    +0.000 S 
ATOM     11  C   UNL     1      46.349   7.677  12.923  0.00  0.00    +0.000 A 
ATOM     12  C   UNL     1      46.367   6.324  13.227  0.00  0.00    +0.000 A 
ATOM     13  C   UNL     1      45.260   5.662  12.576  0.00  0.00    +0.000 A 
ATOM     14  C   UNL     1      44.878   4.260  12.565  0.00  0.00    +0.000 A 
ATOM     15  O   UNL     1      45.477   3.402  13.210  0.00  0.00    +0.000 OA
ENDBRANCH   1  12
BRANCH   3  16
ATOM     16  C   UNL     1      47.949   4.451  16.089  0.00  0.00    +0.000 C 
BRANCH  16  17
ATOM     17  C   UNL     1      48.089   5.238  17.368  0.00  0.00    +0.000 A 
ATOM     18  C   UNL     1      49.191   6.068  17.553  0.00  0.00    +0.000 A 
ATOM     19  C   UNL     1      49.287   6.810  18.725  0.00  0.00    +0.000 A 
ATOM     20  C   UNL     1      48.278   6.720  19.682  0.00  0.00    +0.000 A 
ATOM     21  C   UNL     1      47.206   5.877  19.405  0.00  0.00    +0.000 A 
ATOM     22  N   UNL     1      47.089   5.138  18.279  0.00  0.00    +0.000 NA
BRANCH  20  23
ATOM     23  C   UNL     1      48.348   7.509  20.959  0.00  0.00    +0.000 C 
BRANCH  23  24
ATOM     24  C   UNL     1      48.178   9.029  20.763  0.00  0.00    +0.000 C 
ATOM     25  C   UNL     1      49.445   9.669  20.168  0.00  0.00    +0.000 C 
ATOM     26  C   UNL     1      49.246  11.152  19.862  0.00  0.00    +0.000 C 
ATOM     27  C   UNL     1      48.033  11.412  18.962  0.00  0.00    +0.000 C 
ATOM     28  C   UNL     1      48.273  10.908  17.536  0.00  0.00    +0.000 C 
ATOM     29  C   UNL     1      46.776  10.789  19.583  0.00  0.00    +0.000 C 
ATOM     30  C   UNL     1      46.945   9.301  19.886  0.00  0.00    +0.000 C 
ENDBRANCH  23  24
ENDBRANCH  20  23
ENDBRANCH  16  17
ENDBRANCH   3  16
TORSDOF 5
ENDMDL
MODEL 4
REMARK VINA RESULT:    -6.884      3.012      9.081
REMARK INTER + INTRA:          -9.502
REMARK INTER:                  -9.137
REMARK INTRA:                  -0.366
REMARK UNBOUND:                -0.607
REMARK  Name = 
REMARK  7 active torsions:
REMARK  status: ('A' for Active; 'I' for Inactive)
REMARK    1  A    between atoms: C_1  and  N_2
REMARK    2  A    between atoms: C_8  and  C_9
REMARK    3  A    between atoms: N_11  and  C_12
REMARK    4  A    between atoms: C_12  and  C_13
REMARK    5  A    between atoms: C_16  and  C_17
REMARK    6  A    between atoms: C_17  and  C_18
REMARK    7  A    between atoms: C_21  and  C_22
REMARK                            x       y       z     vdW  Elec       q    Type
REMARK                         _______ _______ _______ _____ _____    ______ ____
ROOT
ATOM      1  C   UNL     1      47.259   4.287  14.751  0.00  0.00    +0.000 C 
ATOM      2  O   UNL     1      47.447   3.191  14.229  0.00  0.00    +0.000 OA
ATOM      3  N   UNL     1      47.306   4.471  16.106  0.00  0.00    +0.000 N 
ATOM      4  H   UNL     1      47.122   5.381  16.510  0.00  0.00    +0.000 HD
ENDROOT
BRANCH   1  12
ATOM      5  C   UNL     1      42.551   5.044  11.637  0.00  0.00    +0.000 C 
ATOM      6  N   UNL     1      43.793   5.719  11.948  0.00  0.00    +0.000 N 
ATOM      7  C   UNL     1      44.082   6.951  11.406  0.00  0.00    +0.000 A 
ATOM      8  N   UNL     1      45.155   7.642  11.636  0.00  0.00    +0.000 NA
ATOM      9  C   UNL     1      46.030   7.050  12.487  0.00  0.00    +0.000 A 
ATOM     10  S   UNL     1      47.506   7.799  12.887  0.00  0.00    +0.000 S 
ATOM     11  C   UNL     1      47.964   6.492  13.883  0.00  0.00    +0.000 A 
ATOM     12  C   UNL     1      47.011   5.486  13.947  0.00  0.00    +0.000 A 
ATOM     13  C   UNL     1      45.880   5.830  13.116  0.00  0.00    +0.000 A 
ATOM     14  C   UNL     1      44.661   5.091  12.836  0.00  0.00    +0.000 A 
ATOM     15  O   UNL     1      44.401   4.012  13.361  0.00  0.00    +0.000 OA
ENDBRANCH   1  12
BRANCH   3  16
ATOM     16  C   UNL     1      47.519   3.389  17.037  0.00  0.00    +0.000 C 
BRANCH  16  17
ATOM     17  C   UNL     1      48.985   3.161  17.307  0.00  0.00    +0.000 A 
ATOM     18  C   UNL     1      49.677   4.027  18.150  0.00  0.00    +0.000 A 
ATOM     19  C   UNL     1      51.020   3.782  18.412  0.00  0.00    +0.000 A 
ATOM     20  C   UNL     1      51.642   2.673  17.841  0.00  0.00    +0.000 A 
ATOM     21  C   UNL     1      50.869   1.854  17.024  0.00  0.00    +0.000 A 
ATOM     22  N   UNL     1      49.564   2.070  16.745  0.00  0.00    +0.000 NA
BRANCH  20  23
ATOM     23  C   UNL     1      53.092   2.377  18.104  0.00  0.00    +0.000 C 
BRANCH  23  24
ATOM     24  C   UNL     1      53.962   3.636  18.290  0.00  0.00    +0.000 C 
ATOM     25  C   UNL     1      53.546   4.761  17.326  0.00  0.00    +0.000 C 
ATOM     26  C   UNL     1      54.325   6.049  17.581  0.00  0.00    +0.000 C 
ATOM     27  C   UNL     1      54.225   6.520  19.037  0.00  0.00    +0.000 C 
ATOM     28  C   UNL     1      52.819   7.024  19.371  0.00  0.00    +0.000 C 
ATOM     29  C   UNL     1      54.667   5.395  19.982  0.00  0.00    +0.000 C 
ATOM     30  C   UNL     1      53.894   4.097  19.756  0.00  0.00    +0.000 C 
ENDBRANCH  23  24
ENDBRANCH  20  23
ENDBRANCH  16  17
ENDBRANCH   3  16
TORSDOF 5
ENDMDL
MODEL 5
REMARK VINA RESULT:    -6.611      4.406      8.277
REMARK INTER + INTRA:          -9.150
REMARK INTER:                  -8.024
REMARK INTRA:                  -1.125
REMARK UNBOUND:                -0.607
REMARK  Name = 
REMARK  7 active torsions:
REMARK  status: ('A' for Active; 'I' for Inactive)
REMARK    1  A    between atoms: C_1  and  N_2
REMARK    2  A    between atoms: C_8  and  C_9
REMARK    3  A    between atoms: N_11  and  C_12
REMARK    4  A    between atoms: C_12  and  C_13
REMARK    5  A    between atoms: C_16  and  C_17
REMARK    6  A    between atoms: C_17  and  C_18
REMARK    7  A    between atoms: C_21  and  C_22
REMARK                            x       y       z     vdW  Elec       q    Type
REMARK                         _______ _______ _______ _____ _____    ______ ____
ROOT
ATOM      1  C   UNL     1      46.678   4.055  14.076  0.00  0.00    +0.000 C 
ATOM      2  O   UNL     1      47.529   3.281  13.648  0.00  0.00    +0.000 OA
ATOM      3  N   UNL     1      46.611   4.417  15.394  0.00  0.00    +0.000 N 
ATOM      4  H   UNL     1      45.882   5.038  15.722  0.00  0.00    +0.000 HD
ENDROOT
BRANCH   1  12
ATOM      5  C   UNL     1      46.840   9.554  12.600  0.00  0.00    +0.000 C 
ATOM      6  N   UNL     1      46.030   8.374  12.386  0.00  0.00    +0.000 N 
ATOM      7  C   UNL     1      44.907   8.423  11.591  0.00  0.00    +0.000 A 
ATOM      8  N   UNL     1      44.128   7.421  11.325  0.00  0.00    +0.000 NA
ATOM      9  C   UNL     1      44.500   6.253  11.908  0.00  0.00    +0.000 A 
ATOM     10  S   UNL     1      43.583   4.835  11.691  0.00  0.00    +0.000 S 
ATOM     11  C   UNL     1      44.631   3.936  12.693  0.00  0.00    +0.000 A 
ATOM     12  C   UNL     1      45.694   4.679  13.187  0.00  0.00    +0.000 A 
ATOM     13  C   UNL     1      45.598   6.042  12.718  0.00  0.00    +0.000 A 
ATOM     14  C   UNL     1      46.447   7.190  12.986  0.00  0.00    +0.000 A 
ATOM     15  O   UNL     1      47.469   7.119  13.664  0.00  0.00    +0.000 OA
ENDBRANCH   1  12
BRANCH   3  16
ATOM     16  C   UNL     1      47.492   3.877  16.400  0.00  0.00    +0.000 C 
BRANCH  16  17
ATOM     17  C   UNL     1      47.898   4.921  17.411  0.00  0.00    +0.000 A 
ATOM     18  C   UNL     1      49.088   5.623  17.241  0.00  0.00    +0.000 A 
ATOM     19  C   UNL     1      49.429   6.604  18.165  0.00  0.00    +0.000 A 
ATOM     20  C   UNL     1      48.573   6.873  19.232  0.00  0.00    +0.000 A 
ATOM     21  C   UNL     1      47.398   6.132  19.313  0.00  0.00    +0.000 A 
ATOM     22  N   UNL     1      47.043   5.168  18.435  0.00  0.00    +0.000 NA
BRANCH  20  23
ATOM     23  C   UNL     1      48.909   7.928  20.249  0.00  0.00    +0.000 C 
BRANCH  23  24
ATOM     24  C   UNL     1      48.819   9.368  19.706  0.00  0.00    +0.000 C 
ATOM     25  C   UNL     1      50.115   9.786  18.987  0.00  0.00    +0.000 C 
ATOM     26  C   UNL     1      49.993  11.167  18.347  0.00  0.00    +0.000 C 
ATOM     27  C   UNL     1      48.790  11.276  17.403  0.00  0.00    +0.000 C 
ATOM     28  C   UNL     1      48.995  10.445  16.133  0.00  0.00    +0.000 C 
ATOM     29  C   UNL     1      47.506  10.880  18.143  0.00  0.00    +0.000 C 
ATOM     30  C   UNL     1      47.597   9.496  18.782  0.00  0.00    +0.000 C 
ENDBRANCH  23  24
ENDBRANCH  20  23
ENDBRANCH  16  17
ENDBRANCH   3  16
TORSDOF 5
ENDMDL
MODEL 6
REMARK VINA RESULT:    -6.607      3.121      8.008
REMARK INTER + INTRA:          -9.145
REMARK INTER:                  -7.866
REMARK INTRA:                  -1.279
REMARK UNBOUND:                -0.607
REMARK  Name = 
REMARK  7 active torsions:
REMARK  status: ('A' for Active; 'I' for Inactive)
REMARK    1  A    between atoms: C_1  and  N_2
REMARK    2  A    between atoms: C_8  and  C_9
REMARK    3  A    between atoms: N_11  and  C_12
REMARK    4  A    between atoms: C_12  and  C_13
REMARK    5  A    between atoms: C_16  and  C_17
REMARK    6  A    between atoms: C_17  and  C_18
REMARK    7  A    between atoms: C_21  and  C_22
REMARK                            x       y       z     vdW  Elec       q    Type
REMARK                         _______ _______ _______ _____ _____    ______ ____
ROOT
ATOM      1  C   UNL     1      46.996   3.969  14.797  0.00  0.00    +0.000 C 
ATOM      2  O   UNL     1      47.485   2.921  14.384  0.00  0.00    +0.000 OA
ATOM      3  N   UNL     1      46.923   4.269  16.129  0.00  0.00    +0.000 N 
ATOM      4  H   UNL     1      46.492   5.131  16.441  0.00  0.00    +0.000 HD
ENDROOT
BRANCH   1  12
ATOM      5  C   UNL     1      49.730   8.857  13.758  0.00  0.00    +0.000 C 
ATOM      6  N   UNL     1      48.510   8.171  13.388  0.00  0.00    +0.000 N 
ATOM      7  C   UNL     1      47.617   8.740  12.508  0.00  0.00    +0.000 A 
ATOM      8  N   UNL     1      46.511   8.200  12.103  0.00  0.00    +0.000 NA
ATOM      9  C   UNL     1      46.263   6.972  12.625  0.00  0.00    +0.000 A 
ATOM     10  S   UNL     1      44.844   6.121  12.226  0.00  0.00    +0.000 S 
ATOM     11  C   UNL     1      45.272   4.819  13.242  0.00  0.00    +0.000 A 
ATOM     12  C   UNL     1      46.492   4.993  13.878  0.00  0.00    +0.000 A 
ATOM     13  C   UNL     1      47.060   6.268  13.506  0.00  0.00    +0.000 A 
ATOM     14  C   UNL     1      48.294   6.908  13.930  0.00  0.00    +0.000 A 
ATOM     15  O   UNL     1      49.099   6.367  14.685  0.00  0.00    +0.000 OA
ENDBRANCH   1  12
BRANCH   3  16
ATOM     16  C   UNL     1      47.356   3.360  17.163  0.00  0.00    +0.000 C 
BRANCH  16  17
ATOM     17  C   UNL     1      48.783   3.619  17.578  0.00  0.00    +0.000 A 
ATOM     18  C   UNL     1      49.063   4.618  18.506  0.00  0.00    +0.000 A 
ATOM     19  C   UNL     1      50.381   4.821  18.900  0.00  0.00    +0.000 A 
ATOM     20  C   UNL     1      51.390   4.017  18.371  0.00  0.00    +0.000 A 
ATOM     21  C   UNL     1      51.015   3.035  17.460  0.00  0.00    +0.000 A 
ATOM     22  N   UNL     1      49.744   2.818  17.053  0.00  0.00    +0.000 NA
BRANCH  20  23
ATOM     23  C   UNL     1      52.825   4.208  18.776  0.00  0.00    +0.000 C 
BRANCH  23  24
ATOM     24  C   UNL     1      53.482   5.465  18.173  0.00  0.00    +0.000 C 
ATOM     25  C   UNL     1      52.903   5.798  16.785  0.00  0.00    +0.000 C 
ATOM     26  C   UNL     1      53.464   7.106  16.232  0.00  0.00    +0.000 C 
ATOM     27  C   UNL     1      53.274   8.284  17.194  0.00  0.00    +0.000 C 
ATOM     28  C   UNL     1      51.801   8.688  17.306  0.00  0.00    +0.000 C 
ATOM     29  C   UNL     1      53.878   7.945  18.563  0.00  0.00    +0.000 C 
ATOM     30  C   UNL     1      53.324   6.646  19.146  0.00  0.00    +0.000 C 
ENDBRANCH  23  24
ENDBRANCH  20  23
ENDBRANCH  16  17
ENDBRANCH   3  16
TORSDOF 5
ENDMDL
MODEL 7
REMARK VINA RESULT:    -6.573      3.209      4.815
REMARK INTER + INTRA:          -9.100
REMARK INTER:                  -8.007
REMARK INTRA:                  -1.094
REMARK UNBOUND:                -0.607
REMARK  Name = 
REMARK  7 active torsions:
REMARK  status: ('A' for Active; 'I' for Inactive)
REMARK    1  A    between atoms: C_1  and  N_2
REMARK    2  A    between atoms: C_8  and  C_9
REMARK    3  A    between atoms: N_11  and  C_12
REMARK    4  A    between atoms: C_12  and  C_13
REMARK    5  A    between atoms: C_16  and  C_17
REMARK    6  A    between atoms: C_17  and  C_18
REMARK    7  A    between atoms: C_21  and  C_22
REMARK                            x       y       z     vdW  Elec       q    Type
REMARK                         _______ _______ _______ _____ _____    ______ ____
ROOT
ATOM      1  C   UNL     1      49.086   8.368  16.693  0.00  0.00    +0.000 C 
ATOM      2  O   UNL     1      48.587   9.484  16.804  0.00  0.00    +0.000 OA
ATOM      3  N   UNL     1      49.626   7.919  15.519  0.00  0.00    +0.000 N 
ATOM      4  H   UNL     1      50.009   6.984  15.451  0.00  0.00    +0.000 HD
ENDROOT
BRANCH   1  12
ATOM      5  C   UNL     1      47.942   2.800  16.324  0.00  0.00    +0.000 C 
ATOM      6  N   UNL     1      48.333   3.787  17.309  0.00  0.00    +0.000 N 
ATOM      7  C   UNL     1      48.544   3.431  18.621  0.00  0.00    +0.000 A 
ATOM      8  N   UNL     1      48.912   4.234  19.570  0.00  0.00    +0.000 NA
ATOM      9  C   UNL     1      49.086   5.522  19.178  0.00  0.00    +0.000 A 
ATOM     10  S   UNL     1      49.543   6.723  20.293  0.00  0.00    +0.000 S 
ATOM     11  C   UNL     1      49.508   7.933  19.091  0.00  0.00    +0.000 A 
ATOM     12  C   UNL     1      49.173   7.451  17.833  0.00  0.00    +0.000 A 
ATOM     13  C   UNL     1      48.924   6.030  17.904  0.00  0.00    +0.000 A 
ATOM     14  C   UNL     1      48.517   5.095  16.869  0.00  0.00    +0.000 A 
ATOM     15  O   UNL     1      48.374   5.422  15.694  0.00  0.00    +0.000 OA
ENDBRANCH   1  12
BRANCH   3  16
ATOM     16  C   UNL     1      49.601   8.690  14.300  0.00  0.00    +0.000 C 
BRANCH  16  17
ATOM     17  C   UNL     1      48.370   8.401  13.477  0.00  0.00    +0.000 A 
ATOM     18  C   UNL     1      48.431   7.471  12.443  0.00  0.00    +0.000 A 
ATOM     19  C   UNL     1      47.278   7.195  11.717  0.00  0.00    +0.000 A 
ATOM     20  C   UNL     1      46.086   7.841  12.044  0.00  0.00    +0.000 A 
ATOM     21  C   UNL     1      46.117   8.744  13.102  0.00  0.00    +0.000 A 
ATOM     22  N   UNL     1      47.223   9.038  13.821  0.00  0.00    +0.000 NA
BRANCH  20  23
ATOM     23  C   UNL     1      44.821   7.565  11.281  0.00  0.00    +0.000 C 
BRANCH  23  24
ATOM     24  C   UNL     1      44.313   6.116  11.419  0.00  0.00    +0.000 C 
ATOM     25  C   UNL     1      45.190   5.130  10.627  0.00  0.00    +0.000 C 
ATOM     26  C   UNL     1      44.764   3.680  10.851  0.00  0.00    +0.000 C 
ATOM     27  C   UNL     1      44.725   3.299  12.335  0.00  0.00    +0.000 C 
ATOM     28  C   UNL     1      46.132   3.226  12.934  0.00  0.00    +0.000 C 
ATOM     29  C   UNL     1      43.828   4.277  13.103  0.00  0.00    +0.000 C 
ATOM     30  C   UNL     1      44.240   5.735  12.907  0.00  0.00    +0.000 C 
ENDBRANCH  23  24
ENDBRANCH  20  23
ENDBRANCH  16  17
ENDBRANCH   3  16
TORSDOF 5
ENDMDL
MODEL 8
REMARK VINA RESULT:    -6.504      2.366      3.551
REMARK INTER + INTRA:          -9.012
REMARK INTER:                  -7.991
REMARK INTRA:                  -1.021
REMARK UNBOUND:                -0.607
REMARK  Name = 
REMARK  7 active torsions:
REMARK  status: ('A' for Active; 'I' for Inactive)
REMARK    1  A    between atoms: C_1  and  N_2
REMARK    2  A    between atoms: C_8  and  C_9
REMARK    3  A    between atoms: N_11  and  C_12
REMARK    4  A    between atoms: C_12  and  C_13
REMARK    5  A    between atoms: C_16  and  C_17
REMARK    6  A    between atoms: C_17  and  C_18
REMARK    7  A    between atoms: C_21  and  C_22
REMARK                            x       y       z     vdW  Elec       q    Type
REMARK                         _______ _______ _______ _____ _____    ______ ____
ROOT
ATOM      1  C   UNL     1      49.280   6.894  16.307  0.00  0.00    +0.000 C 
ATOM      2  O   UNL     1      48.652   7.760  16.910  0.00  0.00    +0.000 OA
ATOM      3  N   UNL     1      49.698   7.057  15.015  0.00  0.00    +0.000 N 
ATOM      4  H   UNL     1      50.192   6.315  14.535  0.00  0.00    +0.000 HD
ENDROOT
BRANCH   1  12
ATOM      5  C   UNL     1      54.688   5.345  17.200  0.00  0.00    +0.000 C 
ATOM      6  N   UNL     1      53.345   4.844  17.402  0.00  0.00    +0.000 N 
ATOM      7  C   UNL     1      53.130   3.620  17.994  0.00  0.00    +0.000 A 
ATOM      8  N   UNL     1      51.970   3.093  18.235  0.00  0.00    +0.000 NA
ATOM      9  C   UNL     1      50.917   3.857  17.847  0.00  0.00    +0.000 A 
ATOM     10  S   UNL     1      49.317   3.317  18.060  0.00  0.00    +0.000 S 
ATOM     11  C   UNL     1      48.684   4.729  17.343  0.00  0.00    +0.000 A 
ATOM     12  C   UNL     1      49.660   5.635  16.953  0.00  0.00    +0.000 A 
ATOM     13  C   UNL     1      50.969   5.103  17.253  0.00  0.00    +0.000 A 
ATOM     14  C   UNL     1      52.289   5.659  17.007  0.00  0.00    +0.000 A 
ATOM     15  O   UNL     1      52.462   6.771  16.516  0.00  0.00    +0.000 OA
ENDBRANCH   1  12
BRANCH   3  16
ATOM     16  C   UNL     1      49.388   8.228  14.232  0.00  0.00    +0.000 C 
BRANCH  16  17
ATOM     17  C   UNL     1      48.119   8.052  13.435  0.00  0.00    +0.000 A 
ATOM     18  C   UNL     1      48.042   7.050  12.471  0.00  0.00    +0.000 A 
ATOM     19  C   UNL     1      46.854   6.882  11.768  0.00  0.00    +0.000 A 
ATOM     20  C   UNL     1      45.765   7.706  12.049  0.00  0.00    +0.000 A 
ATOM     21  C   UNL     1      45.929   8.669  13.039  0.00  0.00    +0.000 A 
ATOM     22  N   UNL     1      47.073   8.861  13.734  0.00  0.00    +0.000 NA
BRANCH  20  23
ATOM     23  C   UNL     1      44.465   7.550  11.311  0.00  0.00    +0.000 C 
BRANCH  23  24
ATOM     24  C   UNL     1      43.847   6.142  11.424  0.00  0.00    +0.000 C 
ATOM     25  C   UNL     1      44.557   5.136  10.499  0.00  0.00    +0.000 C 
ATOM     26  C   UNL     1      44.029   3.716  10.690  0.00  0.00    +0.000 C 
ATOM     27  C   UNL     1      44.097   3.251  12.149  0.00  0.00    +0.000 C 
ATOM     28  C   UNL     1      45.543   3.028  12.602  0.00  0.00    +0.000 C 
ATOM     29  C   UNL     1      43.364   4.252  13.051  0.00  0.00    +0.000 C 
ATOM     30  C   UNL     1      43.882   5.680  12.890  0.00  0.00    +0.000 C 
ENDBRANCH  23  24
ENDBRANCH  20  23
ENDBRANCH  16  17
ENDBRANCH   3  16
TORSDOF 5
ENDMDL
MODEL 9
REMARK VINA RESULT:    -5.838     11.640     13.926
REMARK INTER + INTRA:          -8.151
REMARK INTER:                  -7.222
REMARK INTRA:                  -0.929
REMARK UNBOUND:                -0.607
REMARK  Name = 
REMARK  7 active torsions:
REMARK  status: ('A' for Active; 'I' for Inactive)
REMARK    1  A    between atoms: C_1  and  N_2
REMARK    2  A    between atoms: C_8  and  C_9
REMARK    3  A    between atoms: N_11  and  C_12
REMARK    4  A    between atoms: C_12  and  C_13
REMARK    5  A    between atoms: C_16  and  C_17
REMARK    6  A    between atoms: C_17  and  C_18
REMARK    7  A    between atoms: C_21  and  C_22
REMARK                            x       y       z     vdW  Elec       q    Type
REMARK                         _______ _______ _______ _____ _____    ______ ____
ROOT
ATOM      1  C   UNL     1      40.180  -2.523  11.499  0.00  0.00    +0.000 C 
ATOM      2  O   UNL     1      41.146  -1.771  11.402  0.00  0.00    +0.000 OA
ATOM      3  N   UNL     1      39.893  -3.203  12.650  0.00  0.00    +0.000 N 
ATOM      4  H   UNL     1      39.104  -3.836  12.693  0.00  0.00    +0.000 HD
ENDROOT
BRANCH   1  12
ATOM      5  C   UNL     1      35.982   1.134  10.298  0.00  0.00    +0.000 C 
ATOM      6  N   UNL     1      36.521  -0.125   9.829  0.00  0.00    +0.000 N 
ATOM      7  C   UNL     1      35.963  -0.776   8.752  0.00  0.00    +0.000 A 
ATOM      8  N   UNL     1      36.382  -1.894   8.247  0.00  0.00    +0.000 NA
ATOM      9  C   UNL     1      37.465  -2.420   8.875  0.00  0.00    +0.000 A 
ATOM     10  S   UNL     1      38.140  -3.898   8.366  0.00  0.00    +0.000 S 
ATOM     11  C   UNL     1      39.322  -3.845   9.594  0.00  0.00    +0.000 A 
ATOM     12  C   UNL     1      39.242  -2.712  10.389  0.00  0.00    +0.000 A 
ATOM     13  C   UNL     1      38.140  -1.886   9.954  0.00  0.00    +0.000 A 
ATOM     14  C   UNL     1      37.640  -0.629  10.485  0.00  0.00    +0.000 A 
ATOM     15  O   UNL     1      38.177  -0.041  11.420  0.00  0.00    +0.000 OA
ENDBRANCH   1  12
BRANCH   3  16
ATOM     16  C   UNL     1      40.727  -3.143  13.826  0.00  0.00    +0.000 C 
BRANCH  16  17
ATOM     17  C   UNL     1      40.066  -2.378  14.946  0.00  0.00    +0.000 A 
ATOM     18  C   UNL     1      40.655  -2.352  16.207  0.00  0.00    +0.000 A 
ATOM     19  C   UNL     1      40.048  -1.616  17.218  0.00  0.00    +0.000 A 
ATOM     20  C   UNL     1      38.876  -0.911  16.949  0.00  0.00    +0.000 A 
ATOM     21  C   UNL     1      38.368  -0.982  15.655  0.00  0.00    +0.000 A 
ATOM     22  N   UNL     1      38.931  -1.695  14.654  0.00  0.00    +0.000 NA
BRANCH  20  23
ATOM     23  C   UNL     1      38.194  -0.103  18.017  0.00  0.00    +0.000 C 
BRANCH  23  24
ATOM     24  C   UNL     1      38.672   1.361  18.093  0.00  0.00    +0.000 C 
ATOM     25  C   UNL     1      37.845   2.277  17.173  0.00  0.00    +0.000 C 
ATOM     26  C   UNL     1      38.235   3.745  17.328  0.00  0.00    +0.000 C 
ATOM     27  C   UNL     1      38.157   4.226  18.782  0.00  0.00    +0.000 C 
ATOM     28  C   UNL     1      36.708   4.314  19.269  0.00  0.00    +0.000 C 
ATOM     29  C   UNL     1      39.007   3.317  19.680  0.00  0.00    +0.000 C 
ATOM     30  C   UNL     1      38.628   1.842  19.553  0.00  0.00    +0.000 C 
ENDBRANCH  23  24
ENDBRANCH  20  23
ENDBRANCH  16  17
ENDBRANCH   3  16
TORSDOF 5
ENDMDL
