MODEL 1
REMARK VINA RESULT:    -8.409      0.000      0.000
REMARK INTER + INTRA:         -12.778
REMARK INTER:                 -11.850
REMARK INTRA:                  -0.928
REMARK UNBOUND:                -0.928
REMARK  Name = 
REMARK  7 active torsions:
REMARK  status: ('A' for Active; 'I' for Inactive)
REMARK    1  A    between atoms: C_2  and  C_3
REMARK    2  A    between atoms: C_3  and  C_4
REMARK    3  A    between atoms: C_3  and  C_25
REMARK    4  A    between atoms: C_4  and  C_5
REMARK    5  A    between atoms: C_8  and  C_9
REMARK    6  A    between atoms: C_9  and  N_10
REMARK    7  A    between atoms: C_11  and  C_13
REMARK                            x       y       z     vdW  Elec       q    Type
REMARK                         _______ _______ _______ _____ _____    ______ ____
ROOT
ATOM      1  C   UNL     1      44.736   5.760  10.973  0.00  0.00    +0.000 A 
ATOM      2  C   UNL     1      46.054   6.000  10.591  0.00  0.00    +0.000 A 
ATOM      3  C   UNL     1      46.860   6.789  11.405  0.00  0.00    +0.000 A 
ATOM      4  C   UNL     1      46.328   7.353  12.564  0.00  0.00    +0.000 A 
ATOM      5  C   UNL     1      45.011   7.036  12.879  0.00  0.00    +0.000 A 
ATOM      6  N   UNL     1      44.211   6.247  12.119  0.00  0.00    +0.000 NA
ENDROOT
BRANCH   1   7
ATOM      7  C   UNL     1      43.836   4.908  10.112  0.00  0.00    +0.000 C 
BRANCH   7   8
ATOM      8  C   UNL     1      44.177   3.409  10.186  0.00  0.00    +0.000 C 
BRANCH   8   9
ATOM      9  C   UNL     1      45.116   3.007   9.063  0.00  0.00    +0.000 A 
ATOM     10  C   UNL     1      45.383   3.884   8.013  0.00  0.00    +0.000 A 
ATOM     11  C   UNL     1      46.168   3.442   6.949  0.00  0.00    +0.000 A 
ATOM     12  C   UNL     1      46.661   2.143   6.952  0.00  0.00    +0.000 A 
ATOM     13  C   UNL     1      46.355   1.333   8.030  0.00  0.00    +0.000 A 
ATOM     14  N   UNL     1      45.598   1.734   9.074  0.00  0.00    +0.000 NA
ENDBRANCH   8   9
BRANCH   8  16
ATOM     15  N   UNL     1      45.435   2.860  12.606  0.00  0.00    +0.000 NA
ATOM     16  C   UNL     1      44.864   3.109  11.509  0.00  0.00    +0.000 C 
ENDBRANCH   8  16
ENDBRANCH   7   8
ENDBRANCH   1   7
BRANCH   4  17
ATOM     17  C   UNL     1      47.150   8.243  13.446  0.00  0.00    +0.000 C 
BRANCH  17  18
ATOM     18  N   UNL     1      47.574   7.558  14.640  0.00  0.00    +0.000 N 
ATOM     19  C   UNL     1      48.783   6.910  14.689  0.00  0.00    +0.000 C 
ATOM     20  O   UNL     1      49.577   6.946  13.752  0.00  0.00    +0.000 OA
ATOM     21  H   UNL     1      46.855   7.312  15.314  0.00  0.00    +0.000 HD
BRANCH  19  22
ATOM     22  C   UNL     1      49.108   6.218  15.942  0.00  0.00    +0.000 A 
ATOM     23  C   UNL     1      50.179   6.653  16.711  0.00  0.00    +0.000 A 
ATOM     24  S   UNL     1      50.399   5.758  18.147  0.00  0.00    +0.000 S 
ATOM     25  C   UNL     1      49.097   4.729  17.768  0.00  0.00    +0.000 A 
ATOM     26  N   UNL     1      48.757   3.698  18.589  0.00  0.00    +0.000 NA
ATOM     27  C   UNL     1      47.766   2.986  18.169  0.00  0.00    +0.000 A 
ATOM     28  N   UNL     1      47.078   3.213  17.005  0.00  0.00    +0.000 N 
ATOM     29  C   UNL     1      47.367   4.258  16.161  0.00  0.00    +0.000 A 
ATOM     30  O   UNL     1      46.703   4.468  15.149  0.00  0.00    +0.000 OA
ATOM     31  C   UNL     1      48.486   5.080  16.578  0.00  0.00    +0.000 A 
ATOM     32  H   UNL     1      46.301   2.626  16.739  0.00  0.00    +0.000 HD
ENDBRANCH  19  22
ENDBRANCH  17  18
ENDBRANCH   4  17
TORSDOF 7
ENDMDL
MODEL 2
REMARK VINA RESULT:    -7.759      2.830      3.644
REMARK INTER + INTRA:         -11.862
REMARK INTER:                 -10.680
REMARK INTRA:                  -1.182
REMARK UNBOUND:                -0.928
REMARK  Name = 
REMARK  7 active torsions:
REMARK  status: ('A' for Active; 'I' for Inactive)
REMARK    1  A    between atoms: C_2  and  C_3
REMARK    2  A    between atoms: C_3  and  C_4
REMARK    3  A    between atoms: C_3  and  C_25
REMARK    4  A    between atoms: C_4  and  C_5
REMARK    5  A    between atoms: C_8  and  C_9
REMARK    6  A    between atoms: C_9  and  N_10
REMARK    7  A    between atoms: C_11  and  C_13
REMARK                            x       y       z     vdW  Elec       q    Type
REMARK                         _______ _______ _______ _____ _____    ______ ____
ROOT
ATOM      1  C   UNL     1      46.413   4.782  13.664  0.00  0.00    +0.000 A 
ATOM      2  C   UNL     1      47.101   5.894  13.181  0.00  0.00    +0.000 A 
ATOM      3  C   UNL     1      48.055   6.501  13.990  0.00  0.00    +0.000 A 
ATOM      4  C   UNL     1      48.282   6.012  15.276  0.00  0.00    +0.000 A 
ATOM      5  C   UNL     1      47.569   4.881  15.661  0.00  0.00    +0.000 A 
ATOM      6  N   UNL     1      46.654   4.252  14.883  0.00  0.00    +0.000 NA
ENDROOT
BRANCH   1   7
ATOM      7  C   UNL     1      45.372   4.100  12.811  0.00  0.00    +0.000 C 
BRANCH   7   8
ATOM      8  C   UNL     1      44.948   4.941  11.593  0.00  0.00    +0.000 C 
BRANCH   8   9
ATOM      9  C   UNL     1      45.151   4.171  10.300  0.00  0.00    +0.000 A 
ATOM     10  C   UNL     1      45.618   4.815   9.156  0.00  0.00    +0.000 A 
ATOM     11  C   UNL     1      45.693   4.098   7.963  0.00  0.00    +0.000 A 
ATOM     12  C   UNL     1      45.299   2.766   7.935  0.00  0.00    +0.000 A 
ATOM     13  C   UNL     1      44.849   2.197   9.112  0.00  0.00    +0.000 A 
ATOM     14  N   UNL     1      44.766   2.866  10.281  0.00  0.00    +0.000 NA
ENDBRANCH   8   9
BRANCH   8  16
ATOM     15  N   UNL     1      42.251   5.588  11.804  0.00  0.00    +0.000 NA
ATOM     16  C   UNL     1      43.474   5.294  11.709  0.00  0.00    +0.000 C 
ENDBRANCH   8  16
ENDBRANCH   7   8
ENDBRANCH   1   7
BRANCH   4  17
ATOM     17  C   UNL     1      49.271   6.662  16.195  0.00  0.00    +0.000 C 
BRANCH  17  18
ATOM     18  N   UNL     1      50.278   5.730  16.633  0.00  0.00    +0.000 N 
ATOM     19  C   UNL     1      50.465   5.470  17.968  0.00  0.00    +0.000 C 
ATOM     20  O   UNL     1      49.742   5.961  18.832  0.00  0.00    +0.000 OA
ATOM     21  H   UNL     1      51.024   5.511  15.979  0.00  0.00    +0.000 HD
BRANCH  19  22
ATOM     22  C   UNL     1      51.536   4.527  18.310  0.00  0.00    +0.000 A 
ATOM     23  C   UNL     1      52.629   4.964  19.047  0.00  0.00    +0.000 A 
ATOM     24  S   UNL     1      53.764   3.735  19.381  0.00  0.00    +0.000 S 
ATOM     25  C   UNL     1      52.856   2.586  18.513  0.00  0.00    +0.000 A 
ATOM     26  N   UNL     1      53.293   1.304  18.380  0.00  0.00    +0.000 NA
ATOM     27  C   UNL     1      52.518   0.547  17.679  0.00  0.00    +0.000 A 
ATOM     28  N   UNL     1      51.341   0.952  17.103  0.00  0.00    +0.000 N 
ATOM     29  C   UNL     1      50.847   2.227  17.236  0.00  0.00    +0.000 A 
ATOM     30  O   UNL     1      49.766   2.550  16.751  0.00  0.00    +0.000 OA
ATOM     31  C   UNL     1      51.690   3.124  18.000  0.00  0.00    +0.000 A 
ATOM     32  H   UNL     1      50.772   0.304  16.577  0.00  0.00    +0.000 HD
ENDBRANCH  19  22
ENDBRANCH  17  18
ENDBRANCH   4  17
TORSDOF 7
ENDMDL
MODEL 3
REMARK VINA RESULT:    -6.948      2.829      8.159
REMARK INTER + INTRA:         -10.719
REMARK INTER:                  -9.469
REMARK INTRA:                  -1.250
REMARK UNBOUND:                -0.928
REMARK  Name = 
REMARK  7 active torsions:
REMARK  status: ('A' for Active; 'I' for Inactive)
REMARK    1  A    between atoms: C_2  and  C_3
REMARK    2  A    between atoms: C_3  and  C_4
REMARK    3  A    between atoms: C_3  and  C_25
REMARK    4  A    between atoms: C_4  and  C_5
REMARK    5  A    between atoms: C_8  and  C_9
REMARK    6  A    between atoms: C_9  and  N_10
REMARK    7  A    between atoms: C_11  and  C_13
REMARK                            x       y       z     vdW  Elec       q    Type
REMARK                         _______ _______ _______ _____ _____    ______ ____
ROOT
ATOM      1  C   UNL     1      49.474   7.642  15.747  0.00  0.00    +0.000 A 
ATOM      2  C   UNL     1      48.516   8.644  15.599  0.00  0.00    +0.000 A 
ATOM      3  C   UNL     1      47.779   8.704  14.421  0.00  0.00    +0.000 A 
ATOM      4  C   UNL     1      48.034   7.790  13.399  0.00  0.00    +0.000 A 
ATOM      5  C   UNL     1      48.990   6.809  13.647  0.00  0.00    +0.000 A 
ATOM      6  N   UNL     1      49.702   6.709  14.796  0.00  0.00    +0.000 NA
ENDROOT
BRANCH   1   7
ATOM      7  C   UNL     1      50.289   7.550  17.013  0.00  0.00    +0.000 C 
BRANCH   7   8
ATOM      8  C   UNL     1      49.508   6.935  18.188  0.00  0.00    +0.000 C 
BRANCH   8   9
ATOM      9  C   UNL     1      49.102   5.504  17.884  0.00  0.00    +0.000 A 
ATOM     10  C   UNL     1      50.065   4.504  17.760  0.00  0.00    +0.000 A 
ATOM     11  C   UNL     1      49.663   3.225  17.379  0.00  0.00    +0.000 A 
ATOM     12  C   UNL     1      48.320   2.973  17.127  0.00  0.00    +0.000 A 
ATOM     13  C   UNL     1      47.425   4.015  17.274  0.00  0.00    +0.000 A 
ATOM     14  N   UNL     1      47.785   5.263  17.642  0.00  0.00    +0.000 NA
ENDBRANCH   8   9
BRANCH   8  16
ATOM     15  N   UNL     1      51.110   6.918  20.461  0.00  0.00    +0.000 NA
ATOM     16  C   UNL     1      50.383   6.927  19.430  0.00  0.00    +0.000 C 
ENDBRANCH   8  16
ENDBRANCH   7   8
ENDBRANCH   1   7
BRANCH   4  17
ATOM     17  C   UNL     1      47.293   7.846  12.098  0.00  0.00    +0.000 C 
BRANCH  17  18
ATOM     18  N   UNL     1      46.664   6.586  11.793  0.00  0.00    +0.000 N 
ATOM     19  C   UNL     1      45.300   6.490  11.674  0.00  0.00    +0.000 C 
ATOM     20  O   UNL     1      44.570   7.476  11.751  0.00  0.00    +0.000 OA
ATOM     21  H   UNL     1      47.205   5.744  11.966  0.00  0.00    +0.000 HD
BRANCH  19  22
ATOM     22  C   UNL     1      44.758   5.156  11.390  0.00  0.00    +0.000 A 
ATOM     23  C   UNL     1      43.991   4.505  12.347  0.00  0.00    +0.000 A 
ATOM     24  S   UNL     1      43.418   2.980  11.844  0.00  0.00    +0.000 S 
ATOM     25  C   UNL     1      44.212   3.116  10.345  0.00  0.00    +0.000 A 
ATOM     26  N   UNL     1      44.153   2.113   9.427  0.00  0.00    +0.000 NA
ATOM     27  C   UNL     1      44.819   2.340   8.345  0.00  0.00    +0.000 A 
ATOM     28  N   UNL     1      45.536   3.481   8.093  0.00  0.00    +0.000 N 
ATOM     29  C   UNL     1      45.600   4.530   8.977  0.00  0.00    +0.000 A 
ATOM     30  O   UNL     1      46.209   5.562   8.706  0.00  0.00    +0.000 OA
ATOM     31  C   UNL     1      44.882   4.319  10.219  0.00  0.00    +0.000 A 
ATOM     32  H   UNL     1      46.025   3.603   7.218  0.00  0.00    +0.000 HD
ENDBRANCH  19  22
ENDBRANCH  17  18
ENDBRANCH   4  17
TORSDOF 7
ENDMDL
MODEL 4
REMARK VINA RESULT:    -6.849      1.856      2.809
REMARK INTER + INTRA:         -10.579
REMARK INTER:                 -10.123
REMARK INTRA:                  -0.456
REMARK UNBOUND:                -0.928
REMARK  Name = 
REMARK  7 active torsions:
REMARK  status: ('A' for Active; 'I' for Inactive)
REMARK    1  A    between atoms: C_2  and  C_3
REMARK    2  A    between atoms: C_3  and  C_4
REMARK    3  A    between atoms: C_3  and  C_25
REMARK    4  A    between atoms: C_4  and  C_5
REMARK    5  A    between atoms: C_8  and  C_9
REMARK    6  A    between atoms: C_9  and  N_10
REMARK    7  A    between atoms: C_11  and  C_13
REMARK                            x       y       z     vdW  Elec       q    Type
REMARK                         _______ _______ _______ _____ _____    ______ ____
ROOT
ATOM      1  C   UNL     1      44.817   5.841  10.915  0.00  0.00    +0.000 A 
ATOM      2  C   UNL     1      44.260   6.413  12.057  0.00  0.00    +0.000 A 
ATOM      3  C   UNL     1      45.085   7.109  12.934  0.00  0.00    +0.000 A 
ATOM      4  C   UNL     1      46.453   7.191  12.676  0.00  0.00    +0.000 A 
ATOM      5  C   UNL     1      46.914   6.614  11.498  0.00  0.00    +0.000 A 
ATOM      6  N   UNL     1      46.128   5.954  10.611  0.00  0.00    +0.000 NA
ENDROOT
BRANCH   1   7
ATOM      7  C   UNL     1      43.949   5.080   9.943  0.00  0.00    +0.000 C 
BRANCH   7   8
ATOM      8  C   UNL     1      44.173   3.558  10.001  0.00  0.00    +0.000 C 
BRANCH   8   9
ATOM      9  C   UNL     1      45.097   3.100   8.886  0.00  0.00    +0.000 A 
ATOM     10  C   UNL     1      45.583   1.794   8.859  0.00  0.00    +0.000 A 
ATOM     11  C   UNL     1      46.509   1.441   7.878  0.00  0.00    +0.000 A 
ATOM     12  C   UNL     1      46.932   2.391   6.957  0.00  0.00    +0.000 A 
ATOM     13  C   UNL     1      46.402   3.665   7.048  0.00  0.00    +0.000 A 
ATOM     14  N   UNL     1      45.504   4.035   7.985  0.00  0.00    +0.000 NA
ENDBRANCH   8   9
BRANCH   8  16
ATOM     15  N   UNL     1      45.347   2.885  12.431  0.00  0.00    +0.000 NA
ATOM     16  C   UNL     1      44.814   3.190  11.329  0.00  0.00    +0.000 C 
ENDBRANCH   8  16
ENDBRANCH   7   8
ENDBRANCH   1   7
BRANCH   4  17
ATOM     17  C   UNL     1      47.383   7.896  13.617  0.00  0.00    +0.000 C 
BRANCH  17  18
ATOM     18  N   UNL     1      48.080   6.966  14.467  0.00  0.00    +0.000 N 
ATOM     19  C   UNL     1      48.653   7.380  15.644  0.00  0.00    +0.000 C 
ATOM     20  O   UNL     1      48.534   8.532  16.053  0.00  0.00    +0.000 OA
ATOM     21  H   UNL     1      48.394   6.097  14.045  0.00  0.00    +0.000 HD
BRANCH  19  22
ATOM     22  C   UNL     1      49.365   6.360  16.422  0.00  0.00    +0.000 A 
ATOM     23  C   UNL     1      48.646   5.422  17.151  0.00  0.00    +0.000 A 
ATOM     24  S   UNL     1      49.627   4.295  17.973  0.00  0.00    +0.000 S 
ATOM     25  C   UNL     1      51.049   5.048  17.420  0.00  0.00    +0.000 A 
ATOM     26  N   UNL     1      52.275   4.587  17.790  0.00  0.00    +0.000 NA
ATOM     27  C   UNL     1      53.265   5.266  17.316  0.00  0.00    +0.000 A 
ATOM     28  N   UNL     1      53.143   6.362  16.500  0.00  0.00    +0.000 N 
ATOM     29  C   UNL     1      51.928   6.844  16.079  0.00  0.00    +0.000 A 
ATOM     30  O   UNL     1      51.848   7.797  15.308  0.00  0.00    +0.000 OA
ATOM     31  C   UNL     1      50.780   6.127  16.598  0.00  0.00    +0.000 A 
ATOM     32  H   UNL     1      53.960   6.842  16.151  0.00  0.00    +0.000 HD
ENDBRANCH  19  22
ENDBRANCH  17  18
ENDBRANCH   4  17
TORSDOF 7
ENDMDL
MODEL 5
REMARK VINA RESULT:    -6.826      2.821      3.203
REMARK INTER + INTRA:         -10.547
REMARK INTER:                  -9.447
REMARK INTRA:                  -1.099
REMARK UNBOUND:                -0.928
REMARK  Name = 
REMARK  7 active torsions:
REMARK  status: ('A' for Active; 'I' for Inactive)
REMARK    1  A    between atoms: C_2  and  C_3
REMARK    2  A    between atoms: C_3  and  C_4
REMARK    3  A    between atoms: C_3  and  C_25
REMARK    4  A    between atoms: C_4  and  C_5
REMARK    5  A    between atoms: C_8  and  C_9
REMARK    6  A    between atoms: C_9  and  N_10
REMARK    7  A    between atoms: C_11  and  C_13
REMARK                            x       y       z     vdW  Elec       q    Type
REMARK                         _______ _______ _______ _____ _____    ______ ____
ROOT
ATOM      1  C   UNL     1      46.337   5.240  12.514  0.00  0.00    +0.000 A 
ATOM      2  C   UNL     1      45.669   6.391  12.100  0.00  0.00    +0.000 A 
ATOM      3  C   UNL     1      46.124   7.630  12.537  0.00  0.00    +0.000 A 
ATOM      4  C   UNL     1      47.213   7.698  13.406  0.00  0.00    +0.000 A 
ATOM      5  C   UNL     1      47.834   6.500  13.742  0.00  0.00    +0.000 A 
ATOM      6  N   UNL     1      47.429   5.281  13.308  0.00  0.00    +0.000 NA
ENDROOT
BRANCH   1   7
ATOM      7  C   UNL     1      45.869   3.881  12.056  0.00  0.00    +0.000 C 
BRANCH   7   8
ATOM      8  C   UNL     1      44.759   3.954  10.993  0.00  0.00    +0.000 C 
BRANCH   8   9
ATOM      9  C   UNL     1      45.305   3.640   9.611  0.00  0.00    +0.000 A 
ATOM     10  C   UNL     1      45.469   2.319   9.196  0.00  0.00    +0.000 A 
ATOM     11  C   UNL     1      46.068   2.070   7.963  0.00  0.00    +0.000 A 
ATOM     12  C   UNL     1      46.494   3.135   7.178  0.00  0.00    +0.000 A 
ATOM     13  C   UNL     1      46.295   4.416   7.657  0.00  0.00    +0.000 A 
ATOM     14  N   UNL     1      45.717   4.687   8.847  0.00  0.00    +0.000 NA
ENDBRANCH   8   9
BRANCH   8  16
ATOM     15  N   UNL     1      42.780   2.092  11.587  0.00  0.00    +0.000 NA
ATOM     16  C   UNL     1      43.677   2.937  11.318  0.00  0.00    +0.000 C 
ENDBRANCH   8  16
ENDBRANCH   7   8
ENDBRANCH   1   7
BRANCH   4  17
ATOM     17  C   UNL     1      47.709   9.010  13.933  0.00  0.00    +0.000 C 
BRANCH  17  18
ATOM     18  N   UNL     1      47.422   9.159  15.337  0.00  0.00    +0.000 N 
ATOM     19  C   UNL     1      48.430   9.136  16.268  0.00  0.00    +0.000 C 
ATOM     20  O   UNL     1      49.612   9.061  15.943  0.00  0.00    +0.000 OA
ATOM     21  H   UNL     1      46.469   8.978  15.637  0.00  0.00    +0.000 HD
BRANCH  19  22
ATOM     22  C   UNL     1      48.028   9.266  17.674  0.00  0.00    +0.000 A 
ATOM     23  C   UNL     1      47.724  10.519  18.191  0.00  0.00    +0.000 A 
ATOM     24  S   UNL     1      47.250  10.486  19.829  0.00  0.00    +0.000 S 
ATOM     25  C   UNL     1      47.478   8.802  19.918  0.00  0.00    +0.000 A 
ATOM     26  N   UNL     1      47.270   8.128  21.081  0.00  0.00    +0.000 NA
ATOM     27  C   UNL     1      47.502   6.860  21.012  0.00  0.00    +0.000 A 
ATOM     28  N   UNL     1      47.919   6.202  19.883  0.00  0.00    +0.000 N 
ATOM     29  C   UNL     1      48.113   6.837  18.681  0.00  0.00    +0.000 A 
ATOM     30  O   UNL     1      48.440   6.216  17.672  0.00  0.00    +0.000 OA
ATOM     31  C   UNL     1      47.883   8.268  18.708  0.00  0.00    +0.000 A 
ATOM     32  H   UNL     1      48.070   5.203  19.891  0.00  0.00    +0.000 HD
ENDBRANCH  19  22
ENDBRANCH  17  18
ENDBRANCH   4  17
TORSDOF 7
ENDMDL
MODEL 6
REMARK VINA RESULT:    -6.237      2.281      3.488
REMARK INTER + INTRA:          -9.717
REMARK INTER:                 -10.711
REMARK INTRA:                   0.994
REMARK UNBOUND:                -0.928
REMARK  Name = 
REMARK  7 active torsions:
REMARK  status: ('A' for Active; 'I' for Inactive)
REMARK    1  A    between atoms: C_2  and  C_3
REMARK    2  A    between atoms: C_3  and  C_4
REMARK    3  A    between atoms: C_3  and  C_25
REMARK    4  A    between atoms: C_4  and  C_5
REMARK    5  A    between atoms: C_8  and  C_9
REMARK    6  A    between atoms: C_9  and  N_10
REMARK    7  A    between atoms: C_11  and  C_13
REMARK                            x       y       z     vdW  Elec       q    Type
REMARK                         _______ _______ _______ _____ _____    ______ ____
ROOT
ATOM      1  C   UNL     1      45.540   5.030  11.804  0.00  0.00    +0.000 A 
ATOM      2  C   UNL     1      46.041   5.954  12.720  0.00  0.00    +0.000 A 
ATOM      3  C   UNL     1      46.713   5.492  13.846  0.00  0.00    +0.000 A 
ATOM      4  C   UNL     1      46.843   4.120  14.057  0.00  0.00    +0.000 A 
ATOM      5  C   UNL     1      46.337   3.274  13.076  0.00  0.00    +0.000 A 
ATOM      6  N   UNL     1      45.702   3.697  11.955  0.00  0.00    +0.000 NA
ENDROOT
BRANCH   1   7
ATOM      7  C   UNL     1      44.807   5.500  10.572  0.00  0.00    +0.000 C 
BRANCH   7   8
ATOM      8  C   UNL     1      44.060   4.365   9.848  0.00  0.00    +0.000 C 
BRANCH   8   9
ATOM      9  C   UNL     1      44.991   3.604   8.920  0.00  0.00    +0.000 A 
ATOM     10  C   UNL     1      45.148   2.225   9.047  0.00  0.00    +0.000 A 
ATOM     11  C   UNL     1      46.087   1.577   8.247  0.00  0.00    +0.000 A 
ATOM     12  C   UNL     1      46.848   2.313   7.347  0.00  0.00    +0.000 A 
ATOM     13  C   UNL     1      46.633   3.677   7.278  0.00  0.00    +0.000 A 
ATOM     14  N   UNL     1      45.730   4.331   8.039  0.00  0.00    +0.000 NA
ENDBRANCH   8   9
BRANCH   8  16
ATOM     15  N   UNL     1      43.048   2.575  11.721  0.00  0.00    +0.000 NA
ATOM     16  C   UNL     1      43.508   3.387  10.872  0.00  0.00    +0.000 C 
ENDBRANCH   8  16
ENDBRANCH   7   8
ENDBRANCH   1   7
BRANCH   4  17
ATOM     17  C   UNL     1      47.523   3.579  15.278  0.00  0.00    +0.000 C 
BRANCH  17  18
ATOM     18  N   UNL     1      47.881   4.632  16.194  0.00  0.00    +0.000 N 
ATOM     19  C   UNL     1      47.778   4.451  17.551  0.00  0.00    +0.000 C 
ATOM     20  O   UNL     1      47.448   3.373  18.039  0.00  0.00    +0.000 OA
ATOM     21  H   UNL     1      47.916   5.577  15.824  0.00  0.00    +0.000 HD
BRANCH  19  22
ATOM     22  C   UNL     1      48.139   5.596  18.396  0.00  0.00    +0.000 A 
ATOM     23  C   UNL     1      47.268   6.021  19.389  0.00  0.00    +0.000 A 
ATOM     24  S   UNL     1      47.855   7.342  20.295  0.00  0.00    +0.000 S 
ATOM     25  C   UNL     1      49.275   7.421  19.361  0.00  0.00    +0.000 A 
ATOM     26  N   UNL     1      50.217   8.374  19.597  0.00  0.00    +0.000 NA
ATOM     27  C   UNL     1      51.231   8.331  18.800  0.00  0.00    +0.000 A 
ATOM     28  N   UNL     1      51.393   7.418  17.789  0.00  0.00    +0.000 N 
ATOM     29  C   UNL     1      50.483   6.423  17.533  0.00  0.00    +0.000 A 
ATOM     30  O   UNL     1      50.676   5.588  16.652  0.00  0.00    +0.000 OA
ATOM     31  C   UNL     1      49.314   6.437  18.390  0.00  0.00    +0.000 A 
ATOM     32  H   UNL     1      52.219   7.430  17.208  0.00  0.00    +0.000 HD
ENDBRANCH  19  22
ENDBRANCH  17  18
ENDBRANCH   4  17
TORSDOF 7
ENDMDL
MODEL 7
REMARK VINA RESULT:    -6.106      3.191      5.041
REMARK INTER + INTRA:          -9.533
REMARK INTER:                  -8.328
REMARK INTRA:                  -1.205
REMARK UNBOUND:                -0.928
REMARK  Name = 
REMARK  7 active torsions:
REMARK  status: ('A' for Active; 'I' for Inactive)
REMARK    1  A    between atoms: C_2  and  C_3
REMARK    2  A    between atoms: C_3  and  C_4
REMARK    3  A    between atoms: C_3  and  C_25
REMARK    4  A    between atoms: C_4  and  C_5
REMARK    5  A    between atoms: C_8  and  C_9
REMARK    6  A    between atoms: C_9  and  N_10
REMARK    7  A    between atoms: C_11  and  C_13
REMARK                            x       y       z     vdW  Elec       q    Type
REMARK                         _______ _______ _______ _____ _____    ______ ____
ROOT
ATOM      1  C   UNL     1      46.371   4.729  13.680  0.00  0.00    +0.000 A 
ATOM      2  C   UNL     1      46.985   5.910  13.266  0.00  0.00    +0.000 A 
ATOM      3  C   UNL     1      47.935   6.502  14.091  0.00  0.00    +0.000 A 
ATOM      4  C   UNL     1      48.231   5.927  15.327  0.00  0.00    +0.000 A 
ATOM      5  C   UNL     1      47.589   4.734  15.644  0.00  0.00    +0.000 A 
ATOM      6  N   UNL     1      46.680   4.120  14.847  0.00  0.00    +0.000 NA
ENDROOT
BRANCH   1   7
ATOM      7  C   UNL     1      45.337   4.061  12.808  0.00  0.00    +0.000 C 
BRANCH   7   8
ATOM      8  C   UNL     1      44.925   4.920  11.599  0.00  0.00    +0.000 C 
BRANCH   8   9
ATOM      9  C   UNL     1      45.173   4.182  10.296  0.00  0.00    +0.000 A 
ATOM     10  C   UNL     1      45.640   4.862   9.173  0.00  0.00    +0.000 A 
ATOM     11  C   UNL     1      45.757   4.171   7.967  0.00  0.00    +0.000 A 
ATOM     12  C   UNL     1      45.402   2.829   7.907  0.00  0.00    +0.000 A 
ATOM     13  C   UNL     1      44.949   2.224   9.064  0.00  0.00    +0.000 A 
ATOM     14  N   UNL     1      44.827   2.867  10.245  0.00  0.00    +0.000 NA
ENDBRANCH   8   9
BRANCH   8  16
ATOM     15  N   UNL     1      42.212   5.511  11.762  0.00  0.00    +0.000 NA
ATOM     16  C   UNL     1      43.443   5.243  11.687  0.00  0.00    +0.000 C 
ENDBRANCH   8  16
ENDBRANCH   7   8
ENDBRANCH   1   7
BRANCH   4  17
ATOM     17  C   UNL     1      49.217   6.556  16.264  0.00  0.00    +0.000 C 
BRANCH  17  18
ATOM     18  N   UNL     1      49.951   7.617  15.625  0.00  0.00    +0.000 N 
ATOM     19  C   UNL     1      51.320   7.578  15.543  0.00  0.00    +0.000 C 
ATOM     20  O   UNL     1      51.967   6.612  15.943  0.00  0.00    +0.000 OA
ATOM     21  H   UNL     1      49.476   8.508  15.514  0.00  0.00    +0.000 HD
BRANCH  19  22
ATOM     22  C   UNL     1      51.974   8.723  14.898  0.00  0.00    +0.000 A 
ATOM     23  C   UNL     1      52.825   9.536  15.635  0.00  0.00    +0.000 A 
ATOM     24  S   UNL     1      53.520  10.801  14.727  0.00  0.00    +0.000 S 
ATOM     25  C   UNL     1      52.673  10.334  13.326  0.00  0.00    +0.000 A 
ATOM     26  N   UNL     1      52.796  11.034  12.166  0.00  0.00    +0.000 NA
ATOM     27  C   UNL     1      52.081  10.583  11.192  0.00  0.00    +0.000 A 
ATOM     28  N   UNL     1      51.256   9.490  11.268  0.00  0.00    +0.000 N 
ATOM     29  C   UNL     1      51.122   8.737  12.409  0.00  0.00    +0.000 A 
ATOM     30  O   UNL     1      50.413   7.734  12.436  0.00  0.00    +0.000 OA
ATOM     31  C   UNL     1      51.892   9.212  13.541  0.00  0.00    +0.000 A 
ATOM     32  H   UNL     1      50.731   9.179  10.463  0.00  0.00    +0.000 HD
ENDBRANCH  19  22
ENDBRANCH  17  18
ENDBRANCH   4  17
TORSDOF 7
ENDMDL
MODEL 8
REMARK VINA RESULT:    -6.039      3.262      5.567
REMARK INTER + INTRA:          -9.438
REMARK INTER:                  -8.258
REMARK INTRA:                  -1.180
REMARK UNBOUND:                -0.928
REMARK  Name = 
REMARK  7 active torsions:
REMARK  status: ('A' for Active; 'I' for Inactive)
REMARK    1  A    between atoms: C_2  and  C_3
REMARK    2  A    between atoms: C_3  and  C_4
REMARK    3  A    between atoms: C_3  and  C_25
REMARK    4  A    between atoms: C_4  and  C_5
REMARK    5  A    between atoms: C_8  and  C_9
REMARK    6  A    between atoms: C_9  and  N_10
REMARK    7  A    between atoms: C_11  and  C_13
REMARK                            x       y       z     vdW  Elec       q    Type
REMARK                         _______ _______ _______ _____ _____    ______ ____
ROOT
ATOM      1  C   UNL     1      47.614   5.425  14.514  0.00  0.00    +0.000 A 
ATOM      2  C   UNL     1      47.157   4.406  15.347  0.00  0.00    +0.000 A 
ATOM      3  C   UNL     1      47.529   4.411  16.687  0.00  0.00    +0.000 A 
ATOM      4  C   UNL     1      48.378   5.410  17.164  0.00  0.00    +0.000 A 
ATOM      5  C   UNL     1      48.761   6.401  16.267  0.00  0.00    +0.000 A 
ATOM      6  N   UNL     1      48.390   6.437  14.963  0.00  0.00    +0.000 NA
ENDROOT
BRANCH   1   7
ATOM      7  C   UNL     1      47.228   5.449  13.056  0.00  0.00    +0.000 C 
BRANCH   7   8
ATOM      8  C   UNL     1      45.722   5.677  12.837  0.00  0.00    +0.000 C 
BRANCH   8   9
ATOM      9  C   UNL     1      45.450   7.084  12.336  0.00  0.00    +0.000 A 
ATOM     10  C   UNL     1      46.135   8.173  12.873  0.00  0.00    +0.000 A 
ATOM     11  C   UNL     1      45.785   9.458  12.461  0.00  0.00    +0.000 A 
ATOM     12  C   UNL     1      44.765   9.629  11.534  0.00  0.00    +0.000 A 
ATOM     13  C   UNL     1      44.135   8.500  11.045  0.00  0.00    +0.000 A 
ATOM     14  N   UNL     1      44.452   7.244  11.425  0.00  0.00    +0.000 NA
ENDBRANCH   8   9
BRANCH   8  16
ATOM     15  N   UNL     1      44.780   3.881  10.932  0.00  0.00    +0.000 NA
ATOM     16  C   UNL     1      45.206   4.695  11.796  0.00  0.00    +0.000 C 
ENDBRANCH   8  16
ENDBRANCH   7   8
ENDBRANCH   1   7
BRANCH   4  17
ATOM     17  C   UNL     1      48.836   5.429  18.591  0.00  0.00    +0.000 C 
BRANCH  17  18
ATOM     18  N   UNL     1      49.950   4.541  18.800  0.00  0.00    +0.000 N 
ATOM     19  C   UNL     1      51.242   4.988  18.669  0.00  0.00    +0.000 C 
ATOM     20  O   UNL     1      51.500   6.168  18.440  0.00  0.00    +0.000 OA
ATOM     21  H   UNL     1      49.766   3.544  18.745  0.00  0.00    +0.000 HD
BRANCH  19  22
ATOM     22  C   UNL     1      52.304   3.997  18.874  0.00  0.00    +0.000 A 
ATOM     23  C   UNL     1      53.381   4.302  19.696  0.00  0.00    +0.000 A 
ATOM     24  S   UNL     1      54.508   3.031  19.848  0.00  0.00    +0.000 S 
ATOM     25  C   UNL     1      53.619   2.043  18.784  0.00  0.00    +0.000 A 
ATOM     26  N   UNL     1      54.058   0.800  18.450  0.00  0.00    +0.000 NA
ATOM     27  C   UNL     1      53.298   0.171  17.618  0.00  0.00    +0.000 A 
ATOM     28  N   UNL     1      52.134   0.670  17.091  0.00  0.00    +0.000 N 
ATOM     29  C   UNL     1      51.639   1.907  17.421  0.00  0.00    +0.000 A 
ATOM     30  O   UNL     1      50.568   2.311  16.973  0.00  0.00    +0.000 OA
ATOM     31  C   UNL     1      52.465   2.664  18.341  0.00  0.00    +0.000 A 
ATOM     32  H   UNL     1      51.577   0.120  16.453  0.00  0.00    +0.000 HD
ENDBRANCH  19  22
ENDBRANCH  17  18
ENDBRANCH   4  17
TORSDOF 7
ENDMDL
MODEL 9
REMARK VINA RESULT:    -5.856      2.674      3.493
REMARK INTER + INTRA:          -9.181
REMARK INTER:                  -8.000
REMARK INTRA:                  -1.180
REMARK UNBOUND:                -0.928
REMARK  Name = 
REMARK  7 active torsions:
REMARK  status: ('A' for Active; 'I' for Inactive)
REMARK    1  A    between atoms: C_2  and  C_3
REMARK    2  A    between atoms: C_3  and  C_4
REMARK    3  A    between atoms: C_3  and  C_25
REMARK    4  A    between atoms: C_4  and  C_5
REMARK    5  A    between atoms: C_8  and  C_9
REMARK    6  A    between atoms: C_9  and  N_10
REMARK    7  A    between atoms: C_11  and  C_13
REMARK                            x       y       z     vdW  Elec       q    Type
REMARK                         _______ _______ _______ _____ _____    ______ ____
ROOT
ATOM      1  C   UNL     1      46.193   5.201  12.554  0.00  0.00    +0.000 A 
ATOM      2  C   UNL     1      45.401   6.322  12.313  0.00  0.00    +0.000 A 
ATOM      3  C   UNL     1      45.874   7.576  12.686  0.00  0.00    +0.000 A 
ATOM      4  C   UNL     1      47.110   7.685  13.323  0.00  0.00    +0.000 A 
ATOM      5  C   UNL     1      47.842   6.515  13.497  0.00  0.00    +0.000 A 
ATOM      6  N   UNL     1      47.418   5.284  13.118  0.00  0.00    +0.000 NA
ENDROOT
BRANCH   1   7
ATOM      7  C   UNL     1      45.708   3.827  12.161  0.00  0.00    +0.000 C 
BRANCH   7   8
ATOM      8  C   UNL     1      44.615   3.863  11.078  0.00  0.00    +0.000 C 
BRANCH   8   9
ATOM      9  C   UNL     1      45.205   3.624   9.699  0.00  0.00    +0.000 A 
ATOM     10  C   UNL     1      45.426   2.328   9.236  0.00  0.00    +0.000 A 
ATOM     11  C   UNL     1      46.063   2.151   8.009  0.00  0.00    +0.000 A 
ATOM     12  C   UNL     1      46.469   3.261   7.278  0.00  0.00    +0.000 A 
ATOM     13  C   UNL     1      46.212   4.514   7.803  0.00  0.00    +0.000 A 
ATOM     14  N   UNL     1      45.596   4.716   8.987  0.00  0.00    +0.000 NA
ENDBRANCH   8   9
BRANCH   8  16
ATOM     15  N   UNL     1      42.745   1.865  11.578  0.00  0.00    +0.000 NA
ATOM     16  C   UNL     1      43.593   2.771  11.352  0.00  0.00    +0.000 C 
ENDBRANCH   8  16
ENDBRANCH   7   8
ENDBRANCH   1   7
BRANCH   4  17
ATOM     17  C   UNL     1      47.638   9.012  13.778  0.00  0.00    +0.000 C 
BRANCH  17  18
ATOM     18  N   UNL     1      48.975   8.898  14.300  0.00  0.00    +0.000 N 
ATOM     19  C   UNL     1      49.302   9.429  15.523  0.00  0.00    +0.000 C 
ATOM     20  O   UNL     1      48.461   9.954  16.249  0.00  0.00    +0.000 OA
ATOM     21  H   UNL     1      49.717   8.696  13.637  0.00  0.00    +0.000 HD
BRANCH  19  22
ATOM     22  C   UNL     1      50.698   9.284  15.951  0.00  0.00    +0.000 A 
ATOM     23  C   UNL     1      51.506  10.408  16.058  0.00  0.00    +0.000 A 
ATOM     24  S   UNL     1      53.089  10.065  16.593  0.00  0.00    +0.000 S 
ATOM     25  C   UNL     1      52.764   8.396  16.657  0.00  0.00    +0.000 A 
ATOM     26  N   UNL     1      53.728   7.507  17.021  0.00  0.00    +0.000 NA
ATOM     27  C   UNL     1      53.350   6.274  17.005  0.00  0.00    +0.000 A 
ATOM     28  N   UNL     1      52.094   5.845  16.662  0.00  0.00    +0.000 N 
ATOM     29  C   UNL     1      51.082   6.707  16.317  0.00  0.00    +0.000 A 
ATOM     30  O   UNL     1      49.951   6.300  16.062  0.00  0.00    +0.000 OA
ATOM     31  C   UNL     1      51.459   8.106  16.302  0.00  0.00    +0.000 A 
ATOM     32  H   UNL     1      51.857   4.863  16.683  0.00  0.00    +0.000 HD
ENDBRANCH  19  22
ENDBRANCH  17  18
ENDBRANCH   4  17
TORSDOF 7
ENDMDL
