MODEL 1
REMARK VINA RESULT:    -8.136      0.000      0.000
REMARK INTER + INTRA:         -11.496
REMARK INTER:                 -10.752
REMARK INTRA:                  -0.743
REMARK UNBOUND:                -0.743
REMARK  Name = 
REMARK  6 active torsions:
REMARK  status: ('A' for Active; 'I' for Inactive)
REMARK    1  A    between atoms: N_1  and  C_2
REMARK    2  A    between atoms: C_2  and  C_3
REMARK    3  A    between atoms: C_3  and  C_4
REMARK    4  A    between atoms: C_7  and  C_8
REMARK    5  A    between atoms: C_8  and  N_9
REMARK    6  A    between atoms: C_14  and  C_15
REMARK                            x       y       z     vdW  Elec       q    Type
REMARK                         _______ _______ _______ _____ _____    ______ ____
ROOT
ATOM      1  N   UNL     1      44.594   5.600  11.257  0.00  0.00    +0.000 N 
ATOM      2  N   UNL     1      44.622   6.952  11.150  0.00  0.00    +0.000 NA
ATOM      3  C   UNL     1      45.393   7.328  12.173  0.00  0.00    +0.000 A 
ATOM      4  C   UNL     1      45.912   6.233  12.899  0.00  0.00    +0.000 A 
ATOM      5  C   UNL     1      46.725   6.077  14.038  0.00  0.00    +0.000 A 
ATOM      6  C   UNL     1      47.020   4.784  14.498  0.00  0.00    +0.000 A 
ATOM      7  C   UNL     1      46.528   3.669  13.800  0.00  0.00    +0.000 A 
ATOM      8  C   UNL     1      45.733   3.809  12.656  0.00  0.00    +0.000 A 
ATOM      9  C   UNL     1      45.416   5.109  12.246  0.00  0.00    +0.000 A 
ENDROOT
BRANCH   6  10
ATOM     10  C   UNL     1      47.830   4.524  15.726  0.00  0.00    +0.000 C 
ATOM     11  N   UNL     1      48.114   5.576  16.555  0.00  0.00    +0.000 N 
ATOM     12  O   UNL     1      48.236   3.406  16.003  0.00  0.00    +0.000 OA
ATOM     13  H   UNL     1      47.837   6.533  16.411  0.00  0.00    +0.000 HD
ATOM     14  H   UNL     1      48.667   5.363  17.377  0.00  0.00    +0.000 HD
ENDBRANCH   6  10
BRANCH   1  15
ATOM     15  C   UNL     1      43.748   4.831  10.354  0.00  0.00    +0.000 C 
BRANCH  15  19
ATOM     16  C   UNL     1      46.163   2.192   7.905  0.00  0.00    +0.000 A 
ATOM     17  C   UNL     1      46.188   3.577   7.702  0.00  0.00    +0.000 A 
ATOM     18  C   UNL     1      45.382   4.424   8.470  0.00  0.00    +0.000 A 
ATOM     19  C   UNL     1      44.532   3.906   9.458  0.00  0.00    +0.000 A 
ATOM     20  C   UNL     1      44.474   2.517   9.610  0.00  0.00    +0.000 A 
ATOM     21  F   UNL     1      43.633   1.971  10.500  0.00  0.00    +0.000 F 
ATOM     22  C   UNL     1      45.295   1.668   8.869  0.00  0.00    +0.000 A 
BRANCH  16  23
ATOM     23  C   UNL     1      47.061   1.272   7.115  0.00  0.00    +0.000 C 
BRANCH  23  24
ATOM     24  C   UNL     1      48.334   1.981   6.640  0.00  0.00    +0.000 C 
BRANCH  24  25
ATOM     25  N   UNL     1      48.365   2.086   5.183  0.00  0.00    +0.000 NA
ATOM     26  H   UNL     1      47.715   1.410   4.783  0.00  0.00    +0.000 HD
ATOM     27  H   UNL     1      49.289   1.829   4.839  0.00  0.00    +0.000 HD
ENDBRANCH  24  25
ENDBRANCH  23  24
ENDBRANCH  16  23
ENDBRANCH  15  19
ENDBRANCH   1  15
TORSDOF 6
ENDMDL
MODEL 2
REMARK VINA RESULT:    -7.991      2.048      2.528
REMARK INTER + INTRA:         -11.304
REMARK INTER:                 -10.496
REMARK INTRA:                  -0.808
REMARK UNBOUND:                -0.743
REMARK  Name = 
REMARK  6 active torsions:
REMARK  status: ('A' for Active; 'I' for Inactive)
REMARK    1  A    between atoms: N_1  and  C_2
REMARK    2  A    between atoms: C_2  and  C_3
REMARK    3  A    between atoms: C_3  and  C_4
REMARK    4  A    between atoms: C_7  and  C_8
REMARK    5  A    between atoms: C_8  and  N_9
REMARK    6  A    between atoms: C_14  and  C_15
REMARK                            x       y       z     vdW  Elec       q    Type
REMARK                         _______ _______ _______ _____ _____    ______ ____
ROOT
ATOM      1  N   UNL     1      45.092   5.059  12.015  0.00  0.00    +0.000 N 
ATOM      2  N   UNL     1      44.815   4.280  13.092  0.00  0.00    +0.000 NA
ATOM      3  C   UNL     1      45.824   4.537  13.926  0.00  0.00    +0.000 A 
ATOM      4  C   UNL     1      46.712   5.516  13.429  0.00  0.00    +0.000 A 
ATOM      5  C   UNL     1      47.906   6.112  13.879  0.00  0.00    +0.000 A 
ATOM      6  C   UNL     1      48.542   7.067  13.071  0.00  0.00    +0.000 A 
ATOM      7  C   UNL     1      47.965   7.436  11.845  0.00  0.00    +0.000 A 
ATOM      8  C   UNL     1      46.770   6.865  11.393  0.00  0.00    +0.000 A 
ATOM      9  C   UNL     1      46.180   5.882  12.197  0.00  0.00    +0.000 A 
ENDROOT
BRANCH   6  10
ATOM     10  C   UNL     1      49.838   7.712  13.443  0.00  0.00    +0.000 C 
ATOM     11  N   UNL     1      50.857   7.702  12.530  0.00  0.00    +0.000 N 
ATOM     12  O   UNL     1      50.001   8.245  14.530  0.00  0.00    +0.000 OA
ATOM     13  H   UNL     1      50.828   7.282  11.616  0.00  0.00    +0.000 HD
ATOM     14  H   UNL     1      51.722   8.147  12.817  0.00  0.00    +0.000 HD
ENDBRANCH   6  10
BRANCH   1  15
ATOM     15  C   UNL     1      44.247   4.965  10.832  0.00  0.00    +0.000 C 
BRANCH  15  19
ATOM     16  C   UNL     1      46.136   2.467   7.833  0.00  0.00    +0.000 A 
ATOM     17  C   UNL     1      46.280   3.860   7.798  0.00  0.00    +0.000 A 
ATOM     18  C   UNL     1      45.643   4.666   8.746  0.00  0.00    +0.000 A 
ATOM     19  C   UNL     1      44.844   4.100   9.750  0.00  0.00    +0.000 A 
ATOM     20  C   UNL     1      44.661   2.714   9.738  0.00  0.00    +0.000 A 
ATOM     21  F   UNL     1      43.860   2.133  10.642  0.00  0.00    +0.000 F 
ATOM     22  C   UNL     1      45.317   1.900   8.815  0.00  0.00    +0.000 A 
BRANCH  16  23
ATOM     23  C   UNL     1      46.855   1.584   6.844  0.00  0.00    +0.000 C 
BRANCH  23  24
ATOM     24  C   UNL     1      48.222   2.156   6.450  0.00  0.00    +0.000 C 
BRANCH  24  25
ATOM     25  N   UNL     1      48.268   2.474   5.025  0.00  0.00    +0.000 NA
ATOM     26  H   UNL     1      47.396   2.929   4.754  0.00  0.00    +0.000 HD
ATOM     27  H   UNL     1      48.319   1.613   4.482  0.00  0.00    +0.000 HD
ENDBRANCH  24  25
ENDBRANCH  23  24
ENDBRANCH  16  23
ENDBRANCH  15  19
ENDBRANCH   1  15
TORSDOF 6
ENDMDL
MODEL 3
REMARK VINA RESULT:    -7.731      2.873      6.968
REMARK INTER + INTRA:         -10.960
REMARK INTER:                 -10.320
REMARK INTRA:                  -0.640
REMARK UNBOUND:                -0.743
REMARK  Name = 
REMARK  6 active torsions:
REMARK  status: ('A' for Active; 'I' for Inactive)
REMARK    1  A    between atoms: N_1  and  C_2
REMARK    2  A    between atoms: C_2  and  C_3
REMARK    3  A    between atoms: C_3  and  C_4
REMARK    4  A    between atoms: C_7  and  C_8
REMARK    5  A    between atoms: C_8  and  N_9
REMARK    6  A    between atoms: C_14  and  C_15
REMARK                            x       y       z     vdW  Elec       q    Type
REMARK                         _______ _______ _______ _____ _____    ______ ____
ROOT
ATOM      1  N   UNL     1      43.982   4.194  10.509  0.00  0.00    +0.000 N 
ATOM      2  N   UNL     1      43.464   3.064  11.052  0.00  0.00    +0.000 NA
ATOM      3  C   UNL     1      44.005   2.090  10.317  0.00  0.00    +0.000 A 
ATOM      4  C   UNL     1      44.914   2.574   9.351  0.00  0.00    +0.000 A 
ATOM      5  C   UNL     1      45.708   1.999   8.340  0.00  0.00    +0.000 A 
ATOM      6  C   UNL     1      46.494   2.832   7.529  0.00  0.00    +0.000 A 
ATOM      7  C   UNL     1      46.503   4.217   7.757  0.00  0.00    +0.000 A 
ATOM      8  C   UNL     1      45.732   4.801   8.768  0.00  0.00    +0.000 A 
ATOM      9  C   UNL     1      44.922   3.953   9.532  0.00  0.00    +0.000 A 
ENDROOT
BRANCH   6  10
ATOM     10  C   UNL     1      47.327   2.315   6.400  0.00  0.00    +0.000 C 
ATOM     11  N   UNL     1      47.326   3.006   5.219  0.00  0.00    +0.000 N 
ATOM     12  O   UNL     1      48.002   1.303   6.511  0.00  0.00    +0.000 OA
ATOM     13  H   UNL     1      46.799   3.841   5.024  0.00  0.00    +0.000 HD
ATOM     14  H   UNL     1      47.901   2.626   4.476  0.00  0.00    +0.000 HD
ENDBRANCH   6  10
BRANCH   1  15
ATOM     15  C   UNL     1      43.529   5.491  10.994  0.00  0.00    +0.000 C 
BRANCH  15  19
ATOM     16  C   UNL     1      46.704   7.584  13.078  0.00  0.00    +0.000 A 
ATOM     17  C   UNL     1      46.559   6.197  13.204  0.00  0.00    +0.000 A 
ATOM     18  C   UNL     1      45.514   5.528  12.558  0.00  0.00    +0.000 A 
ATOM     19  C   UNL     1      44.588   6.230  11.773  0.00  0.00    +0.000 A 
ATOM     20  C   UNL     1      44.709   7.621  11.704  0.00  0.00    +0.000 A 
ATOM     21  F   UNL     1      43.813   8.342  11.015  0.00  0.00    +0.000 F 
ATOM     22  C   UNL     1      45.765   8.292  12.320  0.00  0.00    +0.000 A 
BRANCH  16  23
ATOM     23  C   UNL     1      47.853   8.310  13.731  0.00  0.00    +0.000 C 
BRANCH  23  24
ATOM     24  C   UNL     1      48.548   7.450  14.793  0.00  0.00    +0.000 C 
BRANCH  24  25
ATOM     25  N   UNL     1      49.854   6.991  14.325  0.00  0.00    +0.000 NA
ATOM     26  H   UNL     1      50.384   7.788  13.975  0.00  0.00    +0.000 HD
ATOM     27  H   UNL     1      49.734   6.360  13.534  0.00  0.00    +0.000 HD
ENDBRANCH  24  25
ENDBRANCH  23  24
ENDBRANCH  16  23
ENDBRANCH  15  19
ENDBRANCH   1  15
TORSDOF 6
ENDMDL
MODEL 4
REMARK VINA RESULT:    -6.886      1.906      2.235
REMARK INTER + INTRA:          -9.843
REMARK INTER:                  -9.410
REMARK INTRA:                  -0.433
REMARK UNBOUND:                -0.743
REMARK  Name = 
REMARK  6 active torsions:
REMARK  status: ('A' for Active; 'I' for Inactive)
REMARK    1  A    between atoms: N_1  and  C_2
REMARK    2  A    between atoms: C_2  and  C_3
REMARK    3  A    between atoms: C_3  and  C_4
REMARK    4  A    between atoms: C_7  and  C_8
REMARK    5  A    between atoms: C_8  and  N_9
REMARK    6  A    between atoms: C_14  and  C_15
REMARK                            x       y       z     vdW  Elec       q    Type
REMARK                         _______ _______ _______ _____ _____    ______ ____
ROOT
ATOM      1  N   UNL     1      44.977   6.371  11.956  0.00  0.00    +0.000 N 
ATOM      2  N   UNL     1      44.413   7.503  11.465  0.00  0.00    +0.000 NA
ATOM      3  C   UNL     1      45.143   8.476  12.015  0.00  0.00    +0.000 A 
ATOM      4  C   UNL     1      46.208   7.984  12.802  0.00  0.00    +0.000 A 
ATOM      5  C   UNL     1      47.222   8.558  13.593  0.00  0.00    +0.000 A 
ATOM      6  C   UNL     1      48.118   7.719  14.274  0.00  0.00    +0.000 A 
ATOM      7  C   UNL     1      48.010   6.326  14.131  0.00  0.00    +0.000 A 
ATOM      8  C   UNL     1      47.018   5.742  13.335  0.00  0.00    +0.000 A 
ATOM      9  C   UNL     1      46.109   6.601  12.705  0.00  0.00    +0.000 A 
ENDROOT
BRANCH   6  10
ATOM     10  C   UNL     1      49.191   8.238  15.175  0.00  0.00    +0.000 C 
ATOM     11  N   UNL     1      50.172   9.024  14.635  0.00  0.00    +0.000 N 
ATOM     12  O   UNL     1      49.208   7.980  16.368  0.00  0.00    +0.000 OA
ATOM     13  H   UNL     1      50.254   9.285  13.666  0.00  0.00    +0.000 HD
ATOM     14  H   UNL     1      50.884   9.357  15.275  0.00  0.00    +0.000 HD
ENDBRANCH   6  10
BRANCH   1  15
ATOM     15  C   UNL     1      44.369   5.083  11.652  0.00  0.00    +0.000 C 
BRANCH  15  19
ATOM     16  C   UNL     1      45.763   3.438   7.890  0.00  0.00    +0.000 A 
ATOM     17  C   UNL     1      46.110   4.739   8.274  0.00  0.00    +0.000 A 
ATOM     18  C   UNL     1      45.632   5.280   9.471  0.00  0.00    +0.000 A 
ATOM     19  C   UNL     1      44.794   4.534  10.313  0.00  0.00    +0.000 A 
ATOM     20  C   UNL     1      44.408   3.258   9.889  0.00  0.00    +0.000 A 
ATOM     21  F   UNL     1      43.561   2.530  10.631  0.00  0.00    +0.000 F 
ATOM     22  C   UNL     1      44.904   2.700   8.712  0.00  0.00    +0.000 A 
BRANCH  16  23
ATOM     23  C   UNL     1      46.310   2.827   6.624  0.00  0.00    +0.000 C 
BRANCH  23  24
ATOM     24  C   UNL     1      47.543   1.956   6.892  0.00  0.00    +0.000 C 
BRANCH  24  25
ATOM     25  N   UNL     1      48.743   2.549   6.307  0.00  0.00    +0.000 NA
ATOM     26  H   UNL     1      48.940   2.098   5.415  0.00  0.00    +0.000 HD
ATOM     27  H   UNL     1      49.546   2.360   6.905  0.00  0.00    +0.000 HD
ENDBRANCH  24  25
ENDBRANCH  23  24
ENDBRANCH  16  23
ENDBRANCH  15  19
ENDBRANCH   1  15
TORSDOF 6
ENDMDL
MODEL 5
REMARK VINA RESULT:    -6.824      1.613      2.062
REMARK INTER + INTRA:          -9.761
REMARK INTER:                  -9.040
REMARK INTRA:                  -0.721
REMARK UNBOUND:                -0.743
REMARK  Name = 
REMARK  6 active torsions:
REMARK  status: ('A' for Active; 'I' for Inactive)
REMARK    1  A    between atoms: N_1  and  C_2
REMARK    2  A    between atoms: C_2  and  C_3
REMARK    3  A    between atoms: C_3  and  C_4
REMARK    4  A    between atoms: C_7  and  C_8
REMARK    5  A    between atoms: C_8  and  N_9
REMARK    6  A    between atoms: C_14  and  C_15
REMARK                            x       y       z     vdW  Elec       q    Type
REMARK                         _______ _______ _______ _____ _____    ______ ____
ROOT
ATOM      1  N   UNL     1      45.890   6.782  12.187  0.00  0.00    +0.000 N 
ATOM      2  N   UNL     1      46.641   7.862  11.853  0.00  0.00    +0.000 NA
ATOM      3  C   UNL     1      47.609   7.862  12.773  0.00  0.00    +0.000 A 
ATOM      4  C   UNL     1      47.527   6.762  13.655  0.00  0.00    +0.000 A 
ATOM      5  C   UNL     1      48.253   6.316  14.777  0.00  0.00    +0.000 A 
ATOM      6  C   UNL     1      47.845   5.147  15.437  0.00  0.00    +0.000 A 
ATOM      7  C   UNL     1      46.743   4.424  14.952  0.00  0.00    +0.000 A 
ATOM      8  C   UNL     1      46.022   4.845  13.829  0.00  0.00    +0.000 A 
ATOM      9  C   UNL     1      46.422   6.039  13.217  0.00  0.00    +0.000 A 
ENDROOT
BRANCH   6  10
ATOM     10  C   UNL     1      48.522   4.629  16.664  0.00  0.00    +0.000 C 
ATOM     11  N   UNL     1      47.751   4.083  17.654  0.00  0.00    +0.000 N 
ATOM     12  O   UNL     1      49.735   4.679  16.797  0.00  0.00    +0.000 OA
ATOM     13  H   UNL     1      46.747   4.004  17.645  0.00  0.00    +0.000 HD
ATOM     14  H   UNL     1      48.243   3.743  18.471  0.00  0.00    +0.000 HD
ENDBRANCH   6  10
BRANCH   1  15
ATOM     15  C   UNL     1      44.659   6.516  11.455  0.00  0.00    +0.000 C 
BRANCH  15  19
ATOM     16  C   UNL     1      44.968   2.766   9.300  0.00  0.00    +0.000 A 
ATOM     17  C   UNL     1      45.665   3.901   8.866  0.00  0.00    +0.000 A 
ATOM     18  C   UNL     1      45.538   5.118   9.542  0.00  0.00    +0.000 A 
ATOM     19  C   UNL     1      44.709   5.231  10.668  0.00  0.00    +0.000 A 
ATOM     20  C   UNL     1      43.974   4.107  11.056  0.00  0.00    +0.000 A 
ATOM     21  F   UNL     1      43.124   4.182  12.089  0.00  0.00    +0.000 F 
ATOM     22  C   UNL     1      44.118   2.882  10.405  0.00  0.00    +0.000 A 
BRANCH  16  23
ATOM     23  C   UNL     1      45.133   1.437   8.607  0.00  0.00    +0.000 C 
BRANCH  23  24
ATOM     24  C   UNL     1      46.509   1.301   7.944  0.00  0.00    +0.000 C 
BRANCH  24  25
ATOM     25  N   UNL     1      46.863  -0.103   7.752  0.00  0.00    +0.000 NA
ATOM     26  H   UNL     1      46.398  -0.668   8.462  0.00  0.00    +0.000 HD
ATOM     27  H   UNL     1      47.864  -0.229   7.900  0.00  0.00    +0.000 HD
ENDBRANCH  24  25
ENDBRANCH  23  24
ENDBRANCH  16  23
ENDBRANCH  15  19
ENDBRANCH   1  15
TORSDOF 6
ENDMDL
MODEL 6
REMARK VINA RESULT:    -5.865      4.738      6.991
REMARK INTER + INTRA:          -8.494
REMARK INTER:                  -7.770
REMARK INTRA:                  -0.724
REMARK UNBOUND:                -0.743
REMARK  Name = 
REMARK  6 active torsions:
REMARK  status: ('A' for Active; 'I' for Inactive)
REMARK    1  A    between atoms: N_1  and  C_2
REMARK    2  A    between atoms: C_2  and  C_3
REMARK    3  A    between atoms: C_3  and  C_4
REMARK    4  A    between atoms: C_7  and  C_8
REMARK    5  A    between atoms: C_8  and  N_9
REMARK    6  A    between atoms: C_14  and  C_15
REMARK                            x       y       z     vdW  Elec       q    Type
REMARK                         _______ _______ _______ _____ _____    ______ ____
ROOT
ATOM      1  N   UNL     1      47.480   6.336  13.789  0.00  0.00    +0.000 N 
ATOM      2  N   UNL     1      47.841   5.513  14.807  0.00  0.00    +0.000 NA
ATOM      3  C   UNL     1      47.162   4.393  14.554  0.00  0.00    +0.000 A 
ATOM      4  C   UNL     1      46.420   4.460  13.354  0.00  0.00    +0.000 A 
ATOM      5  C   UNL     1      45.545   3.599  12.664  0.00  0.00    +0.000 A 
ATOM      6  C   UNL     1      44.954   4.037  11.469  0.00  0.00    +0.000 A 
ATOM      7  C   UNL     1      45.267   5.310  10.964  0.00  0.00    +0.000 A 
ATOM      8  C   UNL     1      46.148   6.169  11.631  0.00  0.00    +0.000 A 
ATOM      9  C   UNL     1      46.687   5.726  12.844  0.00  0.00    +0.000 A 
ENDROOT
BRANCH   6  10
ATOM     10  C   UNL     1      43.975   3.213  10.697  0.00  0.00    +0.000 C 
ATOM     11  N   UNL     1      44.156   3.080   9.347  0.00  0.00    +0.000 N 
ATOM     12  O   UNL     1      43.031   2.661  11.240  0.00  0.00    +0.000 OA
ATOM     13  H   UNL     1      44.893   3.501   8.805  0.00  0.00    +0.000 HD
ATOM     14  H   UNL     1      43.473   2.515   8.855  0.00  0.00    +0.000 HD
ENDBRANCH   6  10
BRANCH   1  15
ATOM     15  C   UNL     1      47.952   7.714  13.786  0.00  0.00    +0.000 C 
BRANCH  15  19
ATOM     16  C   UNL     1      51.810   8.357  11.915  0.00  0.00    +0.000 A 
ATOM     17  C   UNL     1      50.701   7.967  11.153  0.00  0.00    +0.000 A 
ATOM     18  C   UNL     1      49.466   7.728  11.763  0.00  0.00    +0.000 A 
ATOM     19  C   UNL     1      49.310   7.870  13.149  0.00  0.00    +0.000 A 
ATOM     20  C   UNL     1      50.438   8.201  13.905  0.00  0.00    +0.000 A 
ATOM     21  F   UNL     1      50.352   8.290  15.240  0.00  0.00    +0.000 F 
ATOM     22  C   UNL     1      51.666   8.471  13.302  0.00  0.00    +0.000 A 
BRANCH  16  23
ATOM     23  C   UNL     1      53.135   8.663  11.263  0.00  0.00    +0.000 C 
BRANCH  23  24
ATOM     24  C   UNL     1      54.218   7.653  11.660  0.00  0.00    +0.000 C 
BRANCH  24  25
ATOM     25  N   UNL     1      53.958   6.343  11.067  0.00  0.00    +0.000 NA
ATOM     26  H   UNL     1      53.914   5.643  11.807  0.00  0.00    +0.000 HD
ATOM     27  H   UNL     1      54.738   6.075  10.468  0.00  0.00    +0.000 HD
ENDBRANCH  24  25
ENDBRANCH  23  24
ENDBRANCH  16  23
ENDBRANCH  15  19
ENDBRANCH   1  15
TORSDOF 6
ENDMDL
MODEL 7
REMARK VINA RESULT:    -5.815      4.384      6.344
REMARK INTER + INTRA:          -8.428
REMARK INTER:                  -7.669
REMARK INTRA:                  -0.759
REMARK UNBOUND:                -0.743
REMARK  Name = 
REMARK  6 active torsions:
REMARK  status: ('A' for Active; 'I' for Inactive)
REMARK    1  A    between atoms: N_1  and  C_2
REMARK    2  A    between atoms: C_2  and  C_3
REMARK    3  A    between atoms: C_3  and  C_4
REMARK    4  A    between atoms: C_7  and  C_8
REMARK    5  A    between atoms: C_8  and  N_9
REMARK    6  A    between atoms: C_14  and  C_15
REMARK                            x       y       z     vdW  Elec       q    Type
REMARK                         _______ _______ _______ _____ _____    ______ ____
ROOT
ATOM      1  N   UNL     1      46.025   7.824  12.642  0.00  0.00    +0.000 N 
ATOM      2  N   UNL     1      45.245   8.734  12.006  0.00  0.00    +0.000 NA
ATOM      3  C   UNL     1      44.383   7.978  11.322  0.00  0.00    +0.000 A 
ATOM      4  C   UNL     1      44.557   6.597  11.560  0.00  0.00    +0.000 A 
ATOM      5  C   UNL     1      43.955   5.413  11.091  0.00  0.00    +0.000 A 
ATOM      6  C   UNL     1      44.430   4.175  11.552  0.00  0.00    +0.000 A 
ATOM      7  C   UNL     1      45.471   4.136  12.494  0.00  0.00    +0.000 A 
ATOM      8  C   UNL     1      46.066   5.305  12.981  0.00  0.00    +0.000 A 
ATOM      9  C   UNL     1      45.606   6.524  12.470  0.00  0.00    +0.000 A 
ENDROOT
BRANCH   6  10
ATOM     10  C   UNL     1      43.888   2.868  11.071  0.00  0.00    +0.000 C 
ATOM     11  N   UNL     1      44.485   2.271   9.995  0.00  0.00    +0.000 N 
ATOM     12  O   UNL     1      42.937   2.328  11.616  0.00  0.00    +0.000 OA
ATOM     13  H   UNL     1      45.263   2.637   9.472  0.00  0.00    +0.000 HD
ATOM     14  H   UNL     1      44.091   1.386   9.695  0.00  0.00    +0.000 HD
ENDBRANCH   6  10
BRANCH   1  15
ATOM     15  C   UNL     1      47.169   8.285  13.418  0.00  0.00    +0.000 C 
BRANCH  15  19
ATOM     16  C   UNL     1      50.735   9.217  11.135  0.00  0.00    +0.000 A 
ATOM     17  C   UNL     1      49.765  10.198  11.379  0.00  0.00    +0.000 A 
ATOM     18  C   UNL     1      48.599   9.887  12.086  0.00  0.00    +0.000 A 
ATOM     19  C   UNL     1      48.375   8.588  12.566  0.00  0.00    +0.000 A 
ATOM     20  C   UNL     1      49.323   7.605  12.265  0.00  0.00    +0.000 A 
ATOM     21  F   UNL     1      49.124   6.337  12.650  0.00  0.00    +0.000 F 
ATOM     22  C   UNL     1      50.502   7.914  11.586  0.00  0.00    +0.000 A 
BRANCH  16  23
ATOM     23  C   UNL     1      52.017   9.552  10.414  0.00  0.00    +0.000 C 
BRANCH  23  24
ATOM     24  C   UNL     1      52.863   8.304  10.138  0.00  0.00    +0.000 C 
BRANCH  24  25
ATOM     25  N   UNL     1      52.839   7.956   8.719  0.00  0.00    +0.000 NA
ATOM     26  H   UNL     1      52.766   8.809   8.165  0.00  0.00    +0.000 HD
ATOM     27  H   UNL     1      52.003   7.411   8.512  0.00  0.00    +0.000 HD
ENDBRANCH  24  25
ENDBRANCH  23  24
ENDBRANCH  16  23
ENDBRANCH  15  19
ENDBRANCH   1  15
TORSDOF 6
ENDMDL
MODEL 8
REMARK VINA RESULT:    -5.695      5.131      8.196
REMARK INTER + INTRA:          -8.269
REMARK INTER:                  -7.471
REMARK INTRA:                  -0.798
REMARK UNBOUND:                -0.743
REMARK  Name = 
REMARK  6 active torsions:
REMARK  status: ('A' for Active; 'I' for Inactive)
REMARK    1  A    between atoms: N_1  and  C_2
REMARK    2  A    between atoms: C_2  and  C_3
REMARK    3  A    between atoms: C_3  and  C_4
REMARK    4  A    between atoms: C_7  and  C_8
REMARK    5  A    between atoms: C_8  and  N_9
REMARK    6  A    between atoms: C_14  and  C_15
REMARK                            x       y       z     vdW  Elec       q    Type
REMARK                         _______ _______ _______ _____ _____    ______ ____
ROOT
ATOM      1  N   UNL     1      47.342   4.686  15.378  0.00  0.00    +0.000 N 
ATOM      2  N   UNL     1      46.682   3.811  14.578  0.00  0.00    +0.000 NA
ATOM      3  C   UNL     1      46.675   4.422  13.391  0.00  0.00    +0.000 A 
ATOM      4  C   UNL     1      47.376   5.648  13.401  0.00  0.00    +0.000 A 
ATOM      5  C   UNL     1      47.641   6.662  12.460  0.00  0.00    +0.000 A 
ATOM      6  C   UNL     1      48.380   7.788  12.857  0.00  0.00    +0.000 A 
ATOM      7  C   UNL     1      48.869   7.871  14.170  0.00  0.00    +0.000 A 
ATOM      8  C   UNL     1      48.628   6.863  15.111  0.00  0.00    +0.000 A 
ATOM      9  C   UNL     1      47.850   5.774  14.703  0.00  0.00    +0.000 A 
ENDROOT
BRANCH   6  10
ATOM     10  C   UNL     1      48.665   8.935  11.942  0.00  0.00    +0.000 C 
ATOM     11  N   UNL     1      47.714   9.910  11.804  0.00  0.00    +0.000 N 
ATOM     12  O   UNL     1      49.716   9.020  11.327  0.00  0.00    +0.000 OA
ATOM     13  H   UNL     1      46.815   9.927  12.256  0.00  0.00    +0.000 HD
ATOM     14  H   UNL     1      47.940  10.672  11.175  0.00  0.00    +0.000 HD
ENDBRANCH   6  10
BRANCH   1  15
ATOM     15  C   UNL     1      47.456   4.403  16.802  0.00  0.00    +0.000 C 
BRANCH  15  19
ATOM     16  C   UNL     1      51.349   2.712  17.690  0.00  0.00    +0.000 A 
ATOM     17  C   UNL     1      50.340   1.925  17.118  0.00  0.00    +0.000 A 
ATOM     18  C   UNL     1      49.075   2.463  16.864  0.00  0.00    +0.000 A 
ATOM     19  C   UNL     1      48.787   3.800  17.177  0.00  0.00    +0.000 A 
ATOM     20  C   UNL     1      49.783   4.556  17.801  0.00  0.00    +0.000 A 
ATOM     21  F   UNL     1      49.535   5.820  18.173  0.00  0.00    +0.000 F 
ATOM     22  C   UNL     1      51.056   4.037  18.031  0.00  0.00    +0.000 A 
BRANCH  16  23
ATOM     23  C   UNL     1      52.731   2.156  17.926  0.00  0.00    +0.000 C 
BRANCH  23  24
ATOM     24  C   UNL     1      52.888   0.744  17.352  0.00  0.00    +0.000 C 
BRANCH  24  25
ATOM     25  N   UNL     1      52.878  -0.260  18.414  0.00  0.00    +0.000 NA
ATOM     26  H   UNL     1      53.724  -0.163  18.976  0.00  0.00    +0.000 HD
ATOM     27  H   UNL     1      52.914  -1.193  18.006  0.00  0.00    +0.000 HD
ENDBRANCH  24  25
ENDBRANCH  23  24
ENDBRANCH  16  23
ENDBRANCH  15  19
ENDBRANCH   1  15
TORSDOF 6
ENDMDL
MODEL 9
REMARK VINA RESULT:    -5.288      4.252      8.596
REMARK INTER + INTRA:          -7.731
REMARK INTER:                  -6.967
REMARK INTRA:                  -0.764
REMARK UNBOUND:                -0.743
REMARK  Name = 
REMARK  6 active torsions:
REMARK  status: ('A' for Active; 'I' for Inactive)
REMARK    1  A    between atoms: N_1  and  C_2
REMARK    2  A    between atoms: C_2  and  C_3
REMARK    3  A    between atoms: C_3  and  C_4
REMARK    4  A    between atoms: C_7  and  C_8
REMARK    5  A    between atoms: C_8  and  N_9
REMARK    6  A    between atoms: C_14  and  C_15
REMARK                            x       y       z     vdW  Elec       q    Type
REMARK                         _______ _______ _______ _____ _____    ______ ____
ROOT
ATOM      1  N   UNL     1      47.841   7.342  13.875  0.00  0.00    +0.000 N 
ATOM      2  N   UNL     1      47.671   8.682  13.748  0.00  0.00    +0.000 NA
ATOM      3  C   UNL     1      46.625   8.785  12.925  0.00  0.00    +0.000 A 
ATOM      4  C   UNL     1      46.080   7.531  12.572  0.00  0.00    +0.000 A 
ATOM      5  C   UNL     1      45.030   7.088  11.744  0.00  0.00    +0.000 A 
ATOM      6  C   UNL     1      44.793   5.710  11.616  0.00  0.00    +0.000 A 
ATOM      7  C   UNL     1      45.582   4.799  12.337  0.00  0.00    +0.000 A 
ATOM      8  C   UNL     1      46.617   5.225  13.176  0.00  0.00    +0.000 A 
ATOM      9  C   UNL     1      46.862   6.602  13.250  0.00  0.00    +0.000 A 
ENDROOT
BRANCH   6  10
ATOM     10  C   UNL     1      43.736   5.148  10.721  0.00  0.00    +0.000 C 
ATOM     11  N   UNL     1      44.101   4.707   9.478  0.00  0.00    +0.000 N 
ATOM     12  O   UNL     1      42.570   5.073  11.074  0.00  0.00    +0.000 OA
ATOM     13  H   UNL     1      45.030   4.735   9.090  0.00  0.00    +0.000 HD
ATOM     14  H   UNL     1      43.359   4.333   8.898  0.00  0.00    +0.000 HD
ENDBRANCH   6  10
BRANCH   1  15
ATOM     15  C   UNL     1      48.978   6.836  14.632  0.00  0.00    +0.000 C 
BRANCH  15  19
ATOM     16  C   UNL     1      48.213   5.959  18.809  0.00  0.00    +0.000 A 
ATOM     17  C   UNL     1      48.057   4.970  17.830  0.00  0.00    +0.000 A 
ATOM     18  C   UNL     1      48.271   5.263  16.480  0.00  0.00    +0.000 A 
ATOM     19  C   UNL     1      48.645   6.553  16.075  0.00  0.00    +0.000 A 
ATOM     20  C   UNL     1      48.739   7.546  17.055  0.00  0.00    +0.000 A 
ATOM     21  F   UNL     1      49.035   8.807  16.710  0.00  0.00    +0.000 F 
ATOM     22  C   UNL     1      48.556   7.255  18.407  0.00  0.00    +0.000 A 
BRANCH  16  23
ATOM     23  C   UNL     1      48.030   5.644  20.272  0.00  0.00    +0.000 C 
BRANCH  23  24
ATOM     24  C   UNL     1      49.354   5.700  21.042  0.00  0.00    +0.000 C 
BRANCH  24  25
ATOM     25  N   UNL     1      50.169   4.518  20.773  0.00  0.00    +0.000 NA
ATOM     26  H   UNL     1      50.888   4.435  21.491  0.00  0.00    +0.000 HD
ATOM     27  H   UNL     1      50.663   4.635  19.889  0.00  0.00    +0.000 HD
ENDBRANCH  24  25
ENDBRANCH  23  24
ENDBRANCH  16  23
ENDBRANCH  15  19
ENDBRANCH   1  15
TORSDOF 6
ENDMDL
