MODEL 1
REMARK VINA RESULT:    -9.785      0.000      0.000
REMARK INTER + INTRA:         -13.807
REMARK INTER:                 -13.217
REMARK INTRA:                  -0.590
REMARK UNBOUND:                -0.590
REMARK  Name = 
REMARK  8 active torsions:
REMARK  status: ('A' for Active; 'I' for Inactive)
REMARK    1  A    between atoms: C_1  and  C_2
REMARK    2  A    between atoms: C_9  and  C_10
REMARK    3  A    between atoms: C_13  and  O_14
REMARK    4  A    between atoms: O_14  and  C_15
REMARK    5  A    between atoms: C_15  and  N_16
REMARK    6  A    between atoms: N_16  and  C_17
REMARK    7  A    between atoms: C_20  and  C_21
REMARK    8  A    between atoms: C_32  and  C_33
REMARK                            x       y       z     vdW  Elec       q    Type
REMARK                         _______ _______ _______ _____ _____    ______ ____
ROOT
ATOM      1  C   UNL     1      47.112   5.748  13.702  0.00  0.00    +0.000 C 
ATOM      2  C   UNL     1      47.946   6.465  12.717  0.00  0.00    +0.000 C 
ATOM      3  C   UNL     1      47.047   6.648  11.626  0.00  0.00    +0.000 C 
ATOM      4  C   UNL     1      45.892   6.070  11.983  0.00  0.00    +0.000 C 
ATOM      5  N   UNL     1      45.904   5.537  13.263  0.00  0.00    +0.000 NA
ENDROOT
BRANCH   1  14
ATOM      6  C   UNL     1      51.368   9.939  17.321  0.00  0.00    +0.000 C 
ATOM      7  C   UNL     1      50.722   8.642  17.791  0.00  0.00    +0.000 C 
ATOM      8  C   UNL     1      50.697   7.587  16.661  0.00  0.00    +0.000 C 
ATOM      9  N   UNL     1      50.216   6.325  17.205  0.00  0.00    +0.000 N 
ATOM     10  C   UNL     1      49.211   5.602  16.630  0.00  0.00    +0.000 A 
ATOM     11  N   UNL     1      48.813   4.470  17.233  0.00  0.00    +0.000 NA
ATOM     12  C   UNL     1      47.799   3.774  16.695  0.00  0.00    +0.000 A 
ATOM     13  C   UNL     1      47.161   4.159  15.552  0.00  0.00    +0.000 A 
ATOM     14  C   UNL     1      47.657   5.308  14.991  0.00  0.00    +0.000 A 
ATOM     15  N   UNL     1      48.655   6.050  15.505  0.00  0.00    +0.000 NA
ATOM     16  C   UNL     1      50.879   5.846  18.409  0.00  0.00    +0.000 C 
ATOM     17  C   UNL     1      50.882   6.964  19.466  0.00  0.00    +0.000 C 
ATOM     18  C   UNL     1      51.691   6.533  20.681  0.00  0.00    +0.000 C 
ATOM     19  O   UNL     1      51.470   8.170  18.935  0.00  0.00    +0.000 OA
ENDBRANCH   1  14
BRANCH   4  20
ATOM     20  O   UNL     1      44.800   6.131  11.156  0.00  0.00    +0.000 OA
BRANCH  20  21
ATOM     21  C   UNL     1      43.828   5.069  11.052  0.00  0.00    +0.000 C 
ATOM     22  C   UNL     1      42.624   5.263  11.962  0.00  0.00    +0.000 C 
ATOM     23  C   UNL     1      43.513   4.074  12.142  0.00  0.00    +0.000 C 
BRANCH  21  24
ATOM     24  N   UNL     1      43.628   4.699   9.622  0.00  0.00    +0.000 N 
ATOM     25  H   UNL     1      43.478   5.548   9.075  0.00  0.00    +0.000 HD
BRANCH  24  26
ATOM     26  C   UNL     1      44.674   4.005   8.949  0.00  0.00    +0.000 A 
ATOM     27  N   UNL     1      45.542   4.703   8.173  0.00  0.00    +0.000 NA
ATOM     28  C   UNL     1      46.515   4.018   7.520  0.00  0.00    +0.000 A 
ATOM     29  C   UNL     1      46.702   2.651   7.610  0.00  0.00    +0.000 A 
ATOM     30  C   UNL     1      45.828   1.935   8.430  0.00  0.00    +0.000 A 
ATOM     31  C   UNL     1      44.808   2.615   9.088  0.00  0.00    +0.000 A 
ATOM     32  F   UNL     1      43.939   1.912   9.833  0.00  0.00    +0.000 F 
BRANCH  29  33
ATOM     33  C   UNL     1      47.762   1.917   6.876  0.00  0.00    +0.000 C 
ATOM     34  N   UNL     1      48.712   2.618   6.193  0.00  0.00    +0.000 N 
ATOM     35  O   UNL     1      47.785   0.689   6.871  0.00  0.00    +0.000 OA
ATOM     36  H   UNL     1      48.788   3.620   6.120  0.00  0.00    +0.000 HD
ATOM     37  H   UNL     1      49.407   2.065   5.695  0.00  0.00    +0.000 HD
ENDBRANCH  29  33
ENDBRANCH  24  26
ENDBRANCH  21  24
ENDBRANCH  20  21
ENDBRANCH   4  20
TORSDOF 6
ENDMDL
MODEL 2
REMARK VINA RESULT:    -9.731      1.454      2.488
REMARK INTER + INTRA:         -13.734
REMARK INTER:                 -12.662
REMARK INTRA:                  -1.072
REMARK UNBOUND:                -0.590
REMARK  Name = 
REMARK  8 active torsions:
REMARK  status: ('A' for Active; 'I' for Inactive)
REMARK    1  A    between atoms: C_1  and  C_2
REMARK    2  A    between atoms: C_9  and  C_10
REMARK    3  A    between atoms: C_13  and  O_14
REMARK    4  A    between atoms: O_14  and  C_15
REMARK    5  A    between atoms: C_15  and  N_16
REMARK    6  A    between atoms: N_16  and  C_17
REMARK    7  A    between atoms: C_20  and  C_21
REMARK    8  A    between atoms: C_32  and  C_33
REMARK                            x       y       z     vdW  Elec       q    Type
REMARK                         _______ _______ _______ _____ _____    ______ ____
ROOT
ATOM      1  C   UNL     1      47.503   7.233  13.306  0.00  0.00    +0.000 C 
ATOM      2  C   UNL     1      48.212   6.999  12.033  0.00  0.00    +0.000 C 
ATOM      3  C   UNL     1      47.148   6.674  11.141  0.00  0.00    +0.000 C 
ATOM      4  C   UNL     1      46.022   6.703  11.865  0.00  0.00    +0.000 C 
ATOM      5  N   UNL     1      46.215   7.070  13.188  0.00  0.00    +0.000 NA
ENDROOT
BRANCH   1  14
ATOM      6  C   UNL     1      50.219   2.133  17.227  0.00  0.00    +0.000 C 
ATOM      7  C   UNL     1      50.454   3.632  17.361  0.00  0.00    +0.000 C 
ATOM      8  C   UNL     1      49.155   4.428  17.098  0.00  0.00    +0.000 C 
ATOM      9  N   UNL     1      49.396   5.834  17.391  0.00  0.00    +0.000 N 
ATOM     10  C   UNL     1      49.080   6.839  16.523  0.00  0.00    +0.000 A 
ATOM     11  N   UNL     1      49.380   8.101  16.872  0.00  0.00    +0.000 NA
ATOM     12  C   UNL     1      49.109   9.091  16.007  0.00  0.00    +0.000 A 
ATOM     13  C   UNL     1      48.528   8.874  14.792  0.00  0.00    +0.000 A 
ATOM     14  C   UNL     1      48.228   7.560  14.538  0.00  0.00    +0.000 A 
ATOM     15  N   UNL     1      48.501   6.533  15.363  0.00  0.00    +0.000 NA
ATOM     16  C   UNL     1      49.988   6.132  18.688  0.00  0.00    +0.000 C 
ATOM     17  C   UNL     1      51.255   5.279  18.874  0.00  0.00    +0.000 C 
ATOM     18  C   UNL     1      51.813   5.472  20.277  0.00  0.00    +0.000 C 
ATOM     19  O   UNL     1      50.962   3.878  18.692  0.00  0.00    +0.000 OA
ENDBRANCH   1  14
BRANCH   4  20
ATOM     20  O   UNL     1      44.806   6.487  11.268  0.00  0.00    +0.000 OA
BRANCH  20  21
ATOM     21  C   UNL     1      44.115   5.221  11.320  0.00  0.00    +0.000 C 
ATOM     22  C   UNL     1      43.093   5.138  12.445  0.00  0.00    +0.000 C 
ATOM     23  C   UNL     1      44.258   4.201  12.424  0.00  0.00    +0.000 C 
BRANCH  21  24
ATOM     24  N   UNL     1      43.744   4.786   9.944  0.00  0.00    +0.000 N 
ATOM     25  H   UNL     1      43.527   5.609   9.381  0.00  0.00    +0.000 HD
BRANCH  24  26
ATOM     26  C   UNL     1      44.701   4.058   9.182  0.00  0.00    +0.000 A 
ATOM     27  N   UNL     1      45.536   4.729   8.348  0.00  0.00    +0.000 NA
ATOM     28  C   UNL     1      46.423   4.012   7.612  0.00  0.00    +0.000 A 
ATOM     29  C   UNL     1      46.556   2.637   7.671  0.00  0.00    +0.000 A 
ATOM     30  C   UNL     1      45.717   1.948   8.549  0.00  0.00    +0.000 A 
ATOM     31  C   UNL     1      44.783   2.662   9.293  0.00  0.00    +0.000 A 
ATOM     32  F   UNL     1      43.946   1.985  10.097  0.00  0.00    +0.000 F 
BRANCH  29  33
ATOM     33  C   UNL     1      47.521   1.868   6.847  0.00  0.00    +0.000 C 
ATOM     34  N   UNL     1      48.670   2.470   6.425  0.00  0.00    +0.000 N 
ATOM     35  O   UNL     1      47.290   0.704   6.535  0.00  0.00    +0.000 OA
ATOM     36  H   UNL     1      48.959   3.418   6.612  0.00  0.00    +0.000 HD
ATOM     37  H   UNL     1      49.290   1.903   5.851  0.00  0.00    +0.000 HD
ENDBRANCH  29  33
ENDBRANCH  24  26
ENDBRANCH  21  24
ENDBRANCH  20  21
ENDBRANCH   4  20
TORSDOF 6
ENDMDL
MODEL 3
REMARK VINA RESULT:    -9.280      1.995      3.029
REMARK INTER + INTRA:         -13.125
REMARK INTER:                 -12.280
REMARK INTRA:                  -0.845
REMARK UNBOUND:                -0.590
REMARK  Name = 
REMARK  8 active torsions:
REMARK  status: ('A' for Active; 'I' for Inactive)
REMARK    1  A    between atoms: C_1  and  C_2
REMARK    2  A    between atoms: C_9  and  C_10
REMARK    3  A    between atoms: C_13  and  O_14
REMARK    4  A    between atoms: O_14  and  C_15
REMARK    5  A    between atoms: C_15  and  N_16
REMARK    6  A    between atoms: N_16  and  C_17
REMARK    7  A    between atoms: C_20  and  C_21
REMARK    8  A    between atoms: C_32  and  C_33
REMARK                            x       y       z     vdW  Elec       q    Type
REMARK                         _______ _______ _______ _____ _____    ______ ____
ROOT
ATOM      1  C   UNL     1      47.328   7.835  12.411  0.00  0.00    +0.000 C 
ATOM      2  C   UNL     1      46.451   8.817  13.078  0.00  0.00    +0.000 C 
ATOM      3  C   UNL     1      45.151   8.403  12.662  0.00  0.00    +0.000 C 
ATOM      4  C   UNL     1      45.328   7.352  11.850  0.00  0.00    +0.000 C 
ATOM      5  N   UNL     1      46.654   6.972  11.705  0.00  0.00    +0.000 NA
ENDROOT
BRANCH   1  14
ATOM      6  C   UNL     1      50.496   5.559  18.203  0.00  0.00    +0.000 C 
ATOM      7  C   UNL     1      51.147   5.958  16.886  0.00  0.00    +0.000 C 
ATOM      8  C   UNL     1      50.445   7.188  16.265  0.00  0.00    +0.000 C 
ATOM      9  N   UNL     1      51.199   7.620  15.096  0.00  0.00    +0.000 N 
ATOM     10  C   UNL     1      50.620   7.846  13.880  0.00  0.00    +0.000 A 
ATOM     11  N   UNL     1      51.410   8.204  12.854  0.00  0.00    +0.000 NA
ATOM     12  C   UNL     1      50.855   8.389  11.646  0.00  0.00    +0.000 A 
ATOM     13  C   UNL     1      49.518   8.243  11.416  0.00  0.00    +0.000 A 
ATOM     14  C   UNL     1      48.789   7.910  12.528  0.00  0.00    +0.000 A 
ATOM     15  N   UNL     1      49.303   7.692  13.752  0.00  0.00    +0.000 NA
ATOM     16  C   UNL     1      52.628   7.822  15.286  0.00  0.00    +0.000 C 
ATOM     17  C   UNL     1      53.236   6.564  15.931  0.00  0.00    +0.000 C 
ATOM     18  C   UNL     1      54.702   6.805  16.266  0.00  0.00    +0.000 C 
ATOM     19  O   UNL     1      52.543   6.226  17.149  0.00  0.00    +0.000 OA
ENDBRANCH   1  14
BRANCH   4  20
ATOM     20  O   UNL     1      44.248   6.687  11.329  0.00  0.00    +0.000 OA
BRANCH  20  21
ATOM     21  C   UNL     1      44.139   5.247  11.317  0.00  0.00    +0.000 C 
ATOM     22  C   UNL     1      43.437   4.685  12.545  0.00  0.00    +0.000 C 
ATOM     23  C   UNL     1      44.859   4.316  12.262  0.00  0.00    +0.000 C 
BRANCH  21  24
ATOM     24  N   UNL     1      43.749   4.777   9.958  0.00  0.00    +0.000 N 
ATOM     25  H   UNL     1      43.512   5.585   9.380  0.00  0.00    +0.000 HD
BRANCH  24  26
ATOM     26  C   UNL     1      44.701   4.043   9.195  0.00  0.00    +0.000 A 
ATOM     27  N   UNL     1      45.558   4.711   8.381  0.00  0.00    +0.000 NA
ATOM     28  C   UNL     1      46.440   3.989   7.644  0.00  0.00    +0.000 A 
ATOM     29  C   UNL     1      46.547   2.611   7.684  0.00  0.00    +0.000 A 
ATOM     30  C   UNL     1      45.686   1.924   8.542  0.00  0.00    +0.000 A 
ATOM     31  C   UNL     1      44.757   2.644   9.287  0.00  0.00    +0.000 A 
ATOM     32  F   UNL     1      43.898   1.971  10.071  0.00  0.00    +0.000 F 
BRANCH  29  33
ATOM     33  C   UNL     1      47.507   1.837   6.859  0.00  0.00    +0.000 C 
ATOM     34  N   UNL     1      48.593   2.467   6.326  0.00  0.00    +0.000 N 
ATOM     35  O   UNL     1      47.328   0.641   6.645  0.00  0.00    +0.000 OA
ATOM     36  H   UNL     1      48.836   3.440   6.427  0.00  0.00    +0.000 HD
ATOM     37  H   UNL     1      49.212   1.894   5.757  0.00  0.00    +0.000 HD
ENDBRANCH  29  33
ENDBRANCH  24  26
ENDBRANCH  21  24
ENDBRANCH  20  21
ENDBRANCH   4  20
TORSDOF 6
ENDMDL
MODEL 4
REMARK VINA RESULT:    -8.452      3.129      3.896
REMARK INTER + INTRA:         -12.006
REMARK INTER:                 -11.693
REMARK INTRA:                  -0.313
REMARK UNBOUND:                -0.590
REMARK  Name = 
REMARK  8 active torsions:
REMARK  status: ('A' for Active; 'I' for Inactive)
REMARK    1  A    between atoms: C_1  and  C_2
REMARK    2  A    between atoms: C_9  and  C_10
REMARK    3  A    between atoms: C_13  and  O_14
REMARK    4  A    between atoms: O_14  and  C_15
REMARK    5  A    between atoms: C_15  and  N_16
REMARK    6  A    between atoms: N_16  and  C_17
REMARK    7  A    between atoms: C_20  and  C_21
REMARK    8  A    between atoms: C_32  and  C_33
REMARK                            x       y       z     vdW  Elec       q    Type
REMARK                         _______ _______ _______ _____ _____    ______ ____
ROOT
ATOM      1  C   UNL     1      47.030   7.879  12.921  0.00  0.00    +0.000 C 
ATOM      2  C   UNL     1      46.292   9.147  12.757  0.00  0.00    +0.000 C 
ATOM      3  C   UNL     1      45.113   8.732  12.071  0.00  0.00    +0.000 C 
ATOM      4  C   UNL     1      45.233   7.413  11.872  0.00  0.00    +0.000 C 
ATOM      5  N   UNL     1      46.389   6.867  12.410  0.00  0.00    +0.000 NA
ENDROOT
BRANCH   1  14
ATOM      6  C   UNL     1      52.386  11.320  10.050  0.00  0.00    +0.000 C 
ATOM      7  C   UNL     1      52.335  10.662  11.421  0.00  0.00    +0.000 C 
ATOM      8  C   UNL     1      51.557   9.326  11.373  0.00  0.00    +0.000 C 
ATOM      9  N   UNL     1      51.672   8.667  12.666  0.00  0.00    +0.000 N 
ATOM     10  C   UNL     1      50.595   8.191  13.357  0.00  0.00    +0.000 A 
ATOM     11  N   UNL     1      50.804   7.634  14.561  0.00  0.00    +0.000 NA
ATOM     12  C   UNL     1      49.746   7.200  15.264  0.00  0.00    +0.000 A 
ATOM     13  C   UNL     1      48.465   7.288  14.803  0.00  0.00    +0.000 A 
ATOM     14  C   UNL     1      48.354   7.839  13.553  0.00  0.00    +0.000 A 
ATOM     15  N   UNL     1      49.381   8.308  12.821  0.00  0.00    +0.000 NA
ATOM     16  C   UNL     1      53.020   8.516  13.198  0.00  0.00    +0.000 C 
ATOM     17  C   UNL     1      53.726   9.884  13.184  0.00  0.00    +0.000 C 
ATOM     18  C   UNL     1      55.179   9.725  13.605  0.00  0.00    +0.000 C 
ATOM     19  O   UNL     1      53.697  10.462  11.863  0.00  0.00    +0.000 OA
ENDBRANCH   1  14
BRANCH   4  20
ATOM     20  O   UNL     1      44.218   6.705  11.281  0.00  0.00    +0.000 OA
BRANCH  20  21
ATOM     21  C   UNL     1      44.170   5.262  11.262  0.00  0.00    +0.000 C 
ATOM     22  C   UNL     1      43.508   4.666  12.497  0.00  0.00    +0.000 C 
ATOM     23  C   UNL     1      44.940   4.358  12.194  0.00  0.00    +0.000 C 
BRANCH  21  24
ATOM     24  N   UNL     1      43.782   4.783   9.906  0.00  0.00    +0.000 N 
ATOM     25  H   UNL     1      43.540   5.586   9.324  0.00  0.00    +0.000 HD
BRANCH  24  26
ATOM     26  C   UNL     1      44.739   4.051   9.147  0.00  0.00    +0.000 A 
ATOM     27  N   UNL     1      45.567   4.716   8.303  0.00  0.00    +0.000 NA
ATOM     28  C   UNL     1      46.454   3.996   7.570  0.00  0.00    +0.000 A 
ATOM     29  C   UNL     1      46.593   2.623   7.642  0.00  0.00    +0.000 A 
ATOM     30  C   UNL     1      45.762   1.938   8.531  0.00  0.00    +0.000 A 
ATOM     31  C   UNL     1      44.828   2.656   9.272  0.00  0.00    +0.000 A 
ATOM     32  F   UNL     1      43.998   1.985  10.087  0.00  0.00    +0.000 F 
BRANCH  29  33
ATOM     33  C   UNL     1      47.558   1.849   6.822  0.00  0.00    +0.000 C 
ATOM     34  N   UNL     1      48.727   2.435   6.433  0.00  0.00    +0.000 N 
ATOM     35  O   UNL     1      47.310   0.695   6.483  0.00  0.00    +0.000 OA
ATOM     36  H   UNL     1      49.031   3.373   6.642  0.00  0.00    +0.000 HD
ATOM     37  H   UNL     1      49.346   1.867   5.859  0.00  0.00    +0.000 HD
ENDBRANCH  29  33
ENDBRANCH  24  26
ENDBRANCH  21  24
ENDBRANCH  20  21
ENDBRANCH   4  20
TORSDOF 6
ENDMDL
MODEL 5
REMARK VINA RESULT:    -7.067      3.238      9.263
REMARK INTER + INTRA:         -10.136
REMARK INTER:                  -9.303
REMARK INTRA:                  -0.833
REMARK UNBOUND:                -0.590
REMARK  Name = 
REMARK  8 active torsions:
REMARK  status: ('A' for Active; 'I' for Inactive)
REMARK    1  A    between atoms: C_1  and  C_2
REMARK    2  A    between atoms: C_9  and  C_10
REMARK    3  A    between atoms: C_13  and  O_14
REMARK    4  A    between atoms: O_14  and  C_15
REMARK    5  A    between atoms: C_15  and  N_16
REMARK    6  A    between atoms: N_16  and  C_17
REMARK    7  A    between atoms: C_20  and  C_21
REMARK    8  A    between atoms: C_32  and  C_33
REMARK                            x       y       z     vdW  Elec       q    Type
REMARK                         _______ _______ _______ _____ _____    ______ ____
ROOT
ATOM      1  C   UNL     1      45.250   6.940  11.574  0.00  0.00    +0.000 C 
ATOM      2  C   UNL     1      44.150   7.736  10.996  0.00  0.00    +0.000 C 
ATOM      3  C   UNL     1      44.504   9.067  11.365  0.00  0.00    +0.000 C 
ATOM      4  C   UNL     1      45.634   8.976  12.077  0.00  0.00    +0.000 C 
ATOM      5  N   UNL     1      46.123   7.684  12.194  0.00  0.00    +0.000 NA
ENDROOT
BRANCH   1  14
ATOM      6  C   UNL     1      47.081   3.876   5.572  0.00  0.00    +0.000 C 
ATOM      7  C   UNL     1      46.885   3.214   6.929  0.00  0.00    +0.000 C 
ATOM      8  C   UNL     1      45.685   3.831   7.685  0.00  0.00    +0.000 C 
ATOM      9  N   UNL     1      45.448   3.062   8.898  0.00  0.00    +0.000 N 
ATOM     10  C   UNL     1      45.319   3.638  10.130  0.00  0.00    +0.000 A 
ATOM     11  N   UNL     1      45.142   2.837  11.193  0.00  0.00    +0.000 NA
ATOM     12  C   UNL     1      45.054   3.392  12.412  0.00  0.00    +0.000 A 
ATOM     13  C   UNL     1      45.124   4.739  12.618  0.00  0.00    +0.000 A 
ATOM     14  C   UNL     1      45.273   5.477  11.472  0.00  0.00    +0.000 A 
ATOM     15  N   UNL     1      45.388   4.964  10.234  0.00  0.00    +0.000 NA
ATOM     16  C   UNL     1      45.333   1.619   8.738  0.00  0.00    +0.000 C 
ATOM     17  C   UNL     1      46.551   1.098   7.956  0.00  0.00    +0.000 C 
ATOM     18  C   UNL     1      46.384  -0.385   7.657  0.00  0.00    +0.000 C 
ATOM     19  O   UNL     1      46.695   1.800   6.704  0.00  0.00    +0.000 OA
ENDBRANCH   1  14
BRANCH   4  20
ATOM     20  O   UNL     1      46.263  10.108  12.529  0.00  0.00    +0.000 OA
BRANCH  20  21
ATOM     21  C   UNL     1      47.694  10.293  12.470  0.00  0.00    +0.000 C 
ATOM     22  C   UNL     1      48.133  11.257  11.377  0.00  0.00    +0.000 C 
ATOM     23  C   UNL     1      48.581   9.831  11.340  0.00  0.00    +0.000 C 
BRANCH  21  24
ATOM     24  N   UNL     1      48.247  10.428  13.847  0.00  0.00    +0.000 N 
ATOM     25  H   UNL     1      47.604  10.983  14.413  0.00  0.00    +0.000 HD
BRANCH  24  26
ATOM     26  C   UNL     1      48.479   9.244  14.604  0.00  0.00    +0.000 A 
ATOM     27  N   UNL     1      48.762   8.086  13.956  0.00  0.00    +0.000 NA
ATOM     28  C   UNL     1      48.954   6.965  14.696  0.00  0.00    +0.000 A 
ATOM     29  C   UNL     1      48.907   6.924  16.077  0.00  0.00    +0.000 A 
ATOM     30  C   UNL     1      48.643   8.119  16.747  0.00  0.00    +0.000 A 
ATOM     31  C   UNL     1      48.418   9.275  16.006  0.00  0.00    +0.000 A 
ATOM     32  F   UNL     1      48.115  10.410  16.656  0.00  0.00    +0.000 F 
BRANCH  29  33
ATOM     33  C   UNL     1      49.103   5.685  16.870  0.00  0.00    +0.000 C 
ATOM     34  N   UNL     1      48.160   5.319  17.786  0.00  0.00    +0.000 N 
ATOM     35  O   UNL     1      50.107   4.995  16.717  0.00  0.00    +0.000 OA
ATOM     36  H   UNL     1      47.306   5.809  18.001  0.00  0.00    +0.000 HD
ATOM     37  H   UNL     1      48.351   4.469  18.313  0.00  0.00    +0.000 HD
ENDBRANCH  29  33
ENDBRANCH  24  26
ENDBRANCH  21  24
ENDBRANCH  20  21
ENDBRANCH   4  20
TORSDOF 6
ENDMDL
MODEL 6
REMARK VINA RESULT:    -7.061      4.641      7.099
REMARK INTER + INTRA:         -10.128
REMARK INTER:                  -9.248
REMARK INTRA:                  -0.879
REMARK UNBOUND:                -0.590
REMARK  Name = 
REMARK  8 active torsions:
REMARK  status: ('A' for Active; 'I' for Inactive)
REMARK    1  A    between atoms: C_1  and  C_2
REMARK    2  A    between atoms: C_9  and  C_10
REMARK    3  A    between atoms: C_13  and  O_14
REMARK    4  A    between atoms: O_14  and  C_15
REMARK    5  A    between atoms: C_15  and  N_16
REMARK    6  A    between atoms: N_16  and  C_17
REMARK    7  A    between atoms: C_20  and  C_21
REMARK    8  A    between atoms: C_32  and  C_33
REMARK                            x       y       z     vdW  Elec       q    Type
REMARK                         _______ _______ _______ _____ _____    ______ ____
ROOT
ATOM      1  C   UNL     1      49.538   8.317  13.696  0.00  0.00    +0.000 C 
ATOM      2  C   UNL     1      49.071   8.965  14.937  0.00  0.00    +0.000 C 
ATOM      3  C   UNL     1      48.718   7.850  15.754  0.00  0.00    +0.000 C 
ATOM      4  C   UNL     1      48.944   6.754  15.018  0.00  0.00    +0.000 C 
ATOM      5  N   UNL     1      49.472   7.018  13.763  0.00  0.00    +0.000 NA
ENDROOT
BRANCH   1  14
ATOM      6  C   UNL     1      53.887   5.542   8.989  0.00  0.00    +0.000 C 
ATOM      7  C   UNL     1      53.114   6.848   8.880  0.00  0.00    +0.000 C 
ATOM      8  C   UNL     1      53.072   7.590  10.237  0.00  0.00    +0.000 C 
ATOM      9  N   UNL     1      52.461   8.897  10.041  0.00  0.00    +0.000 N 
ATOM     10  C   UNL     1      51.438   9.363  10.816  0.00  0.00    +0.000 A 
ATOM     11  N   UNL     1      50.916  10.567  10.527  0.00  0.00    +0.000 NA
ATOM     12  C   UNL     1      49.884  11.014  11.260  0.00  0.00    +0.000 A 
ATOM     13  C   UNL     1      49.349  10.306  12.296  0.00  0.00    +0.000 A 
ATOM     14  C   UNL     1      49.968   9.106  12.536  0.00  0.00    +0.000 A 
ATOM     15  N   UNL     1      50.988   8.606  11.816  0.00  0.00    +0.000 NA
ATOM     16  C   UNL     1      53.010   9.714   8.968  0.00  0.00    +0.000 C 
ATOM     17  C   UNL     1      53.038   8.890   7.668  0.00  0.00    +0.000 C 
ATOM     18  C   UNL     1      53.735   9.676   6.566  0.00  0.00    +0.000 C 
ATOM     19  O   UNL     1      53.751   7.651   7.861  0.00  0.00    +0.000 OA
ENDBRANCH   1  14
BRANCH   4  20
ATOM     20  O   UNL     1      48.754   5.506  15.555  0.00  0.00    +0.000 OA
BRANCH  20  21
ATOM     21  C   UNL     1      47.568   4.717  15.318  0.00  0.00    +0.000 C 
ATOM     22  C   UNL     1      47.150   3.881  16.520  0.00  0.00    +0.000 C 
ATOM     23  C   UNL     1      47.532   3.210  15.239  0.00  0.00    +0.000 C 
BRANCH  21  24
ATOM     24  N   UNL     1      46.554   5.529  14.587  0.00  0.00    +0.000 N 
ATOM     25  H   UNL     1      46.963   6.431  14.340  0.00  0.00    +0.000 HD
BRANCH  24  26
ATOM     26  C   UNL     1      46.025   5.015  13.369  0.00  0.00    +0.000 A 
ATOM     27  N   UNL     1      45.391   3.816  13.373  0.00  0.00    +0.000 NA
ATOM     28  C   UNL     1      44.917   3.334  12.197  0.00  0.00    +0.000 A 
ATOM     29  C   UNL     1      45.011   3.997  10.987  0.00  0.00    +0.000 A 
ATOM     30  C   UNL     1      45.638   5.244  10.985  0.00  0.00    +0.000 A 
ATOM     31  C   UNL     1      46.154   5.744  12.177  0.00  0.00    +0.000 A 
ATOM     32  F   UNL     1      46.800   6.921  12.157  0.00  0.00    +0.000 F 
BRANCH  29  33
ATOM     33  C   UNL     1      44.501   3.448   9.706  0.00  0.00    +0.000 C 
ATOM     34  N   UNL     1      44.131   4.304   8.711  0.00  0.00    +0.000 N 
ATOM     35  O   UNL     1      44.400   2.236   9.539  0.00  0.00    +0.000 OA
ATOM     36  H   UNL     1      44.162   5.311   8.738  0.00  0.00    +0.000 HD
ATOM     37  H   UNL     1      43.775   3.876   7.859  0.00  0.00    +0.000 HD
ENDBRANCH  29  33
ENDBRANCH  24  26
ENDBRANCH  21  24
ENDBRANCH  20  21
ENDBRANCH   4  20
TORSDOF 6
ENDMDL
MODEL 7
REMARK VINA RESULT:    -6.870      3.125      4.585
REMARK INTER + INTRA:          -9.870
REMARK INTER:                  -9.205
REMARK INTRA:                  -0.665
REMARK UNBOUND:                -0.590
REMARK  Name = 
REMARK  8 active torsions:
REMARK  status: ('A' for Active; 'I' for Inactive)
REMARK    1  A    between atoms: C_1  and  C_2
REMARK    2  A    between atoms: C_9  and  C_10
REMARK    3  A    between atoms: C_13  and  O_14
REMARK    4  A    between atoms: O_14  and  C_15
REMARK    5  A    between atoms: C_15  and  N_16
REMARK    6  A    between atoms: N_16  and  C_17
REMARK    7  A    between atoms: C_20  and  C_21
REMARK    8  A    between atoms: C_32  and  C_33
REMARK                            x       y       z     vdW  Elec       q    Type
REMARK                         _______ _______ _______ _____ _____    ______ ____
ROOT
ATOM      1  C   UNL     1      49.046   8.785  13.871  0.00  0.00    +0.000 C 
ATOM      2  C   UNL     1      49.911   8.913  12.682  0.00  0.00    +0.000 C 
ATOM      3  C   UNL     1      48.964   9.016  11.620  0.00  0.00    +0.000 C 
ATOM      4  C   UNL     1      47.752   8.922  12.182  0.00  0.00    +0.000 C 
ATOM      5  N   UNL     1      47.780   8.807  13.563  0.00  0.00    +0.000 NA
ENDROOT
BRANCH   1  14
ATOM      6  C   UNL     1      47.483   3.088  17.596  0.00  0.00    +0.000 C 
ATOM      7  C   UNL     1      48.543   4.136  17.905  0.00  0.00    +0.000 C 
ATOM      8  C   UNL     1      48.045   5.558  17.554  0.00  0.00    +0.000 C 
ATOM      9  N   UNL     1      49.029   6.528  18.011  0.00  0.00    +0.000 N 
ATOM     10  C   UNL     1      49.525   7.517  17.212  0.00  0.00    +0.000 A 
ATOM     11  N   UNL     1      50.461   8.338  17.717  0.00  0.00    +0.000 NA
ATOM     12  C   UNL     1      50.981   9.288  16.925  0.00  0.00    +0.000 A 
ATOM     13  C   UNL     1      50.592   9.467  15.630  0.00  0.00    +0.000 A 
ATOM     14  C   UNL     1      49.611   8.605  15.213  0.00  0.00    +0.000 A 
ATOM     15  N   UNL     1      49.076   7.625  15.962  0.00  0.00    +0.000 NA
ATOM     16  C   UNL     1      49.462   6.407  19.397  0.00  0.00    +0.000 C 
ATOM     17  C   UNL     1      49.914   4.960  19.662  0.00  0.00    +0.000 C 
ATOM     18  C   UNL     1      50.239   4.777  21.137  0.00  0.00    +0.000 C 
ATOM     19  O   UNL     1      48.874   4.025  19.307  0.00  0.00    +0.000 OA
ENDBRANCH   1  14
BRANCH   4  20
ATOM     20  O   UNL     1      46.621   9.047  11.416  0.00  0.00    +0.000 OA
BRANCH  20  21
ATOM     21  C   UNL     1      45.293   9.126  11.978  0.00  0.00    +0.000 C 
ATOM     22  C   UNL     1      44.219   9.432  10.944  0.00  0.00    +0.000 C 
ATOM     23  C   UNL     1      44.466  10.386  12.069  0.00  0.00    +0.000 C 
BRANCH  21  24
ATOM     24  N   UNL     1      45.088   8.024  12.960  0.00  0.00    +0.000 N 
ATOM     25  H   UNL     1      44.301   8.259  13.566  0.00  0.00    +0.000 HD
BRANCH  24  26
ATOM     26  C   UNL     1      44.800   6.721  12.465  0.00  0.00    +0.000 A 
ATOM     27  N   UNL     1      43.887   6.574  11.471  0.00  0.00    +0.000 NA
ATOM     28  C   UNL     1      43.609   5.320  11.033  0.00  0.00    +0.000 A 
ATOM     29  C   UNL     1      44.213   4.173  11.513  0.00  0.00    +0.000 A 
ATOM     30  C   UNL     1      45.173   4.324  12.515  0.00  0.00    +0.000 A 
ATOM     31  C   UNL     1      45.454   5.599  12.997  0.00  0.00    +0.000 A 
ATOM     32  F   UNL     1      46.341   5.730  13.997  0.00  0.00    +0.000 F 
BRANCH  29  33
ATOM     33  C   UNL     1      43.885   2.808  11.033  0.00  0.00    +0.000 C 
ATOM     34  N   UNL     1      44.600   2.271  10.002  0.00  0.00    +0.000 N 
ATOM     35  O   UNL     1      42.974   2.165  11.546  0.00  0.00    +0.000 OA
ATOM     36  H   UNL     1      45.358   2.707   9.501  0.00  0.00    +0.000 HD
ATOM     37  H   UNL     1      44.324   1.338   9.702  0.00  0.00    +0.000 HD
ENDBRANCH  29  33
ENDBRANCH  24  26
ENDBRANCH  21  24
ENDBRANCH  20  21
ENDBRANCH   4  20
TORSDOF 6
ENDMDL
MODEL 8
REMARK VINA RESULT:    -6.803      3.279      5.085
REMARK INTER + INTRA:          -9.779
REMARK INTER:                  -8.657
REMARK INTRA:                  -1.121
REMARK UNBOUND:                -0.590
REMARK  Name = 
REMARK  8 active torsions:
REMARK  status: ('A' for Active; 'I' for Inactive)
REMARK    1  A    between atoms: C_1  and  C_2
REMARK    2  A    between atoms: C_9  and  C_10
REMARK    3  A    between atoms: C_13  and  O_14
REMARK    4  A    between atoms: O_14  and  C_15
REMARK    5  A    between atoms: C_15  and  N_16
REMARK    6  A    between atoms: N_16  and  C_17
REMARK    7  A    between atoms: C_20  and  C_21
REMARK    8  A    between atoms: C_32  and  C_33
REMARK                            x       y       z     vdW  Elec       q    Type
REMARK                         _______ _______ _______ _____ _____    ______ ____
ROOT
ATOM      1  C   UNL     1      50.208   8.836  14.644  0.00  0.00    +0.000 C 
ATOM      2  C   UNL     1      50.016  10.174  15.236  0.00  0.00    +0.000 C 
ATOM      3  C   UNL     1      48.979  10.725  14.427  0.00  0.00    +0.000 C 
ATOM      4  C   UNL     1      48.686   9.800  13.504  0.00  0.00    +0.000 C 
ATOM      5  N   UNL     1      49.409   8.624  13.637  0.00  0.00    +0.000 NA
ENDROOT
BRANCH   1  14
ATOM      6  C   UNL     1      48.341   2.836  17.691  0.00  0.00    +0.000 C 
ATOM      7  C   UNL     1      49.739   3.264  17.265  0.00  0.00    +0.000 C 
ATOM      8  C   UNL     1      49.971   4.768  17.540  0.00  0.00    +0.000 C 
ATOM      9  N   UNL     1      51.364   5.088  17.261  0.00  0.00    +0.000 N 
ATOM     10  C   UNL     1      51.744   6.131  16.467  0.00  0.00    +0.000 A 
ATOM     11  N   UNL     1      53.055   6.317  16.241  0.00  0.00    +0.000 NA
ATOM     12  C   UNL     1      53.434   7.317  15.429  0.00  0.00    +0.000 A 
ATOM     13  C   UNL     1      52.545   8.163  14.832  0.00  0.00    +0.000 A 
ATOM     14  C   UNL     1      51.234   7.916  15.148  0.00  0.00    +0.000 A 
ATOM     15  N   UNL     1      50.805   6.915  15.937  0.00  0.00    +0.000 NA
ATOM     16  C   UNL     1      52.362   4.237  17.896  0.00  0.00    +0.000 C 
ATOM     17  C   UNL     1      52.038   2.764  17.593  0.00  0.00    +0.000 C 
ATOM     18  C   UNL     1      52.986   1.852  18.359  0.00  0.00    +0.000 C 
ATOM     19  O   UNL     1      50.687   2.445  17.985  0.00  0.00    +0.000 OA
ENDBRANCH   1  14
BRANCH   4  20
ATOM     20  O   UNL     1      47.673  10.013  12.604  0.00  0.00    +0.000 OA
BRANCH  20  21
ATOM     21  C   UNL     1      46.665   9.025  12.301  0.00  0.00    +0.000 C 
ATOM     22  C   UNL     1      45.445   9.604  11.599  0.00  0.00    +0.000 C 
ATOM     23  C   UNL     1      45.299   8.958  12.940  0.00  0.00    +0.000 C 
BRANCH  21  24
ATOM     24  N   UNL     1      47.307   7.787  11.777  0.00  0.00    +0.000 N 
ATOM     25  H   UNL     1      48.100   7.544  12.371  0.00  0.00    +0.000 HD
BRANCH  24  26
ATOM     26  C   UNL     1      46.525   6.599  11.698  0.00  0.00    +0.000 A 
ATOM     27  N   UNL     1      45.865   6.313  10.548  0.00  0.00    +0.000 NA
ATOM     28  C   UNL     1      45.105   5.189  10.504  0.00  0.00    +0.000 A 
ATOM     29  C   UNL     1      44.976   4.293  11.549  0.00  0.00    +0.000 A 
ATOM     30  C   UNL     1      45.677   4.570  12.724  0.00  0.00    +0.000 A 
ATOM     31  C   UNL     1      46.441   5.731  12.798  0.00  0.00    +0.000 A 
ATOM     32  F   UNL     1      47.071   6.017  13.949  0.00  0.00    +0.000 F 
BRANCH  29  33
ATOM     33  C   UNL     1      44.128   3.077  11.489  0.00  0.00    +0.000 C 
ATOM     34  N   UNL     1      43.796   2.435  12.646  0.00  0.00    +0.000 N 
ATOM     35  O   UNL     1      43.733   2.640  10.412  0.00  0.00    +0.000 OA
ATOM     36  H   UNL     1      44.068   2.695  13.581  0.00  0.00    +0.000 HD
ATOM     37  H   UNL     1      43.225   1.598  12.548  0.00  0.00    +0.000 HD
ENDBRANCH  29  33
ENDBRANCH  24  26
ENDBRANCH  21  24
ENDBRANCH  20  21
ENDBRANCH   4  20
TORSDOF 6
ENDMDL
