MODEL 1
REMARK VINA RESULT:    -8.111      0.000      0.000
REMARK INTER + INTRA:         -12.632
REMARK INTER:                 -11.430
REMARK INTRA:                  -1.202
REMARK UNBOUND:                -1.202
REMARK  Name = 
REMARK  8 active torsions:
REMARK  status: ('A' for Active; 'I' for Inactive)
REMARK    1  A    between atoms: C_1  and  C_2
REMARK    2  A    between atoms: C_9  and  C_10
REMARK    3  A    between atoms: N_12  and  C_13
REMARK    4  A    between atoms: C_13  and  C_14
REMARK    5  A    between atoms: C_17  and  N_18
REMARK    6  A    between atoms: N_18  and  C_19
REMARK    7  A    between atoms: C_19  and  C_20
REMARK    8  A    between atoms: C_20  and  C_21
REMARK                            x       y       z     vdW  Elec       q    Type
REMARK                         _______ _______ _______ _____ _____    ______ ____
ROOT
ATOM      1  C   UNL     1      46.436   7.661  12.417  0.00  0.00    +0.000 A 
ATOM      2  C   UNL     1      46.941   6.765  11.465  0.00  0.00    +0.000 A 
ATOM      3  C   UNL     1      46.075   5.933  10.749  0.00  0.00    +0.000 A 
ATOM      4  C   UNL     1      44.694   5.974  10.966  0.00  0.00    +0.000 A 
ATOM      5  C   UNL     1      44.196   6.939  11.851  0.00  0.00    +0.000 A 
ATOM      6  C   UNL     1      45.054   7.765  12.579  0.00  0.00    +0.000 A 
ENDROOT
BRANCH   4   7
ATOM      7  N   UNL     1      43.778   5.105  10.370  0.00  0.00    +0.000 N 
ATOM      8  H   UNL     1      43.126   5.605   9.770  0.00  0.00    +0.000 HD
BRANCH   7   9
ATOM      9  C   UNL     1      44.246   3.835   9.811  0.00  0.00    +0.000 C 
BRANCH   9  10
ATOM     10  C   UNL     1      44.596   4.006   8.330  0.00  0.00    +0.000 C 
BRANCH  10  11
ATOM     11  C   UNL     1      45.639   3.030   7.876  0.00  0.00    +0.000 A 
ATOM     12  C   UNL     1      45.662   1.728   8.368  0.00  0.00    +0.000 A 
ATOM     13  N   UNL     1      46.613   0.828   8.025  0.00  0.00    +0.000 NA
ATOM     14  C   UNL     1      47.559   1.289   7.176  0.00  0.00    +0.000 A 
ATOM     15  C   UNL     1      47.551   2.583   6.687  0.00  0.00    +0.000 A 
ATOM     16  N   UNL     1      46.594   3.478   7.021  0.00  0.00    +0.000 NA
ENDBRANCH  10  11
ENDBRANCH   9  10
ENDBRANCH   7   9
ENDBRANCH   4   7
BRANCH   1  17
ATOM     17  C   UNL     1      47.373   8.497  13.246  0.00  0.00    +0.000 C 
BRANCH  17  20
ATOM     18  C   UNL     1      48.775   7.119  14.692  0.00  0.00    +0.000 C 
ATOM     19  O   UNL     1      49.602   6.979  13.800  0.00  0.00    +0.000 OA
ATOM     20  N   UNL     1      47.639   7.881  14.522  0.00  0.00    +0.000 N 
ATOM     21  H   UNL     1      46.895   7.851  15.203  0.00  0.00    +0.000 HD
BRANCH  18  30
ATOM     22  C   UNL     1      46.885   4.335  14.469  0.00  0.00    +0.000 C 
ATOM     23  C   UNL     1      47.475   4.268  15.845  0.00  0.00    +0.000 A 
ATOM     24  N   UNL     1      47.118   3.169  16.569  0.00  0.00    +0.000 NA
ATOM     25  C   UNL     1      47.584   3.024  17.815  0.00  0.00    +0.000 A 
ATOM     26  N   UNL     1      48.381   3.859  18.474  0.00  0.00    +0.000 NA
ATOM     27  C   UNL     1      48.721   4.934  17.745  0.00  0.00    +0.000 A 
ATOM     28  S   UNL     1      49.736   6.115  18.428  0.00  0.00    +0.000 S 
ATOM     29  C   UNL     1      49.699   7.048  17.007  0.00  0.00    +0.000 A 
ATOM     30  C   UNL     1      48.915   6.492  16.007  0.00  0.00    +0.000 A 
ATOM     31  C   UNL     1      48.333   5.225  16.440  0.00  0.00    +0.000 A 
ENDBRANCH  18  30
ENDBRANCH  17  20
ENDBRANCH   1  17
TORSDOF 7
ENDMDL
MODEL 2
REMARK VINA RESULT:    -7.402      1.987      2.704
REMARK INTER + INTRA:         -11.633
REMARK INTER:                 -10.721
REMARK INTRA:                  -0.912
REMARK UNBOUND:                -1.202
REMARK  Name = 
REMARK  8 active torsions:
REMARK  status: ('A' for Active; 'I' for Inactive)
REMARK    1  A    between atoms: C_1  and  C_2
REMARK    2  A    between atoms: C_9  and  C_10
REMARK    3  A    between atoms: N_12  and  C_13
REMARK    4  A    between atoms: C_13  and  C_14
REMARK    5  A    between atoms: C_17  and  N_18
REMARK    6  A    between atoms: N_18  and  C_19
REMARK    7  A    between atoms: C_19  and  C_20
REMARK    8  A    between atoms: C_20  and  C_21
REMARK                            x       y       z     vdW  Elec       q    Type
REMARK                         _______ _______ _______ _____ _____    ______ ____
ROOT
ATOM      1  C   UNL     1      46.926   6.087  12.968  0.00  0.00    +0.000 A 
ATOM      2  C   UNL     1      46.517   6.736  11.795  0.00  0.00    +0.000 A 
ATOM      3  C   UNL     1      45.481   6.206  11.020  0.00  0.00    +0.000 A 
ATOM      4  C   UNL     1      44.834   5.023  11.394  0.00  0.00    +0.000 A 
ATOM      5  C   UNL     1      45.189   4.438  12.616  0.00  0.00    +0.000 A 
ATOM      6  C   UNL     1      46.232   4.953  13.390  0.00  0.00    +0.000 A 
ENDROOT
BRANCH   4   7
ATOM      7  N   UNL     1      43.867   4.378  10.621  0.00  0.00    +0.000 N 
ATOM      8  H   UNL     1      42.950   4.802  10.740  0.00  0.00    +0.000 HD
BRANCH   7   9
ATOM      9  C   UNL     1      44.176   4.008   9.239  0.00  0.00    +0.000 C 
BRANCH   9  10
ATOM     10  C   UNL     1      44.697   2.569   9.180  0.00  0.00    +0.000 C 
BRANCH  10  11
ATOM     11  C   UNL     1      45.780   2.397   8.158  0.00  0.00    +0.000 A 
ATOM     12  C   UNL     1      46.449   1.183   8.024  0.00  0.00    +0.000 A 
ATOM     13  N   UNL     1      47.465   0.996   7.150  0.00  0.00    +0.000 NA
ATOM     14  C   UNL     1      47.803   2.084   6.423  0.00  0.00    +0.000 A 
ATOM     15  C   UNL     1      47.152   3.297   6.554  0.00  0.00    +0.000 A 
ATOM     16  N   UNL     1      46.129   3.481   7.418  0.00  0.00    +0.000 NA
ENDBRANCH  10  11
ENDBRANCH   9  10
ENDBRANCH   7   9
ENDBRANCH   4   7
BRANCH   1  17
ATOM     17  C   UNL     1      48.095   6.611  13.757  0.00  0.00    +0.000 C 
BRANCH  17  20
ATOM     18  C   UNL     1      49.076   6.335  15.975  0.00  0.00    +0.000 C 
ATOM     19  O   UNL     1      50.179   6.660  15.556  0.00  0.00    +0.000 OA
ATOM     20  N   UNL     1      47.965   6.305  15.160  0.00  0.00    +0.000 N 
ATOM     21  H   UNL     1      47.106   5.880  15.478  0.00  0.00    +0.000 HD
BRANCH  18  30
ATOM     22  C   UNL     1      48.044   9.190  17.441  0.00  0.00    +0.000 C 
ATOM     23  C   UNL     1      47.977   8.171  18.538  0.00  0.00    +0.000 A 
ATOM     24  N   UNL     1      47.535   8.646  19.736  0.00  0.00    +0.000 NA
ATOM     25  C   UNL     1      47.451   7.815  20.782  0.00  0.00    +0.000 A 
ATOM     26  N   UNL     1      47.767   6.523  20.806  0.00  0.00    +0.000 NA
ATOM     27  C   UNL     1      48.200   6.074  19.617  0.00  0.00    +0.000 A 
ATOM     28  S   UNL     1      48.654   4.444  19.459  0.00  0.00    +0.000 S 
ATOM     29  C   UNL     1      49.035   4.652  17.815  0.00  0.00    +0.000 A 
ATOM     30  C   UNL     1      48.839   5.950  17.367  0.00  0.00    +0.000 A 
ATOM     31  C   UNL     1      48.333   6.803  18.438  0.00  0.00    +0.000 A 
ENDBRANCH  18  30
ENDBRANCH  17  20
ENDBRANCH   1  17
TORSDOF 7
ENDMDL
MODEL 3
REMARK VINA RESULT:    -7.383      1.588      2.313
REMARK INTER + INTRA:         -11.606
REMARK INTER:                 -10.669
REMARK INTRA:                  -0.937
REMARK UNBOUND:                -1.202
REMARK  Name = 
REMARK  8 active torsions:
REMARK  status: ('A' for Active; 'I' for Inactive)
REMARK    1  A    between atoms: C_1  and  C_2
REMARK    2  A    between atoms: C_9  and  C_10
REMARK    3  A    between atoms: N_12  and  C_13
REMARK    4  A    between atoms: C_13  and  C_14
REMARK    5  A    between atoms: C_17  and  N_18
REMARK    6  A    between atoms: N_18  and  C_19
REMARK    7  A    between atoms: C_19  and  C_20
REMARK    8  A    between atoms: C_20  and  C_21
REMARK                            x       y       z     vdW  Elec       q    Type
REMARK                         _______ _______ _______ _____ _____    ______ ____
ROOT
ATOM      1  C   UNL     1      47.135   5.921  12.918  0.00  0.00    +0.000 A 
ATOM      2  C   UNL     1      46.797   6.580  11.728  0.00  0.00    +0.000 A 
ATOM      3  C   UNL     1      45.678   6.177  10.992  0.00  0.00    +0.000 A 
ATOM      4  C   UNL     1      44.878   5.114  11.421  0.00  0.00    +0.000 A 
ATOM      5  C   UNL     1      45.173   4.527  12.659  0.00  0.00    +0.000 A 
ATOM      6  C   UNL     1      46.295   4.914  13.394  0.00  0.00    +0.000 A 
ENDROOT
BRANCH   4   7
ATOM      7  N   UNL     1      43.811   4.587  10.691  0.00  0.00    +0.000 N 
ATOM      8  H   UNL     1      42.986   5.177  10.757  0.00  0.00    +0.000 HD
BRANCH   7   9
ATOM      9  C   UNL     1      44.051   4.048   9.350  0.00  0.00    +0.000 C 
BRANCH   9  10
ATOM     10  C   UNL     1      44.554   2.605   9.442  0.00  0.00    +0.000 C 
BRANCH  10  11
ATOM     11  C   UNL     1      45.676   2.332   8.486  0.00  0.00    +0.000 A 
ATOM     12  C   UNL     1      46.233   3.357   7.726  0.00  0.00    +0.000 A 
ATOM     13  N   UNL     1      47.212   3.150   6.816  0.00  0.00    +0.000 NA
ATOM     14  C   UNL     1      47.605   1.864   6.679  0.00  0.00    +0.000 A 
ATOM     15  C   UNL     1      47.053   0.835   7.423  0.00  0.00    +0.000 A 
ATOM     16  N   UNL     1      46.083   1.045   8.341  0.00  0.00    +0.000 NA
ENDBRANCH  10  11
ENDBRANCH   9  10
ENDBRANCH   7   9
ENDBRANCH   4   7
BRANCH   1  17
ATOM     17  C   UNL     1      48.384   6.299  13.667  0.00  0.00    +0.000 C 
BRANCH  17  20
ATOM     18  C   UNL     1      49.125   6.778  15.942  0.00  0.00    +0.000 C 
ATOM     19  O   UNL     1      50.298   6.660  15.612  0.00  0.00    +0.000 OA
ATOM     20  N   UNL     1      48.095   6.642  15.036  0.00  0.00    +0.000 N 
ATOM     21  H   UNL     1      47.139   6.579  15.353  0.00  0.00    +0.000 HD
BRANCH  18  30
ATOM     22  C   UNL     1      49.301   3.788  17.490  0.00  0.00    +0.000 C 
ATOM     23  C   UNL     1      48.891   4.737  18.574  0.00  0.00    +0.000 A 
ATOM     24  N   UNL     1      48.728   4.169  19.802  0.00  0.00    +0.000 NA
ATOM     25  C   UNL     1      48.350   4.933  20.835  0.00  0.00    +0.000 A 
ATOM     26  N   UNL     1      48.092   6.238  20.813  0.00  0.00    +0.000 NA
ATOM     27  C   UNL     1      48.259   6.778  19.595  0.00  0.00    +0.000 A 
ATOM     28  S   UNL     1      47.970   8.439  19.377  0.00  0.00    +0.000 S 
ATOM     29  C   UNL     1      48.371   8.348  17.727  0.00  0.00    +0.000 A 
ATOM     30  C   UNL     1      48.714   7.068  17.316  0.00  0.00    +0.000 A 
ATOM     31  C   UNL     1      48.656   6.127  18.430  0.00  0.00    +0.000 A 
ENDBRANCH  18  30
ENDBRANCH  17  20
ENDBRANCH   1  17
TORSDOF 7
ENDMDL
MODEL 4
REMARK VINA RESULT:    -7.349      1.735      2.227
REMARK INTER + INTRA:         -11.559
REMARK INTER:                 -10.422
REMARK INTRA:                  -1.137
REMARK UNBOUND:                -1.202
REMARK  Name = 
REMARK  8 active torsions:
REMARK  status: ('A' for Active; 'I' for Inactive)
REMARK    1  A    between atoms: C_1  and  C_2
REMARK    2  A    between atoms: C_9  and  C_10
REMARK    3  A    between atoms: N_12  and  C_13
REMARK    4  A    between atoms: C_13  and  C_14
REMARK    5  A    between atoms: C_17  and  N_18
REMARK    6  A    between atoms: N_18  and  C_19
REMARK    7  A    between atoms: C_19  and  C_20
REMARK    8  A    between atoms: C_20  and  C_21
REMARK                            x       y       z     vdW  Elec       q    Type
REMARK                         _______ _______ _______ _____ _____    ______ ____
ROOT
ATOM      1  C   UNL     1      46.668   6.248  12.635  0.00  0.00    +0.000 A 
ATOM      2  C   UNL     1      46.483   5.061  13.358  0.00  0.00    +0.000 A 
ATOM      3  C   UNL     1      45.705   4.027  12.829  0.00  0.00    +0.000 A 
ATOM      4  C   UNL     1      45.096   4.152  11.576  0.00  0.00    +0.000 A 
ATOM      5  C   UNL     1      45.366   5.304  10.826  0.00  0.00    +0.000 A 
ATOM      6  C   UNL     1      46.130   6.348  11.352  0.00  0.00    +0.000 A 
ENDROOT
BRANCH   4   7
ATOM      7  N   UNL     1      44.223   3.210  11.029  0.00  0.00    +0.000 N 
ATOM      8  H   UNL     1      43.317   3.229  11.490  0.00  0.00    +0.000 HD
BRANCH   7   9
ATOM      9  C   UNL     1      44.146   3.056   9.575  0.00  0.00    +0.000 C 
BRANCH   9  10
ATOM     10  C   UNL     1      44.837   1.759   9.143  0.00  0.00    +0.000 C 
BRANCH  10  11
ATOM     11  C   UNL     1      45.952   2.005   8.171  0.00  0.00    +0.000 A 
ATOM     12  C   UNL     1      46.775   0.964   7.751  0.00  0.00    +0.000 A 
ATOM     13  N   UNL     1      47.823   1.146   6.915  0.00  0.00    +0.000 NA
ATOM     14  C   UNL     1      48.029   2.423   6.524  0.00  0.00    +0.000 A 
ATOM     15  C   UNL     1      47.223   3.467   6.941  0.00  0.00    +0.000 A 
ATOM     16  N   UNL     1      46.169   3.283   7.768  0.00  0.00    +0.000 NA
ENDBRANCH  10  11
ENDBRANCH   9  10
ENDBRANCH   7   9
ENDBRANCH   4   7
BRANCH   1  17
ATOM     17  C   UNL     1      47.434   7.394  13.239  0.00  0.00    +0.000 C 
BRANCH  17  20
ATOM     18  C   UNL     1      48.940   7.586  15.150  0.00  0.00    +0.000 C 
ATOM     19  O   UNL     1      48.306   8.539  15.586  0.00  0.00    +0.000 OA
ATOM     20  N   UNL     1      48.568   6.928  13.997  0.00  0.00    +0.000 N 
ATOM     21  H   UNL     1      49.188   6.258  13.566  0.00  0.00    +0.000 HD
BRANCH  18  30
ATOM     22  C   UNL     1      47.820   4.924  16.890  0.00  0.00    +0.000 C 
ATOM     23  C   UNL     1      49.297   4.935  17.148  0.00  0.00    +0.000 A 
ATOM     24  N   UNL     1      49.746   3.927  17.947  0.00  0.00    +0.000 NA
ATOM     25  C   UNL     1      51.049   3.857  18.247  0.00  0.00    +0.000 A 
ATOM     26  N   UNL     1      52.007   4.691  17.851  0.00  0.00    +0.000 NA
ATOM     27  C   UNL     1      51.544   5.676  17.065  0.00  0.00    +0.000 A 
ATOM     28  S   UNL     1      52.628   6.840  16.466  0.00  0.00    +0.000 S 
ATOM     29  C   UNL     1      51.385   7.651  15.635  0.00  0.00    +0.000 A 
ATOM     30  C   UNL     1      50.140   7.065  15.806  0.00  0.00    +0.000 A 
ATOM     31  C   UNL     1      50.229   5.880  16.654  0.00  0.00    +0.000 A 
ENDBRANCH  18  30
ENDBRANCH  17  20
ENDBRANCH   1  17
TORSDOF 7
ENDMDL
MODEL 5
REMARK VINA RESULT:    -7.311      2.603      3.213
REMARK INTER + INTRA:         -11.505
REMARK INTER:                 -10.512
REMARK INTRA:                  -0.993
REMARK UNBOUND:                -1.202
REMARK  Name = 
REMARK  8 active torsions:
REMARK  status: ('A' for Active; 'I' for Inactive)
REMARK    1  A    between atoms: C_1  and  C_2
REMARK    2  A    between atoms: C_9  and  C_10
REMARK    3  A    between atoms: N_12  and  C_13
REMARK    4  A    between atoms: C_13  and  C_14
REMARK    5  A    between atoms: C_17  and  N_18
REMARK    6  A    between atoms: N_18  and  C_19
REMARK    7  A    between atoms: C_19  and  C_20
REMARK    8  A    between atoms: C_20  and  C_21
REMARK                            x       y       z     vdW  Elec       q    Type
REMARK                         _______ _______ _______ _____ _____    ______ ____
ROOT
ATOM      1  C   UNL     1      47.896   6.241  14.652  0.00  0.00    +0.000 A 
ATOM      2  C   UNL     1      47.396   4.960  14.923  0.00  0.00    +0.000 A 
ATOM      3  C   UNL     1      46.562   4.319  14.002  0.00  0.00    +0.000 A 
ATOM      4  C   UNL     1      46.208   4.937  12.799  0.00  0.00    +0.000 A 
ATOM      5  C   UNL     1      46.790   6.176  12.500  0.00  0.00    +0.000 A 
ATOM      6  C   UNL     1      47.613   6.829  13.419  0.00  0.00    +0.000 A 
ENDROOT
BRANCH   4   7
ATOM      7  N   UNL     1      45.299   4.407  11.880  0.00  0.00    +0.000 N 
ATOM      8  H   UNL     1      44.542   3.915  12.347  0.00  0.00    +0.000 HD
BRANCH   7   9
ATOM      9  C   UNL     1      44.868   5.220  10.741  0.00  0.00    +0.000 C 
BRANCH   9  10
ATOM     10  C   UNL     1      44.121   4.352   9.725  0.00  0.00    +0.000 C 
BRANCH  10  11
ATOM     11  C   UNL     1      45.053   3.537   8.879  0.00  0.00    +0.000 A 
ATOM     12  C   UNL     1      45.207   2.171   9.099  0.00  0.00    +0.000 A 
ATOM     13  N   UNL     1      46.072   1.405   8.393  0.00  0.00    +0.000 NA
ATOM     14  C   UNL     1      46.796   2.066   7.463  0.00  0.00    +0.000 A 
ATOM     15  C   UNL     1      46.657   3.425   7.242  0.00  0.00    +0.000 A 
ATOM     16  N   UNL     1      45.785   4.188   7.938  0.00  0.00    +0.000 NA
ENDBRANCH  10  11
ENDBRANCH   9  10
ENDBRANCH   7   9
ENDBRANCH   4   7
BRANCH   1  17
ATOM     17  C   UNL     1      48.725   6.966  15.678  0.00  0.00    +0.000 C 
BRANCH  17  20
ATOM     18  C   UNL     1      49.869   5.683  17.410  0.00  0.00    +0.000 C 
ATOM     19  O   UNL     1      48.950   5.878  18.196  0.00  0.00    +0.000 OA
ATOM     20  N   UNL     1      49.838   6.164  16.119  0.00  0.00    +0.000 N 
ATOM     21  H   UNL     1      50.667   6.137  15.542  0.00  0.00    +0.000 HD
BRANCH  18  30
ATOM     22  C   UNL     1      49.020   2.472  16.833  0.00  0.00    +0.000 C 
ATOM     23  C   UNL     1      50.449   2.398  17.277  0.00  0.00    +0.000 A 
ATOM     24  N   UNL     1      50.976   1.142  17.308  0.00  0.00    +0.000 NA
ATOM     25  C   UNL     1      52.244   0.970  17.703  0.00  0.00    +0.000 A 
ATOM     26  N   UNL     1      53.094   1.914  18.097  0.00  0.00    +0.000 NA
ATOM     27  C   UNL     1      52.557   3.144  18.059  0.00  0.00    +0.000 A 
ATOM     28  S   UNL     1      53.499   4.477  18.532  0.00  0.00    +0.000 S 
ATOM     29  C   UNL     1      52.224   5.559  18.220  0.00  0.00    +0.000 A 
ATOM     30  C   UNL     1      51.072   4.932  17.769  0.00  0.00    +0.000 A 
ATOM     31  C   UNL     1      51.267   3.489  17.664  0.00  0.00    +0.000 A 
ENDBRANCH  18  30
ENDBRANCH  17  20
ENDBRANCH   1  17
TORSDOF 7
ENDMDL
MODEL 6
REMARK VINA RESULT:    -6.304      3.208      7.809
REMARK INTER + INTRA:         -10.086
REMARK INTER:                  -8.400
REMARK INTRA:                  -1.686
REMARK UNBOUND:                -1.202
REMARK  Name = 
REMARK  8 active torsions:
REMARK  status: ('A' for Active; 'I' for Inactive)
REMARK    1  A    between atoms: C_1  and  C_2
REMARK    2  A    between atoms: C_9  and  C_10
REMARK    3  A    between atoms: N_12  and  C_13
REMARK    4  A    between atoms: C_13  and  C_14
REMARK    5  A    between atoms: C_17  and  N_18
REMARK    6  A    between atoms: N_18  and  C_19
REMARK    7  A    between atoms: C_19  and  C_20
REMARK    8  A    between atoms: C_20  and  C_21
REMARK                            x       y       z     vdW  Elec       q    Type
REMARK                         _______ _______ _______ _____ _____    ______ ____
ROOT
ATOM      1  C   UNL     1      48.212   7.640  13.559  0.00  0.00    +0.000 A 
ATOM      2  C   UNL     1      48.493   8.690  14.444  0.00  0.00    +0.000 A 
ATOM      3  C   UNL     1      48.620   8.443  15.814  0.00  0.00    +0.000 A 
ATOM      4  C   UNL     1      48.470   7.152  16.330  0.00  0.00    +0.000 A 
ATOM      5  C   UNL     1      48.283   6.099  15.424  0.00  0.00    +0.000 A 
ATOM      6  C   UNL     1      48.141   6.339  14.056  0.00  0.00    +0.000 A 
ENDROOT
BRANCH   4   7
ATOM      7  N   UNL     1      48.478   6.843  17.692  0.00  0.00    +0.000 N 
ATOM      8  H   UNL     1      47.830   6.090  17.908  0.00  0.00    +0.000 HD
BRANCH   7   9
ATOM      9  C   UNL     1      49.755   6.750  18.403  0.00  0.00    +0.000 C 
BRANCH   9  10
ATOM     10  C   UNL     1      49.841   5.424  19.164  0.00  0.00    +0.000 C 
BRANCH  10  11
ATOM     11  C   UNL     1      49.445   4.254  18.315  0.00  0.00    +0.000 A 
ATOM     12  C   UNL     1      50.393   3.561  17.567  0.00  0.00    +0.000 A 
ATOM     13  N   UNL     1      50.076   2.531  16.749  0.00  0.00    +0.000 NA
ATOM     14  C   UNL     1      48.760   2.228  16.692  0.00  0.00    +0.000 A 
ATOM     15  C   UNL     1      47.807   2.915  17.424  0.00  0.00    +0.000 A 
ATOM     16  N   UNL     1      48.126   3.937  18.250  0.00  0.00    +0.000 NA
ENDBRANCH  10  11
ENDBRANCH   9  10
ENDBRANCH   7   9
ENDBRANCH   4   7
BRANCH   1  17
ATOM     17  C   UNL     1      47.991   7.918  12.097  0.00  0.00    +0.000 C 
BRANCH  17  20
ATOM     18  C   UNL     1      46.071   6.789  11.101  0.00  0.00    +0.000 C 
ATOM     19  O   UNL     1      45.354   7.757  11.324  0.00  0.00    +0.000 OA
ATOM     20  N   UNL     1      47.410   6.783  11.426  0.00  0.00    +0.000 N 
ATOM     21  H   UNL     1      47.943   5.926  11.387  0.00  0.00    +0.000 HD
BRANCH  18  30
ATOM     22  C   UNL     1      44.616   5.120  13.643  0.00  0.00    +0.000 C 
ATOM     23  C   UNL     1      44.377   4.247  12.448  0.00  0.00    +0.000 A 
ATOM     24  N   UNL     1      43.674   3.107  12.702  0.00  0.00    +0.000 NA
ATOM     25  C   UNL     1      43.420   2.256  11.701  0.00  0.00    +0.000 A 
ATOM     26  N   UNL     1      43.790   2.381  10.430  0.00  0.00    +0.000 NA
ATOM     27  C   UNL     1      44.480   3.510  10.200  0.00  0.00    +0.000 A 
ATOM     28  S   UNL     1      45.040   3.837   8.629  0.00  0.00    +0.000 S 
ATOM     29  C   UNL     1      45.739   5.306   9.124  0.00  0.00    +0.000 A 
ATOM     30  C   UNL     1      45.573   5.563  10.477  0.00  0.00    +0.000 A 
ATOM     31  C   UNL     1      44.815   4.496  11.124  0.00  0.00    +0.000 A 
ENDBRANCH  18  30
ENDBRANCH  17  20
ENDBRANCH   1  17
TORSDOF 7
ENDMDL
MODEL 7
REMARK VINA RESULT:    -6.196      3.544      7.735
REMARK INTER + INTRA:          -9.934
REMARK INTER:                  -8.445
REMARK INTRA:                  -1.489
REMARK UNBOUND:                -1.202
REMARK  Name = 
REMARK  8 active torsions:
REMARK  status: ('A' for Active; 'I' for Inactive)
REMARK    1  A    between atoms: C_1  and  C_2
REMARK    2  A    between atoms: C_9  and  C_10
REMARK    3  A    between atoms: N_12  and  C_13
REMARK    4  A    between atoms: C_13  and  C_14
REMARK    5  A    between atoms: C_17  and  N_18
REMARK    6  A    between atoms: N_18  and  C_19
REMARK    7  A    between atoms: C_19  and  C_20
REMARK    8  A    between atoms: C_20  and  C_21
REMARK                            x       y       z     vdW  Elec       q    Type
REMARK                         _______ _______ _______ _____ _____    ______ ____
ROOT
ATOM      1  C   UNL     1      48.398   8.454  15.194  0.00  0.00    +0.000 A 
ATOM      2  C   UNL     1      48.994   7.185  15.178  0.00  0.00    +0.000 A 
ATOM      3  C   UNL     1      49.611   6.681  16.327  0.00  0.00    +0.000 A 
ATOM      4  C   UNL     1      49.649   7.426  17.510  0.00  0.00    +0.000 A 
ATOM      5  C   UNL     1      48.968   8.650  17.538  0.00  0.00    +0.000 A 
ATOM      6  C   UNL     1      48.361   9.167  16.392  0.00  0.00    +0.000 A 
ENDROOT
BRANCH   4   7
ATOM      7  N   UNL     1      50.334   7.037  18.663  0.00  0.00    +0.000 N 
ATOM      8  H   UNL     1      50.853   7.812  19.068  0.00  0.00    +0.000 HD
BRANCH   7   9
ATOM      9  C   UNL     1      49.662   6.190  19.651  0.00  0.00    +0.000 C 
BRANCH   9  10
ATOM     10  C   UNL     1      50.198   4.758  19.571  0.00  0.00    +0.000 C 
BRANCH  10  11
ATOM     11  C   UNL     1      49.503   3.948  18.518  0.00  0.00    +0.000 A 
ATOM     12  C   UNL     1      50.229   3.169  17.621  0.00  0.00    +0.000 A 
ATOM     13  N   UNL     1      49.649   2.462  16.624  0.00  0.00    +0.000 NA
ATOM     14  C   UNL     1      48.305   2.577  16.546  0.00  0.00    +0.000 A 
ATOM     15  C   UNL     1      47.574   3.355  17.426  0.00  0.00    +0.000 A 
ATOM     16  N   UNL     1      48.152   4.052  18.429  0.00  0.00    +0.000 NA
ENDBRANCH  10  11
ENDBRANCH   9  10
ENDBRANCH   7   9
ENDBRANCH   4   7
BRANCH   1  17
ATOM     17  C   UNL     1      47.809   9.032  13.936  0.00  0.00    +0.000 C 
BRANCH  17  20
ATOM     18  C   UNL     1      46.706   7.477  12.413  0.00  0.00    +0.000 C 
ATOM     19  O   UNL     1      47.748   7.306  11.792  0.00  0.00    +0.000 OA
ATOM     20  N   UNL     1      46.640   8.300  13.516  0.00  0.00    +0.000 N 
ATOM     21  H   UNL     1      45.748   8.557  13.912  0.00  0.00    +0.000 HD
BRANCH  18  30
ATOM     22  C   UNL     1      47.099   4.290  13.442  0.00  0.00    +0.000 C 
ATOM     23  C   UNL     1      45.708   4.326  12.885  0.00  0.00    +0.000 A 
ATOM     24  N   UNL     1      45.031   3.146  12.957  0.00  0.00    +0.000 NA
ATOM     25  C   UNL     1      43.784   3.072  12.474  0.00  0.00    +0.000 A 
ATOM     26  N   UNL     1      43.091   4.049  11.897  0.00  0.00    +0.000 NA
ATOM     27  C   UNL     1      43.774   5.203  11.836  0.00  0.00    +0.000 A 
ATOM     28  S   UNL     1      43.045   6.564  11.126  0.00  0.00    +0.000 S 
ATOM     29  C   UNL     1      44.419   7.522  11.418  0.00  0.00    +0.000 A 
ATOM     30  C   UNL     1      45.447   6.830  12.041  0.00  0.00    +0.000 A 
ATOM     31  C   UNL     1      45.065   5.445  12.300  0.00  0.00    +0.000 A 
ENDBRANCH  18  30
ENDBRANCH  17  20
ENDBRANCH   1  17
TORSDOF 7
ENDMDL
MODEL 8
REMARK VINA RESULT:    -6.056      2.870      3.846
REMARK INTER + INTRA:          -9.736
REMARK INTER:                  -8.939
REMARK INTRA:                  -0.797
REMARK UNBOUND:                -1.202
REMARK  Name = 
REMARK  8 active torsions:
REMARK  status: ('A' for Active; 'I' for Inactive)
REMARK    1  A    between atoms: C_1  and  C_2
REMARK    2  A    between atoms: C_9  and  C_10
REMARK    3  A    between atoms: N_12  and  C_13
REMARK    4  A    between atoms: C_13  and  C_14
REMARK    5  A    between atoms: C_17  and  N_18
REMARK    6  A    between atoms: N_18  and  C_19
REMARK    7  A    between atoms: C_19  and  C_20
REMARK    8  A    between atoms: C_20  and  C_21
REMARK                            x       y       z     vdW  Elec       q    Type
REMARK                         _______ _______ _______ _____ _____    ______ ____
ROOT
ATOM      1  C   UNL     1      47.780   6.452  14.173  0.00  0.00    +0.000 A 
ATOM      2  C   UNL     1      47.276   5.161  14.381  0.00  0.00    +0.000 A 
ATOM      3  C   UNL     1      46.426   4.575  13.439  0.00  0.00    +0.000 A 
ATOM      4  C   UNL     1      46.060   5.259  12.275  0.00  0.00    +0.000 A 
ATOM      5  C   UNL     1      46.645   6.509  12.035  0.00  0.00    +0.000 A 
ATOM      6  C   UNL     1      47.485   7.107  12.977  0.00  0.00    +0.000 A 
ENDROOT
BRANCH   4   7
ATOM      7  N   UNL     1      45.136   4.785  11.342  0.00  0.00    +0.000 N 
ATOM      8  H   UNL     1      44.185   4.841  11.697  0.00  0.00    +0.000 HD
BRANCH   7   9
ATOM      9  C   UNL     1      45.269   5.169   9.935  0.00  0.00    +0.000 C 
BRANCH   9  10
ATOM     10  C   UNL     1      44.529   4.169   9.042  0.00  0.00    +0.000 C 
BRANCH  10  11
ATOM     11  C   UNL     1      45.466   3.241   8.328  0.00  0.00    +0.000 A 
ATOM     12  C   UNL     1      45.567   1.903   8.699  0.00  0.00    +0.000 A 
ATOM     13  N   UNL     1      46.433   1.041   8.118  0.00  0.00    +0.000 NA
ATOM     14  C   UNL     1      47.214   1.577   7.154  0.00  0.00    +0.000 A 
ATOM     15  C   UNL     1      47.129   2.907   6.782  0.00  0.00    +0.000 A 
ATOM     16  N   UNL     1      46.256   3.765   7.355  0.00  0.00    +0.000 NA
ENDBRANCH  10  11
ENDBRANCH   9  10
ENDBRANCH   7   9
ENDBRANCH   4   7
BRANCH   1  17
ATOM     17  C   UNL     1      48.627   7.116  15.225  0.00  0.00    +0.000 C 
BRANCH  17  20
ATOM     18  C   UNL     1      49.893   6.018  16.999  0.00  0.00    +0.000 C 
ATOM     19  O   UNL     1      49.144   6.477  17.852  0.00  0.00    +0.000 OA
ATOM     20  N   UNL     1      49.702   6.258  15.655  0.00  0.00    +0.000 N 
ATOM     21  H   UNL     1      50.416   6.013  14.984  0.00  0.00    +0.000 HD
BRANCH  18  30
ATOM     22  C   UNL     1      52.525   8.091  16.617  0.00  0.00    +0.000 C 
ATOM     23  C   UNL     1      53.137   6.805  17.081  0.00  0.00    +0.000 A 
ATOM     24  N   UNL     1      54.492   6.833  17.224  0.00  0.00    +0.000 NA
ATOM     25  C   UNL     1      55.134   5.728  17.622  0.00  0.00    +0.000 A 
ATOM     26  N   UNL     1      54.594   4.546  17.903  0.00  0.00    +0.000 NA
ATOM     27  C   UNL     1      53.259   4.538  17.757  0.00  0.00    +0.000 A 
ATOM     28  S   UNL     1      52.397   3.107  18.070  0.00  0.00    +0.000 S 
ATOM     29  C   UNL     1      50.915   3.854  17.700  0.00  0.00    +0.000 A 
ATOM     30  C   UNL     1      51.049   5.183  17.325  0.00  0.00    +0.000 A 
ATOM     31  C   UNL     1      52.448   5.600  17.364  0.00  0.00    +0.000 A 
ENDBRANCH  18  30
ENDBRANCH  17  20
ENDBRANCH   1  17
TORSDOF 7
ENDMDL
MODEL 9
REMARK VINA RESULT:    -6.013      2.375      3.364
REMARK INTER + INTRA:          -9.676
REMARK INTER:                  -8.616
REMARK INTRA:                  -1.060
REMARK UNBOUND:                -1.202
REMARK  Name = 
REMARK  8 active torsions:
REMARK  status: ('A' for Active; 'I' for Inactive)
REMARK    1  A    between atoms: C_1  and  C_2
REMARK    2  A    between atoms: C_9  and  C_10
REMARK    3  A    between atoms: N_12  and  C_13
REMARK    4  A    between atoms: C_13  and  C_14
REMARK    5  A    between atoms: C_17  and  N_18
REMARK    6  A    between atoms: N_18  and  C_19
REMARK    7  A    between atoms: C_19  and  C_20
REMARK    8  A    between atoms: C_20  and  C_21
REMARK                            x       y       z     vdW  Elec       q    Type
REMARK                         _______ _______ _______ _____ _____    ______ ____
ROOT
ATOM      1  C   UNL     1      47.791   7.144  13.289  0.00  0.00    +0.000 A 
ATOM      2  C   UNL     1      47.866   5.780  13.606  0.00  0.00    +0.000 A 
ATOM      3  C   UNL     1      46.735   4.967  13.495  0.00  0.00    +0.000 A 
ATOM      4  C   UNL     1      45.509   5.491  13.072  0.00  0.00    +0.000 A 
ATOM      5  C   UNL     1      45.472   6.833  12.670  0.00  0.00    +0.000 A 
ATOM      6  C   UNL     1      46.594   7.656  12.789  0.00  0.00    +0.000 A 
ENDROOT
BRANCH   4   7
ATOM      7  N   UNL     1      44.315   4.769  13.037  0.00  0.00    +0.000 N 
ATOM      8  H   UNL     1      44.245   4.126  13.822  0.00  0.00    +0.000 HD
BRANCH   7   9
ATOM      9  C   UNL     1      43.062   5.460  12.721  0.00  0.00    +0.000 C 
BRANCH   9  10
ATOM     10  C   UNL     1      42.842   5.488  11.206  0.00  0.00    +0.000 C 
BRANCH  10  11
ATOM     11  C   UNL     1      43.664   4.457  10.492  0.00  0.00    +0.000 A 
ATOM     12  C   UNL     1      44.572   4.827   9.504  0.00  0.00    +0.000 A 
ATOM     13  N   UNL     1      45.298   3.928   8.799  0.00  0.00    +0.000 NA
ATOM     14  C   UNL     1      45.068   2.634   9.111  0.00  0.00    +0.000 A 
ATOM     15  C   UNL     1      44.163   2.254  10.086  0.00  0.00    +0.000 A 
ATOM     16  N   UNL     1      43.445   3.152  10.798  0.00  0.00    +0.000 NA
ENDBRANCH  10  11
ENDBRANCH   9  10
ENDBRANCH   7   9
ENDBRANCH   4   7
BRANCH   1  17
ATOM     17  C   UNL     1      48.986   8.037  13.488  0.00  0.00    +0.000 C 
BRANCH  17  20
ATOM     18  C   UNL     1      50.387   7.709  15.459  0.00  0.00    +0.000 C 
ATOM     19  O   UNL     1      49.775   8.576  16.069  0.00  0.00    +0.000 OA
ATOM     20  N   UNL     1      50.051   7.348  14.172  0.00  0.00    +0.000 N 
ATOM     21  H   UNL     1      50.663   6.755  13.629  0.00  0.00    +0.000 HD
BRANCH  18  30
ATOM     22  C   UNL     1      48.951   5.200  17.193  0.00  0.00    +0.000 C 
ATOM     23  C   UNL     1      50.421   4.971  17.368  0.00  0.00    +0.000 A 
ATOM     24  N   UNL     1      50.746   3.879  18.117  0.00  0.00    +0.000 NA
ATOM     25  C   UNL     1      52.035   3.596  18.341  0.00  0.00    +0.000 A 
ATOM     26  N   UNL     1      53.091   4.282  17.913  0.00  0.00    +0.000 NA
ATOM     27  C   UNL     1      52.751   5.352  17.178  0.00  0.00    +0.000 A 
ATOM     28  S   UNL     1      53.973   6.352  16.548  0.00  0.00    +0.000 S 
ATOM     29  C   UNL     1      52.834   7.374  15.808  0.00  0.00    +0.000 A 
ATOM     30  C   UNL     1      51.521   6.985  16.034  0.00  0.00    +0.000 A 
ATOM     31  C   UNL     1      51.465   5.774  16.847  0.00  0.00    +0.000 A 
ENDBRANCH  18  30
ENDBRANCH  17  20
ENDBRANCH   1  17
TORSDOF 7
ENDMDL
