MODEL 1
REMARK VINA RESULT:    -8.232      0.000      0.000
REMARK INTER + INTRA:         -12.209
REMARK INTER:                 -11.360
REMARK INTRA:                  -0.850
REMARK UNBOUND:                -0.850
REMARK  Name = 
REMARK  8 active torsions:
REMARK  status: ('A' for Active; 'I' for Inactive)
REMARK    1  A    between atoms: C_1  and  C_2
REMARK    2  A    between atoms: C_2  and  O_3
REMARK    3  A    between atoms: C_5  and  O_6
REMARK    4  A    between atoms: O_6  and  C_7
REMARK    5  A    between atoms: C_11  and  C_12
REMARK    6  A    between atoms: C_12  and  C_13
REMARK    7  A    between atoms: C_13  and  N_14
REMARK    8  A    between atoms: C_18  and  C_19
REMARK                            x       y       z     vdW  Elec       q    Type
REMARK                         _______ _______ _______ _____ _____    ______ ____
ROOT
ATOM      1  C   UNL     1      47.101   5.113  13.511  0.00  0.00    +0.000 A 
ATOM      2  C   UNL     1      47.885   6.113  12.947  0.00  0.00    +0.000 A 
ATOM      3  C   UNL     1      47.313   7.019  12.054  0.00  0.00    +0.000 A 
ATOM      4  C   UNL     1      45.967   6.906  11.696  0.00  0.00    +0.000 A 
ATOM      5  C   UNL     1      45.175   5.873  12.215  0.00  0.00    +0.000 A 
ATOM      6  C   UNL     1      45.762   4.990  13.140  0.00  0.00    +0.000 A 
ENDROOT
BRANCH   1   7
ATOM      7  O   UNL     1      47.548   4.194  14.430  0.00  0.00    +0.000 OA
BRANCH   7  11
ATOM      8  C   UNL     1      49.062   4.022  18.712  0.00  0.00    +0.000 C 
ATOM      9  C   UNL     1      47.857   4.340  17.843  0.00  0.00    +0.000 C 
ATOM     10  C   UNL     1      47.515   3.253  16.798  0.00  0.00    +0.000 C 
ATOM     11  C   UNL     1      47.173   4.397  15.809  0.00  0.00    +0.000 C 
ATOM     12  C   UNL     1      48.126   5.290  16.643  0.00  0.00    +0.000 C 
BRANCH   9  13
ATOM     13  O   UNL     1      46.751   4.739  18.686  0.00  0.00    +0.000 OA
ATOM     14  H   UNL     1      46.519   5.639  18.398  0.00  0.00    +0.000 HD
ENDBRANCH   9  13
ENDBRANCH   7  11
ENDBRANCH   1   7
BRANCH   5  15
ATOM     15  C   UNL     1      43.737   5.738  11.740  0.00  0.00    +0.000 C 
BRANCH  15  16
ATOM     16  C   UNL     1      43.603   5.092  10.360  0.00  0.00    +0.000 C 
BRANCH  16  17
ATOM     17  N   UNL     1      43.787   3.637  10.378  0.00  0.00    +0.000 N 
ATOM     18  C   UNL     1      44.718   3.243   9.389  0.00  0.00    +0.000 A 
ATOM     19  C   UNL     1      45.010   1.892   9.234  0.00  0.00    +0.000 A 
ATOM     20  C   UNL     1      45.946   1.497   8.274  0.00  0.00    +0.000 A 
ATOM     21  C   UNL     1      46.570   2.460   7.489  0.00  0.00    +0.000 A 
ATOM     22  C   UNL     1      46.231   3.782   7.705  0.00  0.00    +0.000 A 
ATOM     23  N   UNL     1      45.333   4.179   8.633  0.00  0.00    +0.000 NA
ATOM     24  H   UNL     1      42.915   3.139  10.214  0.00  0.00    +0.000 HD
BRANCH  21  25
ATOM     25  C   UNL     1      47.531   2.120   6.493  0.00  0.00    +0.000 C 
ATOM     26  N   UNL     1      48.311   1.836   5.678  0.00  0.00    +0.000 NA
ENDBRANCH  21  25
ENDBRANCH  16  17
ENDBRANCH  15  16
ENDBRANCH   5  15
TORSDOF 7
ENDMDL
MODEL 2
REMARK VINA RESULT:    -7.047      2.274      3.993
REMARK INTER + INTRA:         -10.575
REMARK INTER:                  -9.894
REMARK INTRA:                  -0.681
REMARK UNBOUND:                -0.850
REMARK  Name = 
REMARK  8 active torsions:
REMARK  status: ('A' for Active; 'I' for Inactive)
REMARK    1  A    between atoms: C_1  and  C_2
REMARK    2  A    between atoms: C_2  and  O_3
REMARK    3  A    between atoms: C_5  and  O_6
REMARK    4  A    between atoms: O_6  and  C_7
REMARK    5  A    between atoms: C_11  and  C_12
REMARK    6  A    between atoms: C_12  and  C_13
REMARK    7  A    between atoms: C_13  and  N_14
REMARK    8  A    between atoms: C_18  and  C_19
REMARK                            x       y       z     vdW  Elec       q    Type
REMARK                         _______ _______ _______ _____ _____    ______ ____
ROOT
ATOM      1  C   UNL     1      47.036   6.611  13.354  0.00  0.00    +0.000 A 
ATOM      2  C   UNL     1      47.412   5.415  13.955  0.00  0.00    +0.000 A 
ATOM      3  C   UNL     1      46.606   4.285  13.809  0.00  0.00    +0.000 A 
ATOM      4  C   UNL     1      45.408   4.357  13.094  0.00  0.00    +0.000 A 
ATOM      5  C   UNL     1      44.987   5.568  12.526  0.00  0.00    +0.000 A 
ATOM      6  C   UNL     1      45.831   6.687  12.656  0.00  0.00    +0.000 A 
ENDROOT
BRANCH   1   7
ATOM      7  O   UNL     1      47.770   7.772  13.397  0.00  0.00    +0.000 OA
BRANCH   7  11
ATOM      8  C   UNL     1      51.067   9.775  10.994  0.00  0.00    +0.000 C 
ATOM      9  C   UNL     1      50.750   8.616  11.924  0.00  0.00    +0.000 C 
ATOM     10  C   UNL     1      49.500   7.798  11.526  0.00  0.00    +0.000 C 
ATOM     11  C   UNL     1      49.165   7.690  13.036  0.00  0.00    +0.000 C 
ATOM     12  C   UNL     1      49.988   8.988  13.227  0.00  0.00    +0.000 C 
BRANCH   9  13
ATOM     13  O   UNL     1      51.946   7.831  12.134  0.00  0.00    +0.000 OA
ATOM     14  H   UNL     1      52.545   8.404  12.645  0.00  0.00    +0.000 HD
ENDBRANCH   9  13
ENDBRANCH   7  11
ENDBRANCH   1   7
BRANCH   5  15
ATOM     15  C   UNL     1      43.641   5.623  11.825  0.00  0.00    +0.000 C 
BRANCH  15  16
ATOM     16  C   UNL     1      43.661   5.045  10.408  0.00  0.00    +0.000 C 
BRANCH  16  17
ATOM     17  N   UNL     1      43.797   3.584  10.378  0.00  0.00    +0.000 N 
ATOM     18  C   UNL     1      44.736   3.195   9.395  0.00  0.00    +0.000 A 
ATOM     19  C   UNL     1      44.987   1.841   9.198  0.00  0.00    +0.000 A 
ATOM     20  C   UNL     1      45.930   1.449   8.244  0.00  0.00    +0.000 A 
ATOM     21  C   UNL     1      46.603   2.418   7.507  0.00  0.00    +0.000 A 
ATOM     22  C   UNL     1      46.303   3.742   7.764  0.00  0.00    +0.000 A 
ATOM     23  N   UNL     1      45.398   4.135   8.686  0.00  0.00    +0.000 NA
ATOM     24  H   UNL     1      42.913   3.122  10.177  0.00  0.00    +0.000 HD
BRANCH  21  25
ATOM     25  C   UNL     1      47.575   2.080   6.520  0.00  0.00    +0.000 C 
ATOM     26  N   UNL     1      48.361   1.804   5.709  0.00  0.00    +0.000 NA
ENDBRANCH  21  25
ENDBRANCH  16  17
ENDBRANCH  15  16
ENDBRANCH   5  15
TORSDOF 7
ENDMDL
MODEL 3
REMARK VINA RESULT:    -6.792      2.121      2.748
REMARK INTER + INTRA:         -10.223
REMARK INTER:                  -9.930
REMARK INTRA:                  -0.293
REMARK UNBOUND:                -0.850
REMARK  Name = 
REMARK  8 active torsions:
REMARK  status: ('A' for Active; 'I' for Inactive)
REMARK    1  A    between atoms: C_1  and  C_2
REMARK    2  A    between atoms: C_2  and  O_3
REMARK    3  A    between atoms: C_5  and  O_6
REMARK    4  A    between atoms: O_6  and  C_7
REMARK    5  A    between atoms: C_11  and  C_12
REMARK    6  A    between atoms: C_12  and  C_13
REMARK    7  A    between atoms: C_13  and  N_14
REMARK    8  A    between atoms: C_18  and  C_19
REMARK                            x       y       z     vdW  Elec       q    Type
REMARK                         _______ _______ _______ _____ _____    ______ ____
ROOT
ATOM      1  C   UNL     1      46.768   6.018  13.093  0.00  0.00    +0.000 A 
ATOM      2  C   UNL     1      46.146   7.194  12.689  0.00  0.00    +0.000 A 
ATOM      3  C   UNL     1      44.791   7.180  12.353  0.00  0.00    +0.000 A 
ATOM      4  C   UNL     1      44.067   5.987  12.385  0.00  0.00    +0.000 A 
ATOM      5  C   UNL     1      44.690   4.781  12.739  0.00  0.00    +0.000 A 
ATOM      6  C   UNL     1      46.048   4.824  13.107  0.00  0.00    +0.000 A 
ENDROOT
BRANCH   1   7
ATOM      7  O   UNL     1      48.081   5.923  13.485  0.00  0.00    +0.000 OA
BRANCH   7  11
ATOM      8  C   UNL     1      51.676   7.231  15.938  0.00  0.00    +0.000 C 
ATOM      9  C   UNL     1      50.294   7.643  15.462  0.00  0.00    +0.000 C 
ATOM     10  C   UNL     1      49.196   6.576  15.681  0.00  0.00    +0.000 C 
ATOM     11  C   UNL     1      48.609   6.986  14.305  0.00  0.00    +0.000 C 
ATOM     12  C   UNL     1      50.031   7.479  13.938  0.00  0.00    +0.000 C 
BRANCH   9  13
ATOM     13  O   UNL     1      49.978   8.954  15.986  0.00  0.00    +0.000 OA
ATOM     14  H   UNL     1      49.692   9.477  15.216  0.00  0.00    +0.000 HD
ENDBRANCH   9  13
ENDBRANCH   7  11
ENDBRANCH   1   7
BRANCH   5  15
ATOM     15  C   UNL     1      43.886   3.493  12.685  0.00  0.00    +0.000 C 
BRANCH  15  16
ATOM     16  C   UNL     1      43.506   3.064  11.266  0.00  0.00    +0.000 C 
BRANCH  16  17
ATOM     17  N   UNL     1      43.829   4.070  10.248  0.00  0.00    +0.000 N 
ATOM     18  C   UNL     1      44.773   3.557   9.328  0.00  0.00    +0.000 A 
ATOM     19  C   UNL     1      45.224   4.374   8.296  0.00  0.00    +0.000 A 
ATOM     20  C   UNL     1      46.140   3.867   7.370  0.00  0.00    +0.000 A 
ATOM     21  C   UNL     1      46.585   2.555   7.494  0.00  0.00    +0.000 A 
ATOM     22  C   UNL     1      46.088   1.805   8.542  0.00  0.00    +0.000 A 
ATOM     23  N   UNL     1      45.198   2.280   9.441  0.00  0.00    +0.000 NA
ATOM     24  H   UNL     1      44.209   4.920  10.657  0.00  0.00    +0.000 HD
BRANCH  21  25
ATOM     25  C   UNL     1      47.519   1.983   6.582  0.00  0.00    +0.000 C 
ATOM     26  N   UNL     1      48.283   1.510   5.843  0.00  0.00    +0.000 NA
ENDBRANCH  21  25
ENDBRANCH  16  17
ENDBRANCH  15  16
ENDBRANCH   5  15
TORSDOF 7
ENDMDL
MODEL 4
REMARK VINA RESULT:    -6.556      3.874      8.797
REMARK INTER + INTRA:          -9.897
REMARK INTER:                  -9.356
REMARK INTRA:                  -0.541
REMARK UNBOUND:                -0.850
REMARK  Name = 
REMARK  8 active torsions:
REMARK  status: ('A' for Active; 'I' for Inactive)
REMARK    1  A    between atoms: C_1  and  C_2
REMARK    2  A    between atoms: C_2  and  O_3
REMARK    3  A    between atoms: C_5  and  O_6
REMARK    4  A    between atoms: O_6  and  C_7
REMARK    5  A    between atoms: C_11  and  C_12
REMARK    6  A    between atoms: C_12  and  C_13
REMARK    7  A    between atoms: C_13  and  N_14
REMARK    8  A    between atoms: C_18  and  C_19
REMARK                            x       y       z     vdW  Elec       q    Type
REMARK                         _______ _______ _______ _____ _____    ______ ____
ROOT
ATOM      1  C   UNL     1      44.755   3.992   9.817  0.00  0.00    +0.000 A 
ATOM      2  C   UNL     1      43.940   2.941  10.223  0.00  0.00    +0.000 A 
ATOM      3  C   UNL     1      43.632   2.788  11.576  0.00  0.00    +0.000 A 
ATOM      4  C   UNL     1      44.166   3.661  12.526  0.00  0.00    +0.000 A 
ATOM      5  C   UNL     1      45.031   4.695  12.141  0.00  0.00    +0.000 A 
ATOM      6  C   UNL     1      45.301   4.853  10.769  0.00  0.00    +0.000 A 
ENDROOT
BRANCH   1   7
ATOM      7  O   UNL     1      45.089   4.263   8.512  0.00  0.00    +0.000 OA
BRANCH   7  11
ATOM      8  C   UNL     1      47.075   2.032   5.087  0.00  0.00    +0.000 C 
ATOM      9  C   UNL     1      47.323   2.711   6.423  0.00  0.00    +0.000 C 
ATOM     10  C   UNL     1      46.360   2.274   7.552  0.00  0.00    +0.000 C 
ATOM     11  C   UNL     1      46.348   3.750   8.029  0.00  0.00    +0.000 C 
ATOM     12  C   UNL     1      46.721   4.135   6.575  0.00  0.00    +0.000 C 
BRANCH   9  13
ATOM     13  O   UNL     1      48.727   2.616   6.754  0.00  0.00    +0.000 OA
ATOM     14  H   UNL     1      48.755   2.361   7.693  0.00  0.00    +0.000 HD
ENDBRANCH   9  13
ENDBRANCH   7  11
ENDBRANCH   1   7
BRANCH   5  15
ATOM     15  C   UNL     1      45.651   5.574  13.214  0.00  0.00    +0.000 C 
BRANCH  15  16
ATOM     16  C   UNL     1      46.918   4.983  13.837  0.00  0.00    +0.000 C 
BRANCH  16  17
ATOM     17  N   UNL     1      46.644   3.968  14.860  0.00  0.00    +0.000 N 
ATOM     18  C   UNL     1      47.488   4.154  15.980  0.00  0.00    +0.000 A 
ATOM     19  C   UNL     1      47.394   3.272  17.051  0.00  0.00    +0.000 A 
ATOM     20  C   UNL     1      48.209   3.463  18.171  0.00  0.00    +0.000 A 
ATOM     21  C   UNL     1      49.101   4.530  18.196  0.00  0.00    +0.000 A 
ATOM     22  C   UNL     1      49.132   5.365  17.096  0.00  0.00    +0.000 A 
ATOM     23  N   UNL     1      48.347   5.197  16.010  0.00  0.00    +0.000 NA
ATOM     24  H   UNL     1      46.781   3.023  14.509  0.00  0.00    +0.000 HD
BRANCH  21  25
ATOM     25  C   UNL     1      49.958   4.775  19.308  0.00  0.00    +0.000 C 
ATOM     26  N   UNL     1      50.663   4.970  20.212  0.00  0.00    +0.000 NA
ENDBRANCH  21  25
ENDBRANCH  16  17
ENDBRANCH  15  16
ENDBRANCH   5  15
TORSDOF 7
ENDMDL
MODEL 5
REMARK VINA RESULT:    -6.144      4.185      8.075
REMARK INTER + INTRA:          -9.329
REMARK INTER:                  -8.892
REMARK INTRA:                  -0.437
REMARK UNBOUND:                -0.850
REMARK  Name = 
REMARK  8 active torsions:
REMARK  status: ('A' for Active; 'I' for Inactive)
REMARK    1  A    between atoms: C_1  and  C_2
REMARK    2  A    between atoms: C_2  and  O_3
REMARK    3  A    between atoms: C_5  and  O_6
REMARK    4  A    between atoms: O_6  and  C_7
REMARK    5  A    between atoms: C_11  and  C_12
REMARK    6  A    between atoms: C_12  and  C_13
REMARK    7  A    between atoms: C_13  and  N_14
REMARK    8  A    between atoms: C_18  and  C_19
REMARK                            x       y       z     vdW  Elec       q    Type
REMARK                         _______ _______ _______ _____ _____    ______ ____
ROOT
ATOM      1  C   UNL     1      46.585   6.339  12.810  0.00  0.00    +0.000 A 
ATOM      2  C   UNL     1      45.809   7.477  12.625  0.00  0.00    +0.000 A 
ATOM      3  C   UNL     1      46.195   8.681  13.216  0.00  0.00    +0.000 A 
ATOM      4  C   UNL     1      47.334   8.740  14.022  0.00  0.00    +0.000 A 
ATOM      5  C   UNL     1      48.099   7.590  14.263  0.00  0.00    +0.000 A 
ATOM      6  C   UNL     1      47.712   6.395  13.629  0.00  0.00    +0.000 A 
ENDROOT
BRANCH   1   7
ATOM      7  O   UNL     1      46.324   5.114  12.244  0.00  0.00    +0.000 OA
BRANCH   7  11
ATOM      8  C   UNL     1      45.406   3.402   8.136  0.00  0.00    +0.000 C 
ATOM      9  C   UNL     1      44.859   4.262   9.263  0.00  0.00    +0.000 C 
ATOM     10  C   UNL     1      45.828   5.361   9.757  0.00  0.00    +0.000 C 
ATOM     11  C   UNL     1      45.333   5.064  11.197  0.00  0.00    +0.000 C 
ATOM     12  C   UNL     1      44.961   3.649  10.687  0.00  0.00    +0.000 C 
BRANCH   9  13
ATOM     13  O   UNL     1      43.539   4.733   8.907  0.00  0.00    +0.000 OA
ATOM     14  H   UNL     1      43.492   5.646   9.242  0.00  0.00    +0.000 HD
ENDBRANCH   9  13
ENDBRANCH   7  11
ENDBRANCH   1   7
BRANCH   5  15
ATOM     15  C   UNL     1      49.286   7.681  15.207  0.00  0.00    +0.000 C 
BRANCH  15  16
ATOM     16  C   UNL     1      48.979   7.204  16.629  0.00  0.00    +0.000 C 
BRANCH  16  17
ATOM     17  N   UNL     1      48.184   5.972  16.669  0.00  0.00    +0.000 N 
ATOM     18  C   UNL     1      49.016   4.854  16.914  0.00  0.00    +0.000 A 
ATOM     19  C   UNL     1      48.448   3.586  16.966  0.00  0.00    +0.000 A 
ATOM     20  C   UNL     1      49.260   2.479  17.230  0.00  0.00    +0.000 A 
ATOM     21  C   UNL     1      50.624   2.664  17.436  0.00  0.00    +0.000 A 
ATOM     22  C   UNL     1      51.113   3.954  17.374  0.00  0.00    +0.000 A 
ATOM     23  N   UNL     1      50.339   5.033  17.125  0.00  0.00    +0.000 NA
ATOM     24  H   UNL     1      47.681   5.812  15.800  0.00  0.00    +0.000 HD
BRANCH  21  25
ATOM     25  C   UNL     1      51.503   1.575  17.707  0.00  0.00    +0.000 C 
ATOM     26  N   UNL     1      52.214   0.683  17.930  0.00  0.00    +0.000 NA
ENDBRANCH  21  25
ENDBRANCH  16  17
ENDBRANCH  15  16
ENDBRANCH   5  15
TORSDOF 7
ENDMDL
MODEL 6
REMARK VINA RESULT:    -6.084      4.496      7.775
REMARK INTER + INTRA:          -9.246
REMARK INTER:                  -8.751
REMARK INTRA:                  -0.495
REMARK UNBOUND:                -0.850
REMARK  Name = 
REMARK  8 active torsions:
REMARK  status: ('A' for Active; 'I' for Inactive)
REMARK    1  A    between atoms: C_1  and  C_2
REMARK    2  A    between atoms: C_2  and  O_3
REMARK    3  A    between atoms: C_5  and  O_6
REMARK    4  A    between atoms: O_6  and  C_7
REMARK    5  A    between atoms: C_11  and  C_12
REMARK    6  A    between atoms: C_12  and  C_13
REMARK    7  A    between atoms: C_13  and  N_14
REMARK    8  A    between atoms: C_18  and  C_19
REMARK                            x       y       z     vdW  Elec       q    Type
REMARK                         _______ _______ _______ _____ _____    ______ ____
ROOT
ATOM      1  C   UNL     1      44.353   3.099  10.292  0.00  0.00    +0.000 A 
ATOM      2  C   UNL     1      43.711   2.580  11.411  0.00  0.00    +0.000 A 
ATOM      3  C   UNL     1      43.381   3.425  12.472  0.00  0.00    +0.000 A 
ATOM      4  C   UNL     1      43.723   4.779  12.431  0.00  0.00    +0.000 A 
ATOM      5  C   UNL     1      44.417   5.308  11.333  0.00  0.00    +0.000 A 
ATOM      6  C   UNL     1      44.710   4.446  10.260  0.00  0.00    +0.000 A 
ENDROOT
BRANCH   1   7
ATOM      7  O   UNL     1      44.688   2.370   9.176  0.00  0.00    +0.000 OA
BRANCH   7  11
ATOM      8  C   UNL     1      46.837   2.362   5.171  0.00  0.00    +0.000 C 
ATOM      9  C   UNL     1      46.972   2.719   6.642  0.00  0.00    +0.000 C 
ATOM     10  C   UNL     1      46.548   1.596   7.616  0.00  0.00    +0.000 C 
ATOM     11  C   UNL     1      45.931   2.696   8.518  0.00  0.00    +0.000 C 
ATOM     12  C   UNL     1      45.810   3.561   7.239  0.00  0.00    +0.000 C 
BRANCH   9  13
ATOM     13  O   UNL     1      48.291   3.264   6.882  0.00  0.00    +0.000 OA
ATOM     14  H   UNL     1      48.250   4.185   6.570  0.00  0.00    +0.000 HD
ENDBRANCH   9  13
ENDBRANCH   7  11
ENDBRANCH   1   7
BRANCH   5  15
ATOM     15  C   UNL     1      44.839   6.767  11.363  0.00  0.00    +0.000 C 
BRANCH  15  16
ATOM     16  C   UNL     1      45.816   7.102  12.493  0.00  0.00    +0.000 C 
BRANCH  16  17
ATOM     17  N   UNL     1      46.224   8.511  12.510  0.00  0.00    +0.000 N 
ATOM     18  C   UNL     1      47.593   8.633  12.175  0.00  0.00    +0.000 A 
ATOM     19  C   UNL     1      48.175   9.896  12.160  0.00  0.00    +0.000 A 
ATOM     20  C   UNL     1      49.521  10.028  11.808  0.00  0.00    +0.000 A 
ATOM     21  C   UNL     1      50.258   8.894  11.479  0.00  0.00    +0.000 A 
ATOM     22  C   UNL     1      49.608   7.676  11.513  0.00  0.00    +0.000 A 
ATOM     23  N   UNL     1      48.306   7.534  11.845  0.00  0.00    +0.000 NA
ATOM     24  H   UNL     1      46.077   8.941  13.419  0.00  0.00    +0.000 HD
BRANCH  21  25
ATOM     25  C   UNL     1      51.634   8.964  11.115  0.00  0.00    +0.000 C 
ATOM     26  N   UNL     1      52.756   9.028  10.817  0.00  0.00    +0.000 NA
ENDBRANCH  21  25
ENDBRANCH  16  17
ENDBRANCH  15  16
ENDBRANCH   5  15
TORSDOF 7
ENDMDL
MODEL 7
REMARK VINA RESULT:    -6.046      3.954      8.243
REMARK INTER + INTRA:          -9.193
REMARK INTER:                  -8.620
REMARK INTRA:                  -0.573
REMARK UNBOUND:                -0.850
REMARK  Name = 
REMARK  8 active torsions:
REMARK  status: ('A' for Active; 'I' for Inactive)
REMARK    1  A    between atoms: C_1  and  C_2
REMARK    2  A    between atoms: C_2  and  O_3
REMARK    3  A    between atoms: C_5  and  O_6
REMARK    4  A    between atoms: O_6  and  C_7
REMARK    5  A    between atoms: C_11  and  C_12
REMARK    6  A    between atoms: C_12  and  C_13
REMARK    7  A    between atoms: C_13  and  N_14
REMARK    8  A    between atoms: C_18  and  C_19
REMARK                            x       y       z     vdW  Elec       q    Type
REMARK                         _______ _______ _______ _____ _____    ______ ____
ROOT
ATOM      1  C   UNL     1      44.529   3.113   9.829  0.00  0.00    +0.000 A 
ATOM      2  C   UNL     1      43.802   2.520  10.855  0.00  0.00    +0.000 A 
ATOM      3  C   UNL     1      43.505   3.253  12.005  0.00  0.00    +0.000 A 
ATOM      4  C   UNL     1      43.964   4.564  12.146  0.00  0.00    +0.000 A 
ATOM      5  C   UNL     1      44.744   5.160  11.144  0.00  0.00    +0.000 A 
ATOM      6  C   UNL     1      45.002   4.416   9.979  0.00  0.00    +0.000 A 
ENDROOT
BRANCH   1   7
ATOM      7  O   UNL     1      44.843   2.501   8.639  0.00  0.00    +0.000 OA
BRANCH   7  11
ATOM      8  C   UNL     1      47.445   2.198   4.925  0.00  0.00    +0.000 C 
ATOM      9  C   UNL     1      47.443   2.551   6.403  0.00  0.00    +0.000 C 
ATOM     10  C   UNL     1      46.773   1.496   7.313  0.00  0.00    +0.000 C 
ATOM     11  C   UNL     1      46.186   2.670   8.139  0.00  0.00    +0.000 C 
ATOM     12  C   UNL     1      46.326   3.531   6.858  0.00  0.00    +0.000 C 
BRANCH   9  13
ATOM     13  O   UNL     1      48.778   2.938   6.804  0.00  0.00    +0.000 OA
ATOM     14  H   UNL     1      48.660   3.715   7.378  0.00  0.00    +0.000 HD
ENDBRANCH   9  13
ENDBRANCH   7  11
ENDBRANCH   1   7
BRANCH   5  15
ATOM     15  C   UNL     1      45.289   6.560  11.371  0.00  0.00    +0.000 C 
BRANCH  15  16
ATOM     16  C   UNL     1      46.753   6.586  11.815  0.00  0.00    +0.000 C 
BRANCH  16  17
ATOM     17  N   UNL     1      46.930   6.341  13.251  0.00  0.00    +0.000 N 
ATOM     18  C   UNL     1      48.193   6.810  13.681  0.00  0.00    +0.000 A 
ATOM     19  C   UNL     1      48.558   6.647  15.013  0.00  0.00    +0.000 A 
ATOM     20  C   UNL     1      49.795   7.128  15.451  0.00  0.00    +0.000 A 
ATOM     21  C   UNL     1      50.642   7.762  14.548  0.00  0.00    +0.000 A 
ATOM     22  C   UNL     1      50.207   7.890  13.243  0.00  0.00    +0.000 A 
ATOM     23  N   UNL     1      49.013   7.436  12.807  0.00  0.00    +0.000 NA
ATOM     24  H   UNL     1      46.859   5.353  13.482  0.00  0.00    +0.000 HD
BRANCH  21  25
ATOM     25  C   UNL     1      51.916   8.272  14.933  0.00  0.00    +0.000 C 
ATOM     26  N   UNL     1      52.956   8.691  15.241  0.00  0.00    +0.000 NA
ENDBRANCH  21  25
ENDBRANCH  16  17
ENDBRANCH  15  16
ENDBRANCH   5  15
TORSDOF 7
ENDMDL
MODEL 8
REMARK VINA RESULT:    -5.934      2.171      2.426
REMARK INTER + INTRA:          -9.039
REMARK INTER:                  -8.342
REMARK INTRA:                  -0.697
REMARK UNBOUND:                -0.850
REMARK  Name = 
REMARK  8 active torsions:
REMARK  status: ('A' for Active; 'I' for Inactive)
REMARK    1  A    between atoms: C_1  and  C_2
REMARK    2  A    between atoms: C_2  and  O_3
REMARK    3  A    between atoms: C_5  and  O_6
REMARK    4  A    between atoms: O_6  and  C_7
REMARK    5  A    between atoms: C_11  and  C_12
REMARK    6  A    between atoms: C_12  and  C_13
REMARK    7  A    between atoms: C_13  and  N_14
REMARK    8  A    between atoms: C_18  and  C_19
REMARK                            x       y       z     vdW  Elec       q    Type
REMARK                         _______ _______ _______ _____ _____    ______ ____
ROOT
ATOM      1  C   UNL     1      48.080   7.098  13.363  0.00  0.00    +0.000 A 
ATOM      2  C   UNL     1      47.984   8.308  12.686  0.00  0.00    +0.000 A 
ATOM      3  C   UNL     1      46.760   8.700  12.140  0.00  0.00    +0.000 A 
ATOM      4  C   UNL     1      45.643   7.868  12.238  0.00  0.00    +0.000 A 
ATOM      5  C   UNL     1      45.735   6.620  12.871  0.00  0.00    +0.000 A 
ATOM      6  C   UNL     1      46.968   6.260  13.444  0.00  0.00    +0.000 A 
ENDROOT
BRANCH   1   7
ATOM      7  O   UNL     1      49.219   6.632  13.973  0.00  0.00    +0.000 OA
BRANCH   7  11
ATOM      8  C   UNL     1      49.136   7.042  18.498  0.00  0.00    +0.000 C 
ATOM      9  C   UNL     1      49.732   7.608  17.220  0.00  0.00    +0.000 C 
ATOM     10  C   UNL     1      48.698   7.915  16.112  0.00  0.00    +0.000 C 
ATOM     11  C   UNL     1      49.736   7.393  15.085  0.00  0.00    +0.000 C 
ATOM     12  C   UNL     1      50.344   6.564  16.244  0.00  0.00    +0.000 C 
BRANCH   9  13
ATOM     13  O   UNL     1      50.612   8.707  17.549  0.00  0.00    +0.000 OA
ATOM     14  H   UNL     1      51.333   8.314  18.072  0.00  0.00    +0.000 HD
ENDBRANCH   9  13
ENDBRANCH   7  11
ENDBRANCH   1   7
BRANCH   5  15
ATOM     15  C   UNL     1      44.517   5.712  12.887  0.00  0.00    +0.000 C 
BRANCH  15  16
ATOM     16  C   UNL     1      43.934   5.439  11.499  0.00  0.00    +0.000 C 
BRANCH  16  17
ATOM     17  N   UNL     1      43.837   4.011  11.179  0.00  0.00    +0.000 N 
ATOM     18  C   UNL     1      44.551   3.720   9.993  0.00  0.00    +0.000 A 
ATOM     19  C   UNL     1      44.559   2.415   9.511  0.00  0.00    +0.000 A 
ATOM     20  C   UNL     1      45.281   2.115   8.352  0.00  0.00    +0.000 A 
ATOM     21  C   UNL     1      45.979   3.126   7.700  0.00  0.00    +0.000 A 
ATOM     22  C   UNL     1      45.927   4.395   8.242  0.00  0.00    +0.000 A 
ATOM     23  N   UNL     1      45.239   4.698   9.364  0.00  0.00    +0.000 NA
ATOM     24  H   UNL     1      42.873   3.711  11.054  0.00  0.00    +0.000 HD
BRANCH  21  25
ATOM     25  C   UNL     1      46.732   2.882   6.514  0.00  0.00    +0.000 C 
ATOM     26  N   UNL     1      47.348   2.691   5.546  0.00  0.00    +0.000 NA
ENDBRANCH  21  25
ENDBRANCH  16  17
ENDBRANCH  15  16
ENDBRANCH   5  15
TORSDOF 7
ENDMDL
MODEL 9
REMARK VINA RESULT:    -5.919      3.749      6.451
REMARK INTER + INTRA:          -9.018
REMARK INTER:                  -8.382
REMARK INTRA:                  -0.636
REMARK UNBOUND:                -0.850
REMARK  Name = 
REMARK  8 active torsions:
REMARK  status: ('A' for Active; 'I' for Inactive)
REMARK    1  A    between atoms: C_1  and  C_2
REMARK    2  A    between atoms: C_2  and  O_3
REMARK    3  A    between atoms: C_5  and  O_6
REMARK    4  A    between atoms: O_6  and  C_7
REMARK    5  A    between atoms: C_11  and  C_12
REMARK    6  A    between atoms: C_12  and  C_13
REMARK    7  A    between atoms: C_13  and  N_14
REMARK    8  A    between atoms: C_18  and  C_19
REMARK                            x       y       z     vdW  Elec       q    Type
REMARK                         _______ _______ _______ _____ _____    ______ ____
ROOT
ATOM      1  C   UNL     1      50.918   4.055  18.260  0.00  0.00    +0.000 A 
ATOM      2  C   UNL     1      50.927   4.766  19.455  0.00  0.00    +0.000 A 
ATOM      3  C   UNL     1      49.721   5.170  20.028  0.00  0.00    +0.000 A 
ATOM      4  C   UNL     1      48.508   4.898  19.390  0.00  0.00    +0.000 A 
ATOM      5  C   UNL     1      48.483   4.229  18.158  0.00  0.00    +0.000 A 
ATOM      6  C   UNL     1      49.708   3.800  17.615  0.00  0.00    +0.000 A 
ENDROOT
BRANCH   1   7
ATOM      7  O   UNL     1      52.040   3.573  17.629  0.00  0.00    +0.000 OA
BRANCH   7  11
ATOM      8  C   UNL     1      54.314  -0.199  16.509  0.00  0.00    +0.000 C 
ATOM      9  C   UNL     1      53.720   0.584  17.668  0.00  0.00    +0.000 C 
ATOM     10  C   UNL     1      52.259   1.041  17.451  0.00  0.00    +0.000 C 
ATOM     11  C   UNL     1      52.634   2.369  18.158  0.00  0.00    +0.000 C 
ATOM     12  C   UNL     1      54.095   2.091  17.724  0.00  0.00    +0.000 C 
BRANCH   9  13
ATOM     13  O   UNL     1      53.952  -0.137  18.900  0.00  0.00    +0.000 OA
ATOM     14  H   UNL     1      53.814  -1.075  18.681  0.00  0.00    +0.000 HD
ENDBRANCH   9  13
ENDBRANCH   7  11
ENDBRANCH   1   7
BRANCH   5  15
ATOM     15  C   UNL     1      47.150   4.022  17.460  0.00  0.00    +0.000 C 
BRANCH  15  16
ATOM     16  C   UNL     1      47.267   3.868  15.942  0.00  0.00    +0.000 C 
BRANCH  16  17
ATOM     17  N   UNL     1      47.163   5.140  15.219  0.00  0.00    +0.000 N 
ATOM     18  C   UNL     1      46.537   4.946  13.965  0.00  0.00    +0.000 A 
ATOM     19  C   UNL     1      46.367   6.037  13.118  0.00  0.00    +0.000 A 
ATOM     20  C   UNL     1      45.729   5.857  11.888  0.00  0.00    +0.000 A 
ATOM     21  C   UNL     1      45.274   4.593  11.529  0.00  0.00    +0.000 A 
ATOM     22  C   UNL     1      45.476   3.561  12.425  0.00  0.00    +0.000 A 
ATOM     23  N   UNL     1      46.086   3.720  13.620  0.00  0.00    +0.000 NA
ATOM     24  H   UNL     1      48.073   5.566  15.060  0.00  0.00    +0.000 HD
BRANCH  21  25
ATOM     25  C   UNL     1      44.618   4.347  10.288  0.00  0.00    +0.000 C 
ATOM     26  N   UNL     1      44.085   4.153   9.272  0.00  0.00    +0.000 NA
ENDBRANCH  21  25
ENDBRANCH  16  17
ENDBRANCH  15  16
ENDBRANCH   5  15
TORSDOF 7
ENDMDL
