MODEL 1
REMARK VINA RESULT:    -8.559      0.000      0.000
REMARK INTER + INTRA:         -12.842
REMARK INTER:                 -12.061
REMARK INTRA:                  -0.781
REMARK UNBOUND:                -0.781
REMARK  Name = 
REMARK  7 active torsions:
REMARK  status: ('A' for Active; 'I' for Inactive)
REMARK    1  A    between atoms: C_2  and  C_3
REMARK    2  A    between atoms: C_7  and  C_8
REMARK    3  A    between atoms: C_8  and  N_9
REMARK    4  A    between atoms: N_9  and  C_10
REMARK    5  A    between atoms: C_13  and  C_14
REMARK    6  A    between atoms: C_14  and  N_15
REMARK    7  A    between atoms: C_16  and  C_18
REMARK                            x       y       z     vdW  Elec       q    Type
REMARK                         _______ _______ _______ _____ _____    ______ ____
ROOT
ATOM      1  C   UNL     1      44.669   5.998  11.125  0.00  0.00    +0.000 A 
ATOM      2  C   UNL     1      45.748   5.373  11.767  0.00  0.00    +0.000 A 
ATOM      3  C   UNL     1      46.631   6.104  12.589  0.00  0.00    +0.000 A 
ATOM      4  C   UNL     1      46.468   7.485  12.763  0.00  0.00    +0.000 A 
ATOM      5  C   UNL     1      45.459   8.123  12.040  0.00  0.00    +0.000 A 
ATOM      6  C   UNL     1      44.585   7.389  11.237  0.00  0.00    +0.000 A 
ENDROOT
BRANCH   1   7
ATOM      7  N   UNL     1      43.789   5.268  10.304  0.00  0.00    +0.000 N 
ATOM      8  H   UNL     1      43.682   5.688   9.385  0.00  0.00    +0.000 HD
BRANCH   7   9
ATOM      9  C   UNL     1      43.999   3.815  10.235  0.00  0.00    +0.000 C 
BRANCH   9  14
ATOM     10  C   UNL     1      46.233   1.746   7.944  0.00  0.00    +0.000 A 
ATOM     11  C   UNL     1      46.822   2.731   7.148  0.00  0.00    +0.000 A 
ATOM     12  C   UNL     1      46.509   4.077   7.352  0.00  0.00    +0.000 A 
ATOM     13  C   UNL     1      45.597   4.439   8.348  0.00  0.00    +0.000 A 
ATOM     14  C   UNL     1      44.973   3.459   9.136  0.00  0.00    +0.000 A 
ATOM     15  C   UNL     1      45.309   2.109   8.932  0.00  0.00    +0.000 A 
BRANCH  10  17
ATOM     16  N   UNL     1      46.855  -0.752   7.614  0.00  0.00    +0.000 NA
ATOM     17  C   UNL     1      46.571   0.369   7.754  0.00  0.00    +0.000 C 
ENDBRANCH  10  17
ENDBRANCH   9  14
ENDBRANCH   7   9
ENDBRANCH   1   7
BRANCH   4  18
ATOM     18  C   UNL     1      47.313   8.289  13.718  0.00  0.00    +0.000 C 
BRANCH  18  19
ATOM     19  N   UNL     1      47.673   7.565  14.910  0.00  0.00    +0.000 N 
ATOM     20  C   UNL     1      48.881   6.913  15.000  0.00  0.00    +0.000 C 
ATOM     21  O   UNL     1      49.703   6.928  14.088  0.00  0.00    +0.000 OA
ATOM     22  H   UNL     1      46.931   7.323  15.559  0.00  0.00    +0.000 HD
BRANCH  20  23
ATOM     23  C   UNL     1      49.164   6.237  16.271  0.00  0.00    +0.000 A 
ATOM     24  C   UNL     1      50.156   6.732  17.109  0.00  0.00    +0.000 A 
ATOM     25  S   UNL     1      50.390   5.795  18.516  0.00  0.00    +0.000 S 
ATOM     26  C   UNL     1      49.183   4.692  18.048  0.00  0.00    +0.000 A 
ATOM     27  N   UNL     1      48.905   3.595  18.805  0.00  0.00    +0.000 NA
ATOM     28  C   UNL     1      47.973   2.839  18.325  0.00  0.00    +0.000 A 
ATOM     29  N   UNL     1      47.281   3.091  17.169  0.00  0.00    +0.000 N 
ATOM     30  C   UNL     1      47.500   4.206  16.395  0.00  0.00    +0.000 A 
ATOM     31  O   UNL     1      46.808   4.448  15.412  0.00  0.00    +0.000 OA
ATOM     32  C   UNL     1      48.575   5.061  16.862  0.00  0.00    +0.000 A 
ATOM     33  H   UNL     1      46.536   2.480  16.869  0.00  0.00    +0.000 HD
ENDBRANCH  20  23
ENDBRANCH  18  19
ENDBRANCH   4  18
TORSDOF 7
ENDMDL
MODEL 2
REMARK VINA RESULT:    -7.615      2.917      8.136
REMARK INTER + INTRA:         -11.513
REMARK INTER:                  -9.992
REMARK INTRA:                  -1.520
REMARK UNBOUND:                -0.781
REMARK  Name = 
REMARK  7 active torsions:
REMARK  status: ('A' for Active; 'I' for Inactive)
REMARK    1  A    between atoms: C_2  and  C_3
REMARK    2  A    between atoms: C_7  and  C_8
REMARK    3  A    between atoms: C_8  and  N_9
REMARK    4  A    between atoms: N_9  and  C_10
REMARK    5  A    between atoms: C_13  and  C_14
REMARK    6  A    between atoms: C_14  and  N_15
REMARK    7  A    between atoms: C_16  and  C_18
REMARK                            x       y       z     vdW  Elec       q    Type
REMARK                         _______ _______ _______ _____ _____    ______ ____
ROOT
ATOM      1  C   UNL     1      49.565   8.429  15.850  0.00  0.00    +0.000 A 
ATOM      2  C   UNL     1      48.290   8.894  15.493  0.00  0.00    +0.000 A 
ATOM      3  C   UNL     1      47.798   8.742  14.181  0.00  0.00    +0.000 A 
ATOM      4  C   UNL     1      48.586   8.146  13.186  0.00  0.00    +0.000 A 
ATOM      5  C   UNL     1      49.893   7.782  13.515  0.00  0.00    +0.000 A 
ATOM      6  C   UNL     1      50.366   7.927  14.820  0.00  0.00    +0.000 A 
ENDROOT
BRANCH   1   7
ATOM      7  N   UNL     1      50.055   8.582  17.161  0.00  0.00    +0.000 N 
ATOM      8  H   UNL     1      49.406   9.087  17.758  0.00  0.00    +0.000 HD
BRANCH   7   9
ATOM      9  C   UNL     1      50.595   7.380  17.810  0.00  0.00    +0.000 C 
BRANCH   9  14
ATOM     10  C   UNL     1      48.829   4.037  17.330  0.00  0.00    +0.000 A 
ATOM     11  C   UNL     1      47.615   4.255  17.986  0.00  0.00    +0.000 A 
ATOM     12  C   UNL     1      47.352   5.489  18.582  0.00  0.00    +0.000 A 
ATOM     13  C   UNL     1      48.309   6.508  18.531  0.00  0.00    +0.000 A 
ATOM     14  C   UNL     1      49.546   6.296  17.903  0.00  0.00    +0.000 A 
ATOM     15  C   UNL     1      49.792   5.053  17.291  0.00  0.00    +0.000 A 
BRANCH  10  17
ATOM     16  N   UNL     1      49.290   1.762  16.169  0.00  0.00    +0.000 NA
ATOM     17  C   UNL     1      49.090   2.781  16.696  0.00  0.00    +0.000 C 
ENDBRANCH  10  17
ENDBRANCH   9  14
ENDBRANCH   7   9
ENDBRANCH   1   7
BRANCH   4  18
ATOM     18  C   UNL     1      48.066   7.859  11.800  0.00  0.00    +0.000 C 
BRANCH  18  19
ATOM     19  N   UNL     1      47.215   6.699  11.740  0.00  0.00    +0.000 N 
ATOM     20  C   UNL     1      45.846   6.830  11.732  0.00  0.00    +0.000 C 
ATOM     21  O   UNL     1      45.293   7.926  11.763  0.00  0.00    +0.000 OA
ATOM     22  H   UNL     1      47.624   5.799  11.970  0.00  0.00    +0.000 HD
BRANCH  20  23
ATOM     23  C   UNL     1      45.072   5.588  11.631  0.00  0.00    +0.000 A 
ATOM     24  C   UNL     1      44.307   5.162  12.710  0.00  0.00    +0.000 A 
ATOM     25  S   UNL     1      43.516   3.675  12.442  0.00  0.00    +0.000 S 
ATOM     26  C   UNL     1      44.176   3.543  10.879  0.00  0.00    +0.000 A 
ATOM     27  N   UNL     1      43.931   2.451  10.105  0.00  0.00    +0.000 NA
ATOM     28  C   UNL     1      44.504   2.480   8.947  0.00  0.00    +0.000 A 
ATOM     29  N   UNL     1      45.283   3.510   8.486  0.00  0.00    +0.000 N 
ATOM     30  C   UNL     1      45.525   4.649   9.218  0.00  0.00    +0.000 A 
ATOM     31  O   UNL     1      46.156   5.588   8.747  0.00  0.00    +0.000 OA
ATOM     32  C   UNL     1      44.948   4.643  10.549  0.00  0.00    +0.000 A 
ATOM     33  H   UNL     1      45.670   3.487   7.555  0.00  0.00    +0.000 HD
ENDBRANCH  20  23
ENDBRANCH  18  19
ENDBRANCH   4  18
TORSDOF 7
ENDMDL
MODEL 3
REMARK VINA RESULT:    -7.518      1.318      1.944
REMARK INTER + INTRA:         -11.376
REMARK INTER:                 -10.232
REMARK INTRA:                  -1.144
REMARK UNBOUND:                -0.781
REMARK  Name = 
REMARK  7 active torsions:
REMARK  status: ('A' for Active; 'I' for Inactive)
REMARK    1  A    between atoms: C_2  and  C_3
REMARK    2  A    between atoms: C_7  and  C_8
REMARK    3  A    between atoms: C_8  and  N_9
REMARK    4  A    between atoms: N_9  and  C_10
REMARK    5  A    between atoms: C_13  and  C_14
REMARK    6  A    between atoms: C_14  and  N_15
REMARK    7  A    between atoms: C_16  and  C_18
REMARK                            x       y       z     vdW  Elec       q    Type
REMARK                         _______ _______ _______ _____ _____    ______ ____
ROOT
ATOM      1  C   UNL     1      44.937   7.378  11.521  0.00  0.00    +0.000 A 
ATOM      2  C   UNL     1      46.105   6.613  11.654  0.00  0.00    +0.000 A 
ATOM      3  C   UNL     1      47.153   7.021  12.505  0.00  0.00    +0.000 A 
ATOM      4  C   UNL     1      47.066   8.223  13.220  0.00  0.00    +0.000 A 
ATOM      5  C   UNL     1      45.951   9.035  13.005  0.00  0.00    +0.000 A 
ATOM      6  C   UNL     1      44.915   8.617  12.169  0.00  0.00    +0.000 A 
ENDROOT
BRANCH   1   7
ATOM      7  N   UNL     1      43.892   6.969  10.671  0.00  0.00    +0.000 N 
ATOM      8  H   UNL     1      44.180   6.933   9.697  0.00  0.00    +0.000 HD
BRANCH   7   9
ATOM      9  C   UNL     1      43.135   5.777  11.077  0.00  0.00    +0.000 C 
BRANCH   9  14
ATOM     10  C   UNL     1      45.062   3.464   8.740  0.00  0.00    +0.000 A 
ATOM     11  C   UNL     1      44.872   2.220   9.344  0.00  0.00    +0.000 A 
ATOM     12  C   UNL     1      44.109   2.115  10.509  0.00  0.00    +0.000 A 
ATOM     13  C   UNL     1      43.542   3.259  11.079  0.00  0.00    +0.000 A 
ATOM     14  C   UNL     1      43.750   4.522  10.501  0.00  0.00    +0.000 A 
ATOM     15  C   UNL     1      44.505   4.612   9.319  0.00  0.00    +0.000 A 
BRANCH  10  17
ATOM     16  N   UNL     1      46.446   3.641   6.551  0.00  0.00    +0.000 NA
ATOM     17  C   UNL     1      45.822   3.571   7.532  0.00  0.00    +0.000 C 
ENDBRANCH  10  17
ENDBRANCH   9  14
ENDBRANCH   7   9
ENDBRANCH   1   7
BRANCH   4  18
ATOM     18  C   UNL     1      48.105   8.648  14.227  0.00  0.00    +0.000 C 
BRANCH  18  19
ATOM     19  N   UNL     1      48.240   7.730  15.328  0.00  0.00    +0.000 N 
ATOM     20  C   UNL     1      49.375   6.967  15.474  0.00  0.00    +0.000 C 
ATOM     21  O   UNL     1      50.318   7.040  14.690  0.00  0.00    +0.000 OA
ATOM     22  H   UNL     1      47.398   7.464  15.829  0.00  0.00    +0.000 HD
BRANCH  20  23
ATOM     23  C   UNL     1      49.428   6.092  16.650  0.00  0.00    +0.000 A 
ATOM     24  C   UNL     1      50.354   6.342  17.655  0.00  0.00    +0.000 A 
ATOM     25  S   UNL     1      50.313   5.199  18.920  0.00  0.00    +0.000 S 
ATOM     26  C   UNL     1      49.065   4.325  18.164  0.00  0.00    +0.000 A 
ATOM     27  N   UNL     1      48.583   3.175  18.711  0.00  0.00    +0.000 NA
ATOM     28  C   UNL     1      47.644   2.612  18.025  0.00  0.00    +0.000 A 
ATOM     29  N   UNL     1      47.130   3.103  16.853  0.00  0.00    +0.000 N 
ATOM     30  C   UNL     1      47.558   4.280  16.285  0.00  0.00    +0.000 A 
ATOM     31  O   UNL     1      47.023   4.737  15.282  0.00  0.00    +0.000 OA
ATOM     32  C   UNL     1      48.650   4.925  16.989  0.00  0.00    +0.000 A 
ATOM     33  H   UNL     1      46.369   2.634  16.386  0.00  0.00    +0.000 HD
ENDBRANCH  20  23
ENDBRANCH  18  19
ENDBRANCH   4  18
TORSDOF 7
ENDMDL
MODEL 4
REMARK VINA RESULT:    -7.426      5.050      9.255
REMARK INTER + INTRA:         -11.246
REMARK INTER:                 -10.290
REMARK INTRA:                  -0.956
REMARK UNBOUND:                -0.781
REMARK  Name = 
REMARK  7 active torsions:
REMARK  status: ('A' for Active; 'I' for Inactive)
REMARK    1  A    between atoms: C_2  and  C_3
REMARK    2  A    between atoms: C_7  and  C_8
REMARK    3  A    between atoms: C_8  and  N_9
REMARK    4  A    between atoms: N_9  and  C_10
REMARK    5  A    between atoms: C_13  and  C_14
REMARK    6  A    between atoms: C_14  and  N_15
REMARK    7  A    between atoms: C_16  and  C_18
REMARK                            x       y       z     vdW  Elec       q    Type
REMARK                         _______ _______ _______ _____ _____    ______ ____
ROOT
ATOM      1  C   UNL     1      50.985   2.105  17.365  0.00  0.00    +0.000 A 
ATOM      2  C   UNL     1      49.610   2.051  17.097  0.00  0.00    +0.000 A 
ATOM      3  C   UNL     1      48.832   3.226  17.029  0.00  0.00    +0.000 A 
ATOM      4  C   UNL     1      49.412   4.481  17.260  0.00  0.00    +0.000 A 
ATOM      5  C   UNL     1      50.756   4.524  17.633  0.00  0.00    +0.000 A 
ATOM      6  C   UNL     1      51.519   3.357  17.686  0.00  0.00    +0.000 A 
ENDROOT
BRANCH   1   7
ATOM      7  N   UNL     1      51.760   0.931  17.433  0.00  0.00    +0.000 N 
ATOM      8  H   UNL     1      51.598   0.317  16.640  0.00  0.00    +0.000 HD
BRANCH   7   9
ATOM      9  C   UNL     1      53.189   1.098  17.731  0.00  0.00    +0.000 C 
BRANCH   9  14
ATOM     10  C   UNL     1      54.770  -2.338  18.200  0.00  0.00    +0.000 A 
ATOM     11  C   UNL     1      55.414  -2.530  16.976  0.00  0.00    +0.000 A 
ATOM     12  C   UNL     1      55.352  -1.544  15.990  0.00  0.00    +0.000 A 
ATOM     13  C   UNL     1      54.635  -0.366  16.222  0.00  0.00    +0.000 A 
ATOM     14  C   UNL     1      53.956  -0.171  17.436  0.00  0.00    +0.000 A 
ATOM     15  C   UNL     1      54.041  -1.164  18.428  0.00  0.00    +0.000 A 
BRANCH  10  17
ATOM     16  N   UNL     1      54.926  -4.161  20.042  0.00  0.00    +0.000 NA
ATOM     17  C   UNL     1      54.854  -3.336  19.223  0.00  0.00    +0.000 C 
ENDBRANCH  10  17
ENDBRANCH   9  14
ENDBRANCH   7   9
ENDBRANCH   1   7
BRANCH   4  18
ATOM     18  C   UNL     1      48.651   5.772  17.089  0.00  0.00    +0.000 C 
BRANCH  18  19
ATOM     19  N   UNL     1      47.772   5.768  15.949  0.00  0.00    +0.000 N 
ATOM     20  C   UNL     1      48.210   6.206  14.720  0.00  0.00    +0.000 C 
ATOM     21  O   UNL     1      49.358   6.602  14.538  0.00  0.00    +0.000 OA
ATOM     22  H   UNL     1      46.774   5.696  16.120  0.00  0.00    +0.000 HD
BRANCH  20  23
ATOM     23  C   UNL     1      47.246   6.126  13.617  0.00  0.00    +0.000 A 
ATOM     24  C   UNL     1      46.896   7.278  12.923  0.00  0.00    +0.000 A 
ATOM     25  S   UNL     1      45.726   7.014  11.710  0.00  0.00    +0.000 S 
ATOM     26  C   UNL     1      45.640   5.355  12.077  0.00  0.00    +0.000 A 
ATOM     27  N   UNL     1      44.771   4.537  11.422  0.00  0.00    +0.000 NA
ATOM     28  C   UNL     1      44.806   3.305  11.810  0.00  0.00    +0.000 A 
ATOM     29  N   UNL     1      45.643   2.813  12.777  0.00  0.00    +0.000 N 
ATOM     30  C   UNL     1      46.563   3.594  13.436  0.00  0.00    +0.000 A 
ATOM     31  O   UNL     1      47.356   3.110  14.236  0.00  0.00    +0.000 OA
ATOM     32  C   UNL     1      46.528   4.999  13.076  0.00  0.00    +0.000 A 
ATOM     33  H   UNL     1      45.647   1.830  13.006  0.00  0.00    +0.000 HD
ENDBRANCH  20  23
ENDBRANCH  18  19
ENDBRANCH   4  18
TORSDOF 7
ENDMDL
MODEL 5
REMARK VINA RESULT:    -7.392      3.276      7.823
REMARK INTER + INTRA:         -11.197
REMARK INTER:                  -9.845
REMARK INTRA:                  -1.352
REMARK UNBOUND:                -0.781
REMARK  Name = 
REMARK  7 active torsions:
REMARK  status: ('A' for Active; 'I' for Inactive)
REMARK    1  A    between atoms: C_2  and  C_3
REMARK    2  A    between atoms: C_7  and  C_8
REMARK    3  A    between atoms: C_8  and  N_9
REMARK    4  A    between atoms: N_9  and  C_10
REMARK    5  A    between atoms: C_13  and  C_14
REMARK    6  A    between atoms: C_14  and  N_15
REMARK    7  A    between atoms: C_16  and  C_18
REMARK                            x       y       z     vdW  Elec       q    Type
REMARK                         _______ _______ _______ _____ _____    ______ ____
ROOT
ATOM      1  C   UNL     1      49.586   7.653  16.562  0.00  0.00    +0.000 A 
ATOM      2  C   UNL     1      49.964   6.835  15.487  0.00  0.00    +0.000 A 
ATOM      3  C   UNL     1      49.450   7.049  14.191  0.00  0.00    +0.000 A 
ATOM      4  C   UNL     1      48.520   8.070  13.950  0.00  0.00    +0.000 A 
ATOM      5  C   UNL     1      48.064   8.813  15.040  0.00  0.00    +0.000 A 
ATOM      6  C   UNL     1      48.587   8.601  16.316  0.00  0.00    +0.000 A 
ENDROOT
BRANCH   1   7
ATOM      7  N   UNL     1      50.099   7.438  17.855  0.00  0.00    +0.000 N 
ATOM      8  H   UNL     1      50.492   8.284  18.259  0.00  0.00    +0.000 HD
BRANCH   7   9
ATOM      9  C   UNL     1      49.236   6.715  18.799  0.00  0.00    +0.000 C 
BRANCH   9  14
ATOM     10  C   UNL     1      49.444   3.142  17.490  0.00  0.00    +0.000 A 
ATOM     11  C   UNL     1      48.118   2.886  17.137  0.00  0.00    +0.000 A 
ATOM     12  C   UNL     1      47.144   3.871  17.308  0.00  0.00    +0.000 A 
ATOM     13  C   UNL     1      47.494   5.114  17.845  0.00  0.00    +0.000 A 
ATOM     14  C   UNL     1      48.817   5.377  18.235  0.00  0.00    +0.000 A 
ATOM     15  C   UNL     1      49.792   4.382  18.041  0.00  0.00    +0.000 A 
BRANCH  10  17
ATOM     16  N   UNL     1      51.257   1.317  17.138  0.00  0.00    +0.000 NA
ATOM     17  C   UNL     1      50.449   2.142  17.291  0.00  0.00    +0.000 C 
ENDBRANCH  10  17
ENDBRANCH   9  14
ENDBRANCH   7   9
ENDBRANCH   1   7
BRANCH   4  18
ATOM     18  C   UNL     1      48.028   8.411  12.566  0.00  0.00    +0.000 C 
BRANCH  18  19
ATOM     19  N   UNL     1      47.472   7.284  11.864  0.00  0.00    +0.000 N 
ATOM     20  C   UNL     1      46.118   7.039  11.885  0.00  0.00    +0.000 C 
ATOM     21  O   UNL     1      45.331   7.767  12.483  0.00  0.00    +0.000 OA
ATOM     22  H   UNL     1      48.104   6.539  11.587  0.00  0.00    +0.000 HD
BRANCH  20  23
ATOM     23  C   UNL     1      45.651   5.886  11.107  0.00  0.00    +0.000 A 
ATOM     24  C   UNL     1      45.912   5.822   9.744  0.00  0.00    +0.000 A 
ATOM     25  S   UNL     1      45.253   4.443   8.987  0.00  0.00    +0.000 S 
ATOM     26  C   UNL     1      44.587   3.890  10.452  0.00  0.00    +0.000 A 
ATOM     27  N   UNL     1      43.836   2.756  10.496  0.00  0.00    +0.000 NA
ATOM     28  C   UNL     1      43.387   2.460  11.671  0.00  0.00    +0.000 A 
ATOM     29  N   UNL     1      43.636   3.184  12.808  0.00  0.00    +0.000 N 
ATOM     30  C   UNL     1      44.421   4.313  12.818  0.00  0.00    +0.000 A 
ATOM     31  O   UNL     1      44.695   4.892  13.862  0.00  0.00    +0.000 OA
ATOM     32  C   UNL     1      44.907   4.719  11.512  0.00  0.00    +0.000 A 
ATOM     33  H   UNL     1      43.287   2.877  13.703  0.00  0.00    +0.000 HD
ENDBRANCH  20  23
ENDBRANCH  18  19
ENDBRANCH   4  18
TORSDOF 7
ENDMDL
MODEL 6
REMARK VINA RESULT:    -7.148      4.697      9.207
REMARK INTER + INTRA:         -10.855
REMARK INTER:                  -9.918
REMARK INTRA:                  -0.937
REMARK UNBOUND:                -0.781
REMARK  Name = 
REMARK  7 active torsions:
REMARK  status: ('A' for Active; 'I' for Inactive)
REMARK    1  A    between atoms: C_2  and  C_3
REMARK    2  A    between atoms: C_7  and  C_8
REMARK    3  A    between atoms: C_8  and  N_9
REMARK    4  A    between atoms: N_9  and  C_10
REMARK    5  A    between atoms: C_13  and  C_14
REMARK    6  A    between atoms: C_14  and  N_15
REMARK    7  A    between atoms: C_16  and  C_18
REMARK                            x       y       z     vdW  Elec       q    Type
REMARK                         _______ _______ _______ _____ _____    ______ ____
ROOT
ATOM      1  C   UNL     1      51.565   3.408  17.717  0.00  0.00    +0.000 A 
ATOM      2  C   UNL     1      50.847   2.270  17.319  0.00  0.00    +0.000 A 
ATOM      3  C   UNL     1      49.454   2.322  17.106  0.00  0.00    +0.000 A 
ATOM      4  C   UNL     1      48.743   3.512  17.315  0.00  0.00    +0.000 A 
ATOM      5  C   UNL     1      49.440   4.614  17.814  0.00  0.00    +0.000 A 
ATOM      6  C   UNL     1      50.820   4.554  18.012  0.00  0.00    +0.000 A 
ENDROOT
BRANCH   1   7
ATOM      7  N   UNL     1      52.955   3.354  17.931  0.00  0.00    +0.000 N 
ATOM      8  H   UNL     1      53.320   4.224  18.308  0.00  0.00    +0.000 HD
BRANCH   7   9
ATOM      9  C   UNL     1      53.471   2.175  18.639  0.00  0.00    +0.000 C 
BRANCH   9  14
ATOM     10  C   UNL     1      54.988  -0.961  17.094  0.00  0.00    +0.000 A 
ATOM     11  C   UNL     1      55.742  -0.431  16.045  0.00  0.00    +0.000 A 
ATOM     12  C   UNL     1      55.775   0.948  15.833  0.00  0.00    +0.000 A 
ATOM     13  C   UNL     1      55.044   1.802  16.666  0.00  0.00    +0.000 A 
ATOM     14  C   UNL     1      54.256   1.282  17.706  0.00  0.00    +0.000 A 
ATOM     15  C   UNL     1      54.245  -0.108  17.920  0.00  0.00    +0.000 A 
BRANCH  10  17
ATOM     16  N   UNL     1      54.944  -3.521  17.526  0.00  0.00    +0.000 NA
ATOM     17  C   UNL     1      54.973  -2.373  17.329  0.00  0.00    +0.000 C 
ENDBRANCH  10  17
ENDBRANCH   9  14
ENDBRANCH   7   9
ENDBRANCH   1   7
BRANCH   4  18
ATOM     18  C   UNL     1      47.276   3.649  16.993  0.00  0.00    +0.000 C 
BRANCH  18  19
ATOM     19  N   UNL     1      47.010   4.593  15.939  0.00  0.00    +0.000 N 
ATOM     20  C   UNL     1      47.054   4.205  14.619  0.00  0.00    +0.000 C 
ATOM     21  O   UNL     1      47.305   3.051  14.284  0.00  0.00    +0.000 OA
ATOM     22  H   UNL     1      47.056   5.581  16.164  0.00  0.00    +0.000 HD
BRANCH  20  23
ATOM     23  C   UNL     1      46.731   5.235  13.625  0.00  0.00    +0.000 A 
ATOM     24  C   UNL     1      47.681   6.192  13.291  0.00  0.00    +0.000 A 
ATOM     25  S   UNL     1      47.122   7.342  12.161  0.00  0.00    +0.000 S 
ATOM     26  C   UNL     1      45.589   6.607  12.089  0.00  0.00    +0.000 A 
ATOM     27  N   UNL     1      44.595   7.135  11.324  0.00  0.00    +0.000 NA
ATOM     28  C   UNL     1      43.482   6.479  11.372  0.00  0.00    +0.000 A 
ATOM     29  N   UNL     1      43.280   5.334  12.098  0.00  0.00    +0.000 N 
ATOM     30  C   UNL     1      44.267   4.744  12.852  0.00  0.00    +0.000 A 
ATOM     31  O   UNL     1      44.082   3.676  13.423  0.00  0.00    +0.000 OA
ATOM     32  C   UNL     1      45.522   5.471  12.875  0.00  0.00    +0.000 A 
ATOM     33  H   UNL     1      42.397   4.848  12.061  0.00  0.00    +0.000 HD
ENDBRANCH  20  23
ENDBRANCH  18  19
ENDBRANCH   4  18
TORSDOF 7
ENDMDL
MODEL 7
REMARK VINA RESULT:    -7.009      4.175      8.917
REMARK INTER + INTRA:         -10.657
REMARK INTER:                  -8.648
REMARK INTRA:                  -2.009
REMARK UNBOUND:                -0.781
REMARK  Name = 
REMARK  7 active torsions:
REMARK  status: ('A' for Active; 'I' for Inactive)
REMARK    1  A    between atoms: C_2  and  C_3
REMARK    2  A    between atoms: C_7  and  C_8
REMARK    3  A    between atoms: C_8  and  N_9
REMARK    4  A    between atoms: N_9  and  C_10
REMARK    5  A    between atoms: C_13  and  C_14
REMARK    6  A    between atoms: C_14  and  N_15
REMARK    7  A    between atoms: C_16  and  C_18
REMARK                            x       y       z     vdW  Elec       q    Type
REMARK                         _______ _______ _______ _____ _____    ______ ____
ROOT
ATOM      1  C   UNL     1      51.634   3.361  17.998  0.00  0.00    +0.000 A 
ATOM      2  C   UNL     1      51.033   2.298  17.306  0.00  0.00    +0.000 A 
ATOM      3  C   UNL     1      49.650   2.294  17.033  0.00  0.00    +0.000 A 
ATOM      4  C   UNL     1      48.830   3.342  17.473  0.00  0.00    +0.000 A 
ATOM      5  C   UNL     1      49.410   4.345  18.253  0.00  0.00    +0.000 A 
ATOM      6  C   UNL     1      50.782   4.345  18.509  0.00  0.00    +0.000 A 
ENDROOT
BRANCH   1   7
ATOM      7  N   UNL     1      53.015   3.363  18.271  0.00  0.00    +0.000 N 
ATOM      8  H   UNL     1      53.540   2.800  17.607  0.00  0.00    +0.000 HD
BRANCH   7   9
ATOM      9  C   UNL     1      53.639   4.671  18.514  0.00  0.00    +0.000 C 
BRANCH   9  14
ATOM     10  C   UNL     1      53.622   6.915  15.434  0.00  0.00    +0.000 A 
ATOM     11  C   UNL     1      54.787   6.514  14.777  0.00  0.00    +0.000 A 
ATOM     12  C   UNL     1      55.585   5.505  15.319  0.00  0.00    +0.000 A 
ATOM     13  C   UNL     1      55.224   4.901  16.528  0.00  0.00    +0.000 A 
ATOM     14  C   UNL     1      54.072   5.315  17.217  0.00  0.00    +0.000 A 
ATOM     15  C   UNL     1      53.268   6.320  16.651  0.00  0.00    +0.000 A 
BRANCH  10  17
ATOM     16  N   UNL     1      52.102   8.746  14.397  0.00  0.00    +0.000 NA
ATOM     17  C   UNL     1      52.788   7.931  14.867  0.00  0.00    +0.000 C 
ENDBRANCH  10  17
ENDBRANCH   9  14
ENDBRANCH   7   9
ENDBRANCH   1   7
BRANCH   4  18
ATOM     18  C   UNL     1      47.371   3.441  17.110  0.00  0.00    +0.000 C 
BRANCH  18  19
ATOM     19  N   UNL     1      47.090   4.479  16.153  0.00  0.00    +0.000 N 
ATOM     20  C   UNL     1      47.126   4.221  14.802  0.00  0.00    +0.000 C 
ATOM     21  O   UNL     1      47.383   3.106  14.356  0.00  0.00    +0.000 OA
ATOM     22  H   UNL     1      47.130   5.442  16.473  0.00  0.00    +0.000 HD
BRANCH  20  23
ATOM     23  C   UNL     1      46.788   5.339  13.914  0.00  0.00    +0.000 A 
ATOM     24  C   UNL     1      45.592   5.321  13.208  0.00  0.00    +0.000 A 
ATOM     25  S   UNL     1      45.384   6.670  12.184  0.00  0.00    +0.000 S 
ATOM     26  C   UNL     1      46.889   7.318  12.641  0.00  0.00    +0.000 A 
ATOM     27  N   UNL     1      47.355   8.469  12.084  0.00  0.00    +0.000 NA
ATOM     28  C   UNL     1      48.515   8.839  12.517  0.00  0.00    +0.000 A 
ATOM     29  N   UNL     1      49.241   8.174  13.471  0.00  0.00    +0.000 N 
ATOM     30  C   UNL     1      48.793   7.031  14.089  0.00  0.00    +0.000 A 
ATOM     31  O   UNL     1      49.426   6.505  14.997  0.00  0.00    +0.000 OA
ATOM     32  C   UNL     1      47.518   6.542  13.599  0.00  0.00    +0.000 A 
ATOM     33  H   UNL     1      50.125   8.538  13.794  0.00  0.00    +0.000 HD
ENDBRANCH  20  23
ENDBRANCH  18  19
ENDBRANCH   4  18
TORSDOF 7
ENDMDL
MODEL 8
REMARK VINA RESULT:    -6.951      5.105      7.571
REMARK INTER + INTRA:         -10.576
REMARK INTER:                  -9.464
REMARK INTRA:                  -1.112
REMARK UNBOUND:                -0.781
REMARK  Name = 
REMARK  7 active torsions:
REMARK  status: ('A' for Active; 'I' for Inactive)
REMARK    1  A    between atoms: C_2  and  C_3
REMARK    2  A    between atoms: C_7  and  C_8
REMARK    3  A    between atoms: C_8  and  N_9
REMARK    4  A    between atoms: N_9  and  C_10
REMARK    5  A    between atoms: C_13  and  C_14
REMARK    6  A    between atoms: C_14  and  N_15
REMARK    7  A    between atoms: C_16  and  C_18
REMARK                            x       y       z     vdW  Elec       q    Type
REMARK                         _______ _______ _______ _____ _____    ______ ____
ROOT
ATOM      1  C   UNL     1      50.613   8.896  11.567  0.00  0.00    +0.000 A 
ATOM      2  C   UNL     1      49.652   9.907  11.411  0.00  0.00    +0.000 A 
ATOM      3  C   UNL     1      48.293   9.675  11.706  0.00  0.00    +0.000 A 
ATOM      4  C   UNL     1      47.860   8.413  12.136  0.00  0.00    +0.000 A 
ATOM      5  C   UNL     1      48.798   7.380  12.189  0.00  0.00    +0.000 A 
ATOM      6  C   UNL     1      50.143   7.623  11.905  0.00  0.00    +0.000 A 
ENDROOT
BRANCH   1   7
ATOM      7  N   UNL     1      51.969   9.129  11.271  0.00  0.00    +0.000 N 
ATOM      8  H   UNL     1      52.413   9.736  11.955  0.00  0.00    +0.000 HD
BRANCH   7   9
ATOM      9  C   UNL     1      52.788   7.953  10.949  0.00  0.00    +0.000 C 
BRANCH   9  14
ATOM     10  C   UNL     1      53.168   6.235   7.569  0.00  0.00    +0.000 A 
ATOM     11  C   UNL     1      53.137   7.319   6.688  0.00  0.00    +0.000 A 
ATOM     12  C   UNL     1      53.003   8.618   7.181  0.00  0.00    +0.000 A 
ATOM     13  C   UNL     1      52.889   8.836   8.558  0.00  0.00    +0.000 A 
ATOM     14  C   UNL     1      52.887   7.755   9.454  0.00  0.00    +0.000 A 
ATOM     15  C   UNL     1      53.040   6.452   8.946  0.00  0.00    +0.000 A 
BRANCH  10  17
ATOM     16  N   UNL     1      53.446   3.819   6.662  0.00  0.00    +0.000 NA
ATOM     17  C   UNL     1      53.330   4.904   7.067  0.00  0.00    +0.000 C 
ENDBRANCH  10  17
ENDBRANCH   9  14
ENDBRANCH   7   9
ENDBRANCH   1   7
BRANCH   4  18
ATOM     18  C   UNL     1      46.442   8.145  12.572  0.00  0.00    +0.000 C 
BRANCH  18  19
ATOM     19  N   UNL     1      45.995   6.809  12.271  0.00  0.00    +0.000 N 
ATOM     20  C   UNL     1      44.800   6.596  11.624  0.00  0.00    +0.000 C 
ATOM     21  O   UNL     1      44.074   7.520  11.268  0.00  0.00    +0.000 OA
ATOM     22  H   UNL     1      46.432   6.040  12.768  0.00  0.00    +0.000 HD
BRANCH  20  23
ATOM     23  C   UNL     1      44.456   5.200  11.332  0.00  0.00    +0.000 A 
ATOM     24  C   UNL     1      43.650   4.489  12.213  0.00  0.00    +0.000 A 
ATOM     25  S   UNL     1      43.395   2.868  11.748  0.00  0.00    +0.000 S 
ATOM     26  C   UNL     1      44.360   3.056  10.360  0.00  0.00    +0.000 A 
ATOM     27  N   UNL     1      44.601   2.008   9.526  0.00  0.00    +0.000 NA
ATOM     28  C   UNL     1      45.358   2.293   8.518  0.00  0.00    +0.000 A 
ATOM     29  N   UNL     1      45.879   3.533   8.258  0.00  0.00    +0.000 N 
ATOM     30  C   UNL     1      45.630   4.629   9.050  0.00  0.00    +0.000 A 
ATOM     31  O   UNL     1      46.040   5.743   8.747  0.00  0.00    +0.000 OA
ATOM     32  C   UNL     1      44.828   4.351  10.227  0.00  0.00    +0.000 A 
ATOM     33  H   UNL     1      46.432   3.698   7.430  0.00  0.00    +0.000 HD
ENDBRANCH  20  23
ENDBRANCH  18  19
ENDBRANCH   4  18
TORSDOF 7
ENDMDL
MODEL 9
REMARK VINA RESULT:    -6.826      5.409      7.165
REMARK INTER + INTRA:         -10.401
REMARK INTER:                  -9.220
REMARK INTRA:                  -1.181
REMARK UNBOUND:                -0.781
REMARK  Name = 
REMARK  7 active torsions:
REMARK  status: ('A' for Active; 'I' for Inactive)
REMARK    1  A    between atoms: C_2  and  C_3
REMARK    2  A    between atoms: C_7  and  C_8
REMARK    3  A    between atoms: C_8  and  N_9
REMARK    4  A    between atoms: N_9  and  C_10
REMARK    5  A    between atoms: C_13  and  C_14
REMARK    6  A    between atoms: C_14  and  N_15
REMARK    7  A    between atoms: C_16  and  C_18
REMARK                            x       y       z     vdW  Elec       q    Type
REMARK                         _______ _______ _______ _____ _____    ______ ____
ROOT
ATOM      1  C   UNL     1      46.713   6.909  12.511  0.00  0.00    +0.000 A 
ATOM      2  C   UNL     1      47.010   8.160  11.950  0.00  0.00    +0.000 A 
ATOM      3  C   UNL     1      48.343   8.597  11.803  0.00  0.00    +0.000 A 
ATOM      4  C   UNL     1      49.409   7.801  12.243  0.00  0.00    +0.000 A 
ATOM      5  C   UNL     1      49.108   6.605  12.898  0.00  0.00    +0.000 A 
ATOM      6  C   UNL     1      47.786   6.177  13.029  0.00  0.00    +0.000 A 
ENDROOT
BRANCH   1   7
ATOM      7  N   UNL     1      45.382   6.475  12.658  0.00  0.00    +0.000 N 
ATOM      8  H   UNL     1      44.921   6.909  13.454  0.00  0.00    +0.000 HD
BRANCH   7   9
ATOM      9  C   UNL     1      44.545   6.485  11.451  0.00  0.00    +0.000 C 
BRANCH   9  14
ATOM     10  C   UNL     1      45.318   3.838   8.820  0.00  0.00    +0.000 A 
ATOM     11  C   UNL     1      44.682   2.712   9.348  0.00  0.00    +0.000 A 
ATOM     12  C   UNL     1      43.987   2.801  10.555  0.00  0.00    +0.000 A 
ATOM     13  C   UNL     1      43.936   4.017  11.245  0.00  0.00    +0.000 A 
ATOM     14  C   UNL     1      44.596   5.150  10.744  0.00  0.00    +0.000 A 
ATOM     15  C   UNL     1      45.278   5.052   9.518  0.00  0.00    +0.000 A 
BRANCH  10  17
ATOM     16  N   UNL     1      46.577   3.672   6.556  0.00  0.00    +0.000 NA
ATOM     17  C   UNL     1      46.009   3.756   7.570  0.00  0.00    +0.000 C 
ENDBRANCH  10  17
ENDBRANCH   9  14
ENDBRANCH   7   9
ENDBRANCH   1   7
BRANCH   4  18
ATOM     18  C   UNL     1      50.852   8.170  12.007  0.00  0.00    +0.000 C 
BRANCH  18  19
ATOM     19  N   UNL     1      51.294   7.910  10.662  0.00  0.00    +0.000 N 
ATOM     20  C   UNL     1      52.410   8.534  10.154  0.00  0.00    +0.000 C 
ATOM     21  O   UNL     1      53.078   9.322  10.818  0.00  0.00    +0.000 OA
ATOM     22  H   UNL     1      50.635   7.479  10.021  0.00  0.00    +0.000 HD
BRANCH  20  23
ATOM     23  C   UNL     1      52.795   8.171   8.786  0.00  0.00    +0.000 A 
ATOM     24  C   UNL     1      52.738   9.125   7.777  0.00  0.00    +0.000 A 
ATOM     25  S   UNL     1      53.168   8.520   6.241  0.00  0.00    +0.000 S 
ATOM     26  C   UNL     1      53.436   6.961   6.869  0.00  0.00    +0.000 A 
ATOM     27  N   UNL     1      53.789   5.929   6.056  0.00  0.00    +0.000 NA
ATOM     28  C   UNL     1      53.950   4.801   6.666  0.00  0.00    +0.000 A 
ATOM     29  N   UNL     1      53.810   4.617   8.017  0.00  0.00    +0.000 N 
ATOM     30  C   UNL     1      53.494   5.638   8.881  0.00  0.00    +0.000 A 
ATOM     31  O   UNL     1      53.457   5.461  10.094  0.00  0.00    +0.000 OA
ATOM     32  C   UNL     1      53.249   6.916   8.239  0.00  0.00    +0.000 A 
ATOM     33  H   UNL     1      53.988   3.717   8.437  0.00  0.00    +0.000 HD
ENDBRANCH  20  23
ENDBRANCH  18  19
ENDBRANCH   4  18
TORSDOF 7
ENDMDL
