MODEL 1
REMARK VINA RESULT:    -7.637      0.000      0.000
REMARK INTER + INTRA:         -10.008
REMARK INTER:                  -9.646
REMARK INTRA:                  -0.362
REMARK UNBOUND:                -0.362
REMARK  Name = 
REMARK  6 active torsions:
REMARK  status: ('A' for Active; 'I' for Inactive)
REMARK    1  A    between atoms: C_1  and  N_2
REMARK    2  A    between atoms: C_5  and  C_6
REMARK    3  A    between atoms: C_6  and  N_7
REMARK    4  A    between atoms: N_7  and  C_8
REMARK    5  A    between atoms: C_11  and  C_12
REMARK    6  A    between atoms: C_16  and  N_17
REMARK                            x       y       z     vdW  Elec       q    Type
REMARK                         _______ _______ _______ _____ _____    ______ ____
ROOT
ATOM      1  C   UNL     1      45.090   4.154   9.216  0.00  0.00    +0.000 A 
ATOM      2  N   UNL     1      45.817   4.466   8.119  0.00  0.00    +0.000 NA
ATOM      3  C   UNL     1      46.400   3.419   7.459  0.00  0.00    +0.000 A 
ATOM      4  C   UNL     1      46.321   2.107   7.914  0.00  0.00    +0.000 A 
ATOM      5  N   UNL     1      45.578   1.759   8.989  0.00  0.00    +0.000 NA
ATOM      6  C   UNL     1      44.930   2.775   9.595  0.00  0.00    +0.000 A 
ENDROOT
BRANCH   4   7
ATOM      7  C   UNL     1      47.089   1.007   7.242  0.00  0.00    +0.000 C 
ATOM      8  N   UNL     1      46.753  -0.264   7.623  0.00  0.00    +0.000 N 
ATOM      9  O   UNL     1      47.973   1.234   6.433  0.00  0.00    +0.000 OA
ATOM     10  H   UNL     1      46.017  -0.412   8.311  0.00  0.00    +0.000 HD
ATOM     11  H   UNL     1      47.253  -1.052   7.245  0.00  0.00    +0.000 HD
ENDBRANCH   4   7
BRANCH   6  12
ATOM     12  N   UNL     1      44.008   2.366  10.555  0.00  0.00    +0.000 N 
ATOM     13  H   UNL     1      44.157   2.904  11.400  0.00  0.00    +0.000 HD
ATOM     14  H   UNL     1      43.049   2.326  10.250  0.00  0.00    +0.000 HD
ENDBRANCH   6  12
BRANCH   1  15
ATOM     15  N   UNL     1      44.407   5.146   9.946  0.00  0.00    +0.000 N 
ATOM     16  H   UNL     1      43.824   4.703  10.647  0.00  0.00    +0.000 HD
BRANCH  15  17
ATOM     17  C   UNL     1      45.138   6.280  10.521  0.00  0.00    +0.000 C 
BRANCH  17  22
ATOM     18  C   UNL     1      47.111   4.062  14.267  0.00  0.00    +0.000 C 
ATOM     19  N   UNL     1      46.054   5.029  13.950  0.00  0.00    +0.000 NA
ATOM     20  C   UNL     1      46.649   6.207  13.301  0.00  0.00    +0.000 C 
ATOM     21  C   UNL     1      45.597   7.223  12.859  0.00  0.00    +0.000 C 
ATOM     22  C   UNL     1      44.555   6.602  11.923  0.00  0.00    +0.000 C 
ATOM     23  C   UNL     1      43.955   5.377  12.639  0.00  0.00    +0.000 C 
ATOM     24  C   UNL     1      45.018   4.387  13.126  0.00  0.00    +0.000 C 
ENDBRANCH  17  22
ENDBRANCH  15  17
ENDBRANCH   1  15
TORSDOF 5
ENDMDL
MODEL 2
REMARK VINA RESULT:    -6.703      1.440      2.736
REMARK INTER + INTRA:          -8.829
REMARK INTER:                  -9.433
REMARK INTRA:                   0.604
REMARK UNBOUND:                -0.362
REMARK  Name = 
REMARK  6 active torsions:
REMARK  status: ('A' for Active; 'I' for Inactive)
REMARK    1  A    between atoms: C_1  and  N_2
REMARK    2  A    between atoms: C_5  and  C_6
REMARK    3  A    between atoms: C_6  and  N_7
REMARK    4  A    between atoms: N_7  and  C_8
REMARK    5  A    between atoms: C_11  and  C_12
REMARK    6  A    between atoms: C_16  and  N_17
REMARK                            x       y       z     vdW  Elec       q    Type
REMARK                         _______ _______ _______ _____ _____    ______ ____
ROOT
ATOM      1  C   UNL     1      44.954   2.177   9.129  0.00  0.00    +0.000 A 
ATOM      2  N   UNL     1      45.660   1.066   8.820  0.00  0.00    +0.000 NA
ATOM      3  C   UNL     1      46.567   1.185   7.803  0.00  0.00    +0.000 A 
ATOM      4  C   UNL     1      46.720   2.355   7.067  0.00  0.00    +0.000 A 
ATOM      5  N   UNL     1      46.052   3.491   7.369  0.00  0.00    +0.000 NA
ATOM      6  C   UNL     1      45.219   3.405   8.427  0.00  0.00    +0.000 A 
ENDROOT
BRANCH   4   7
ATOM      7  C   UNL     1      47.624   2.404   5.869  0.00  0.00    +0.000 C 
ATOM      8  N   UNL     1      47.369   3.413   4.980  0.00  0.00    +0.000 N 
ATOM      9  O   UNL     1      48.505   1.581   5.688  0.00  0.00    +0.000 OA
ATOM     10  H   UNL     1      46.615   4.074   5.162  0.00  0.00    +0.000 HD
ATOM     11  H   UNL     1      47.908   3.486   4.133  0.00  0.00    +0.000 HD
ENDBRANCH   4   7
BRANCH   6  12
ATOM     12  N   UNL     1      44.713   4.631   8.850  0.00  0.00    +0.000 N 
ATOM     13  H   UNL     1      45.082   4.836   9.770  0.00  0.00    +0.000 HD
ATOM     14  H   UNL     1      44.793   5.388   8.190  0.00  0.00    +0.000 HD
ENDBRANCH   6  12
BRANCH   1  15
ATOM     15  N   UNL     1      44.027   2.183  10.189  0.00  0.00    +0.000 N 
ATOM     16  H   UNL     1      44.307   1.497  10.881  0.00  0.00    +0.000 HD
BRANCH  15  17
ATOM     17  C   UNL     1      43.644   3.443  10.834  0.00  0.00    +0.000 C 
BRANCH  17  22
ATOM     18  C   UNL     1      45.579   7.364  12.765  0.00  0.00    +0.000 C 
ATOM     19  N   UNL     1      45.179   6.000  13.128  0.00  0.00    +0.000 NA
ATOM     20  C   UNL     1      43.735   5.838  12.901  0.00  0.00    +0.000 C 
ATOM     21  C   UNL     1      43.259   4.411  13.175  0.00  0.00    +0.000 C 
ATOM     22  C   UNL     1      44.022   3.380  12.337  0.00  0.00    +0.000 C 
ATOM     23  C   UNL     1      45.525   3.581  12.606  0.00  0.00    +0.000 C 
ATOM     24  C   UNL     1      45.987   5.025  12.381  0.00  0.00    +0.000 C 
ENDBRANCH  17  22
ENDBRANCH  15  17
ENDBRANCH   1  15
TORSDOF 5
ENDMDL
MODEL 3
REMARK VINA RESULT:    -6.599      2.930      6.644
REMARK INTER + INTRA:          -8.698
REMARK INTER:                  -8.235
REMARK INTRA:                  -0.463
REMARK UNBOUND:                -0.362
REMARK  Name = 
REMARK  6 active torsions:
REMARK  status: ('A' for Active; 'I' for Inactive)
REMARK    1  A    between atoms: C_1  and  N_2
REMARK    2  A    between atoms: C_5  and  C_6
REMARK    3  A    between atoms: C_6  and  N_7
REMARK    4  A    between atoms: N_7  and  C_8
REMARK    5  A    between atoms: C_11  and  C_12
REMARK    6  A    between atoms: C_16  and  N_17
REMARK                            x       y       z     vdW  Elec       q    Type
REMARK                         _______ _______ _______ _____ _____    ______ ____
ROOT
ATOM      1  C   UNL     1      45.056   5.040  12.028  0.00  0.00    +0.000 A 
ATOM      2  N   UNL     1      46.108   5.034  12.877  0.00  0.00    +0.000 NA
ATOM      3  C   UNL     1      46.561   6.256  13.292  0.00  0.00    +0.000 A 
ATOM      4  C   UNL     1      46.029   7.452  12.822  0.00  0.00    +0.000 A 
ATOM      5  N   UNL     1      44.959   7.492  11.997  0.00  0.00    +0.000 NA
ATOM      6  C   UNL     1      44.452   6.291  11.652  0.00  0.00    +0.000 A 
ENDROOT
BRANCH   4   7
ATOM      7  C   UNL     1      46.644   8.771  13.191  0.00  0.00    +0.000 C 
ATOM      8  N   UNL     1      47.105   8.866  14.476  0.00  0.00    +0.000 N 
ATOM      9  O   UNL     1      46.701   9.702  12.406  0.00  0.00    +0.000 OA
ATOM     10  H   UNL     1      47.029   8.069  15.106  0.00  0.00    +0.000 HD
ATOM     11  H   UNL     1      47.494   9.733  14.809  0.00  0.00    +0.000 HD
ENDBRANCH   4   7
BRANCH   6  12
ATOM     12  N   UNL     1      43.232   6.361  10.986  0.00  0.00    +0.000 N 
ATOM     13  H   UNL     1      42.940   7.330  10.941  0.00  0.00    +0.000 HD
ATOM     14  H   UNL     1      43.185   5.871  10.107  0.00  0.00    +0.000 HD
ENDBRANCH   6  12
BRANCH   1  15
ATOM     15  N   UNL     1      44.476   3.839  11.574  0.00  0.00    +0.000 N 
ATOM     16  H   UNL     1      43.567   4.037  11.174  0.00  0.00    +0.000 HD
BRANCH  15  17
ATOM     17  C   UNL     1      45.235   2.929  10.710  0.00  0.00    +0.000 C 
BRANCH  17  22
ATOM     18  C   UNL     1      47.935   2.481   6.791  0.00  0.00    +0.000 C 
ATOM     19  N   UNL     1      46.526   2.531   7.198  0.00  0.00    +0.000 NA
ATOM     20  C   UNL     1      46.244   1.419   8.117  0.00  0.00    +0.000 C 
ATOM     21  C   UNL     1      44.814   1.456   8.655  0.00  0.00    +0.000 C 
ATOM     22  C   UNL     1      44.496   2.783   9.353  0.00  0.00    +0.000 C 
ATOM     23  C   UNL     1      44.802   3.918   8.357  0.00  0.00    +0.000 C 
ATOM     24  C   UNL     1      46.219   3.846   7.782  0.00  0.00    +0.000 C 
ENDBRANCH  17  22
ENDBRANCH  15  17
ENDBRANCH   1  15
TORSDOF 5
ENDMDL
MODEL 4
REMARK VINA RESULT:    -6.278      3.179      6.364
REMARK INTER + INTRA:          -8.292
REMARK INTER:                  -7.895
REMARK INTRA:                  -0.397
REMARK UNBOUND:                -0.362
REMARK  Name = 
REMARK  6 active torsions:
REMARK  status: ('A' for Active; 'I' for Inactive)
REMARK    1  A    between atoms: C_1  and  N_2
REMARK    2  A    between atoms: C_5  and  C_6
REMARK    3  A    between atoms: C_6  and  N_7
REMARK    4  A    between atoms: N_7  and  C_8
REMARK    5  A    between atoms: C_11  and  C_12
REMARK    6  A    between atoms: C_16  and  N_17
REMARK                            x       y       z     vdW  Elec       q    Type
REMARK                         _______ _______ _______ _____ _____    ______ ____
ROOT
ATOM      1  C   UNL     1      46.061   5.168  12.484  0.00  0.00    +0.000 A 
ATOM      2  N   UNL     1      46.411   6.201  11.685  0.00  0.00    +0.000 NA
ATOM      3  C   UNL     1      47.513   6.918  12.065  0.00  0.00    +0.000 A 
ATOM      4  C   UNL     1      48.208   6.658  13.242  0.00  0.00    +0.000 A 
ATOM      5  N   UNL     1      47.902   5.616  14.046  0.00  0.00    +0.000 NA
ATOM      6  C   UNL     1      46.869   4.853  13.633  0.00  0.00    +0.000 A 
ENDROOT
BRANCH   4   7
ATOM      7  C   UNL     1      49.325   7.553  13.694  0.00  0.00    +0.000 C 
ATOM      8  N   UNL     1      50.474   7.479  12.956  0.00  0.00    +0.000 N 
ATOM      9  O   UNL     1      49.222   8.273  14.673  0.00  0.00    +0.000 OA
ATOM     10  H   UNL     1      50.525   6.855  12.152  0.00  0.00    +0.000 HD
ATOM     11  H   UNL     1      51.281   8.019  13.223  0.00  0.00    +0.000 HD
ENDBRANCH   4   7
BRANCH   6  12
ATOM     12  N   UNL     1      46.713   3.672  14.353  0.00  0.00    +0.000 N 
ATOM     13  H   UNL     1      47.365   3.674  15.128  0.00  0.00    +0.000 HD
ATOM     14  H   UNL     1      45.767   3.435  14.605  0.00  0.00    +0.000 HD
ENDBRANCH   6  12
BRANCH   1  15
ATOM     15  N   UNL     1      44.972   4.334  12.165  0.00  0.00    +0.000 N 
ATOM     16  H   UNL     1      44.231   4.894  11.760  0.00  0.00    +0.000 HD
BRANCH  15  17
ATOM     17  C   UNL     1      45.179   3.107  11.391  0.00  0.00    +0.000 C 
BRANCH  17  22
ATOM     18  C   UNL     1      47.183   3.021   7.052  0.00  0.00    +0.000 C 
ATOM     19  N   UNL     1      45.862   3.050   7.691  0.00  0.00    +0.000 NA
ATOM     20  C   UNL     1      45.700   1.854   8.531  0.00  0.00    +0.000 C 
ATOM     21  C   UNL     1      44.380   1.857   9.301  0.00  0.00    +0.000 C 
ATOM     22  C   UNL     1      44.223   3.110  10.168  0.00  0.00    +0.000 C 
ATOM     23  C   UNL     1      44.396   4.336   9.252  0.00  0.00    +0.000 C 
ATOM     24  C   UNL     1      45.697   4.302   8.444  0.00  0.00    +0.000 C 
ENDBRANCH  17  22
ENDBRANCH  15  17
ENDBRANCH   1  15
TORSDOF 5
ENDMDL
MODEL 5
REMARK VINA RESULT:    -6.185      2.989      6.769
REMARK INTER + INTRA:          -8.174
REMARK INTER:                  -7.818
REMARK INTRA:                  -0.356
REMARK UNBOUND:                -0.362
REMARK  Name = 
REMARK  6 active torsions:
REMARK  status: ('A' for Active; 'I' for Inactive)
REMARK    1  A    between atoms: C_1  and  N_2
REMARK    2  A    between atoms: C_5  and  C_6
REMARK    3  A    between atoms: C_6  and  N_7
REMARK    4  A    between atoms: N_7  and  C_8
REMARK    5  A    between atoms: C_11  and  C_12
REMARK    6  A    between atoms: C_16  and  N_17
REMARK                            x       y       z     vdW  Elec       q    Type
REMARK                         _______ _______ _______ _____ _____    ______ ____
ROOT
ATOM      1  C   UNL     1      45.952   4.974  12.592  0.00  0.00    +0.000 A 
ATOM      2  N   UNL     1      46.245   4.159  13.631  0.00  0.00    +0.000 NA
ATOM      3  C   UNL     1      47.063   4.678  14.597  0.00  0.00    +0.000 A 
ATOM      4  C   UNL     1      47.627   5.946  14.501  0.00  0.00    +0.000 A 
ATOM      5  N   UNL     1      47.330   6.795  13.492  0.00  0.00    +0.000 NA
ATOM      6  C   UNL     1      46.457   6.321  12.579  0.00  0.00    +0.000 A 
ENDROOT
BRANCH   4   7
ATOM      7  C   UNL     1      48.628   6.426  15.512  0.00  0.00    +0.000 C 
ATOM      8  N   UNL     1      48.114   6.777  16.730  0.00  0.00    +0.000 N 
ATOM      9  O   UNL     1      49.815   6.525  15.251  0.00  0.00    +0.000 OA
ATOM     10  H   UNL     1      47.114   6.691  16.904  0.00  0.00    +0.000 HD
ATOM     11  H   UNL     1      48.718   7.146  17.446  0.00  0.00    +0.000 HD
ENDBRANCH   4   7
BRANCH   6  12
ATOM     12  N   UNL     1      46.002   7.281  11.679  0.00  0.00    +0.000 N 
ATOM     13  H   UNL     1      46.734   7.468  11.005  0.00  0.00    +0.000 HD
ATOM     14  H   UNL     1      45.097   7.106  11.273  0.00  0.00    +0.000 HD
ENDBRANCH   6  12
BRANCH   1  15
ATOM     15  N   UNL     1      45.083   4.561  11.563  0.00  0.00    +0.000 N 
ATOM     16  H   UNL     1      45.118   5.234  10.806  0.00  0.00    +0.000 HD
BRANCH  15  17
ATOM     17  C   UNL     1      45.146   3.192  11.042  0.00  0.00    +0.000 C 
BRANCH  17  22
ATOM     18  C   UNL     1      47.580   2.573   6.975  0.00  0.00    +0.000 C 
ATOM     19  N   UNL     1      46.203   2.724   7.461  0.00  0.00    +0.000 NA
ATOM     20  C   UNL     1      45.893   1.629   8.393  0.00  0.00    +0.000 C 
ATOM     21  C   UNL     1      44.503   1.767   9.012  0.00  0.00    +0.000 C 
ATOM     22  C   UNL     1      44.323   3.108   9.730  0.00  0.00    +0.000 C 
ATOM     23  C   UNL     1      44.653   4.224   8.721  0.00  0.00    +0.000 C 
ATOM     24  C   UNL     1      46.027   4.053   8.065  0.00  0.00    +0.000 C 
ENDBRANCH  17  22
ENDBRANCH  15  17
ENDBRANCH   1  15
TORSDOF 5
ENDMDL
MODEL 6
REMARK VINA RESULT:    -6.168      1.643      2.529
REMARK INTER + INTRA:          -8.153
REMARK INTER:                  -7.908
REMARK INTRA:                  -0.245
REMARK UNBOUND:                -0.362
REMARK  Name = 
REMARK  6 active torsions:
REMARK  status: ('A' for Active; 'I' for Inactive)
REMARK    1  A    between atoms: C_1  and  N_2
REMARK    2  A    between atoms: C_5  and  C_6
REMARK    3  A    between atoms: C_6  and  N_7
REMARK    4  A    between atoms: N_7  and  C_8
REMARK    5  A    between atoms: C_11  and  C_12
REMARK    6  A    between atoms: C_16  and  N_17
REMARK                            x       y       z     vdW  Elec       q    Type
REMARK                         _______ _______ _______ _____ _____    ______ ____
ROOT
ATOM      1  C   UNL     1      44.652   4.646  10.957  0.00  0.00    +0.000 A 
ATOM      2  N   UNL     1      45.266   5.375   9.997  0.00  0.00    +0.000 NA
ATOM      3  C   UNL     1      45.650   4.697   8.872  0.00  0.00    +0.000 A 
ATOM      4  C   UNL     1      45.491   3.323   8.733  0.00  0.00    +0.000 A 
ATOM      5  N   UNL     1      44.854   2.572   9.660  0.00  0.00    +0.000 NA
ATOM      6  C   UNL     1      44.396   3.247  10.733  0.00  0.00    +0.000 A 
ENDROOT
BRANCH   4   7
ATOM      7  C   UNL     1      46.051   2.595   7.545  0.00  0.00    +0.000 C 
ATOM      8  N   UNL     1      46.521   1.335   7.795  0.00  0.00    +0.000 N 
ATOM      9  O   UNL     1      46.109   3.107   6.440  0.00  0.00    +0.000 OA
ATOM     10  H   UNL     1      46.466   0.947   8.736  0.00  0.00    +0.000 HD
ATOM     11  H   UNL     1      46.949   0.800   7.057  0.00  0.00    +0.000 HD
ENDBRANCH   4   7
BRANCH   6  12
ATOM     12  N   UNL     1      43.563   2.499  11.560  0.00  0.00    +0.000 N 
ATOM     13  H   UNL     1      42.889   3.119  11.992  0.00  0.00    +0.000 HD
ATOM     14  H   UNL     1      43.161   1.674  11.144  0.00  0.00    +0.000 HD
ENDBRANCH   6  12
BRANCH   1  15
ATOM     15  N   UNL     1      44.172   5.248  12.136  0.00  0.00    +0.000 N 
ATOM     16  H   UNL     1      43.343   4.754  12.449  0.00  0.00    +0.000 HD
BRANCH  15  17
ATOM     17  C   UNL     1      45.078   5.505  13.260  0.00  0.00    +0.000 C 
BRANCH  17  22
ATOM     18  C   UNL     1      48.495   6.018  16.563  0.00  0.00    +0.000 C 
ATOM     19  N   UNL     1      48.283   5.443  15.229  0.00  0.00    +0.000 NA
ATOM     20  C   UNL     1      47.235   4.414  15.303  0.00  0.00    +0.000 C 
ATOM     21  C   UNL     1      46.896   3.829  13.932  0.00  0.00    +0.000 C 
ATOM     22  C   UNL     1      46.474   4.912  12.933  0.00  0.00    +0.000 C 
ATOM     23  C   UNL     1      47.597   5.964  12.884  0.00  0.00    +0.000 C 
ATOM     24  C   UNL     1      47.969   6.509  14.267  0.00  0.00    +0.000 C 
ENDBRANCH  17  22
ENDBRANCH  15  17
ENDBRANCH   1  15
TORSDOF 5
ENDMDL
MODEL 7
REMARK VINA RESULT:    -6.114      3.109      5.352
REMARK INTER + INTRA:          -8.085
REMARK INTER:                  -7.783
REMARK INTRA:                  -0.302
REMARK UNBOUND:                -0.362
REMARK  Name = 
REMARK  6 active torsions:
REMARK  status: ('A' for Active; 'I' for Inactive)
REMARK    1  A    between atoms: C_1  and  N_2
REMARK    2  A    between atoms: C_5  and  C_6
REMARK    3  A    between atoms: C_6  and  N_7
REMARK    4  A    between atoms: N_7  and  C_8
REMARK    5  A    between atoms: C_11  and  C_12
REMARK    6  A    between atoms: C_16  and  N_17
REMARK                            x       y       z     vdW  Elec       q    Type
REMARK                         _______ _______ _______ _____ _____    ______ ____
ROOT
ATOM      1  C   UNL     1      45.819   4.526  13.525  0.00  0.00    +0.000 A 
ATOM      2  N   UNL     1      45.465   3.388  12.886  0.00  0.00    +0.000 NA
ATOM      3  C   UNL     1      45.318   3.474  11.528  0.00  0.00    +0.000 A 
ATOM      4  C   UNL     1      45.452   4.672  10.833  0.00  0.00    +0.000 A 
ATOM      5  N   UNL     1      45.835   5.819  11.439  0.00  0.00    +0.000 NA
ATOM      6  C   UNL     1      46.065   5.722  12.764  0.00  0.00    +0.000 A 
ENDROOT
BRANCH   4   7
ATOM      7  C   UNL     1      45.147   4.754   9.366  0.00  0.00    +0.000 C 
ATOM      8  N   UNL     1      43.883   4.372   9.005  0.00  0.00    +0.000 N 
ATOM      9  O   UNL     1      45.980   5.109   8.550  0.00  0.00    +0.000 OA
ATOM     10  H   UNL     1      43.220   4.070   9.717  0.00  0.00    +0.000 HD
ATOM     11  H   UNL     1      43.618   4.362   8.034  0.00  0.00    +0.000 HD
ENDBRANCH   4   7
BRANCH   6  12
ATOM     12  N   UNL     1      46.662   6.850  13.319  0.00  0.00    +0.000 N 
ATOM     13  H   UNL     1      46.581   6.800  14.327  0.00  0.00    +0.000 HD
ATOM     14  H   UNL     1      47.589   7.063  12.986  0.00  0.00    +0.000 HD
ENDBRANCH   6  12
BRANCH   1  15
ATOM     15  N   UNL     1      46.044   4.543  14.915  0.00  0.00    +0.000 N 
ATOM     16  H   UNL     1      45.235   4.157  15.389  0.00  0.00    +0.000 HD
BRANCH  15  17
ATOM     17  C   UNL     1      47.282   3.992  15.474  0.00  0.00    +0.000 C 
BRANCH  17  22
ATOM     18  C   UNL     1      51.449   3.948  17.818  0.00  0.00    +0.000 C 
ATOM     19  N   UNL     1      50.005   4.026  18.072  0.00  0.00    +0.000 NA
ATOM     20  C   UNL     1      49.459   5.223  17.415  0.00  0.00    +0.000 C 
ATOM     21  C   UNL     1      47.941   5.326  17.561  0.00  0.00    +0.000 C 
ATOM     22  C   UNL     1      47.226   4.083  17.022  0.00  0.00    +0.000 C 
ATOM     23  C   UNL     1      47.824   2.855  17.735  0.00  0.00    +0.000 C 
ATOM     24  C   UNL     1      49.350   2.785  17.630  0.00  0.00    +0.000 C 
ENDBRANCH  17  22
ENDBRANCH  15  17
ENDBRANCH   1  15
TORSDOF 5
ENDMDL
MODEL 8
REMARK VINA RESULT:    -5.996      3.054      5.232
REMARK INTER + INTRA:          -7.935
REMARK INTER:                  -7.535
REMARK INTRA:                  -0.400
REMARK UNBOUND:                -0.362
REMARK  Name = 
REMARK  6 active torsions:
REMARK  status: ('A' for Active; 'I' for Inactive)
REMARK    1  A    between atoms: C_1  and  N_2
REMARK    2  A    between atoms: C_5  and  C_6
REMARK    3  A    between atoms: C_6  and  N_7
REMARK    4  A    between atoms: N_7  and  C_8
REMARK    5  A    between atoms: C_11  and  C_12
REMARK    6  A    between atoms: C_16  and  N_17
REMARK                            x       y       z     vdW  Elec       q    Type
REMARK                         _______ _______ _______ _____ _____    ______ ____
ROOT
ATOM      1  C   UNL     1      46.227   5.150  13.365  0.00  0.00    +0.000 A 
ATOM      2  N   UNL     1      45.898   3.839  13.394  0.00  0.00    +0.000 NA
ATOM      3  C   UNL     1      45.346   3.326  12.252  0.00  0.00    +0.000 A 
ATOM      4  C   UNL     1      45.066   4.108  11.137  0.00  0.00    +0.000 A 
ATOM      5  N   UNL     1      45.411   5.414  11.066  0.00  0.00    +0.000 NA
ATOM      6  C   UNL     1      46.034   5.906  12.156  0.00  0.00    +0.000 A 
ENDROOT
BRANCH   4   7
ATOM      7  C   UNL     1      44.334   3.540   9.956  0.00  0.00    +0.000 C 
ATOM      8  N   UNL     1      44.161   4.396   8.903  0.00  0.00    +0.000 N 
ATOM      9  O   UNL     1      43.896   2.402   9.952  0.00  0.00    +0.000 OA
ATOM     10  H   UNL     1      44.532   5.344   8.950  0.00  0.00    +0.000 HD
ATOM     11  H   UNL     1      43.644   4.099   8.091  0.00  0.00    +0.000 HD
ENDBRANCH   4   7
BRANCH   6  12
ATOM     12  N   UNL     1      46.569   7.178  11.977  0.00  0.00    +0.000 N 
ATOM     13  H   UNL     1      46.015   7.842  12.504  0.00  0.00    +0.000 HD
ATOM     14  H   UNL     1      47.562   7.259  12.120  0.00  0.00    +0.000 HD
ENDBRANCH   6  12
BRANCH   1  15
ATOM     15  N   UNL     1      46.845   5.772  14.468  0.00  0.00    +0.000 N 
ATOM     16  H   UNL     1      46.140   5.999  15.160  0.00  0.00    +0.000 HD
BRANCH  15  17
ATOM     17  C   UNL     1      48.019   5.164  15.102  0.00  0.00    +0.000 C 
BRANCH  17  22
ATOM     18  C   UNL     1      50.981   2.210  17.415  0.00  0.00    +0.000 C 
ATOM     19  N   UNL     1      49.759   2.993  17.635  0.00  0.00    +0.000 NA
ATOM     20  C   UNL     1      50.047   4.419  17.415  0.00  0.00    +0.000 C 
ATOM     21  C   UNL     1      48.799   5.291  17.540  0.00  0.00    +0.000 C 
ATOM     22  C   UNL     1      47.687   4.845  16.584  0.00  0.00    +0.000 C 
ATOM     23  C   UNL     1      47.415   3.352  16.849  0.00  0.00    +0.000 C 
ATOM     24  C   UNL     1      48.679   2.490  16.774  0.00  0.00    +0.000 C 
ENDBRANCH  17  22
ENDBRANCH  15  17
ENDBRANCH   1  15
TORSDOF 5
ENDMDL
MODEL 9
REMARK VINA RESULT:    -5.860      4.027      7.691
REMARK INTER + INTRA:          -7.765
REMARK INTER:                  -7.440
REMARK INTRA:                  -0.325
REMARK UNBOUND:                -0.362
REMARK  Name = 
REMARK  6 active torsions:
REMARK  status: ('A' for Active; 'I' for Inactive)
REMARK    1  A    between atoms: C_1  and  N_2
REMARK    2  A    between atoms: C_5  and  C_6
REMARK    3  A    between atoms: C_6  and  N_7
REMARK    4  A    between atoms: N_7  and  C_8
REMARK    5  A    between atoms: C_11  and  C_12
REMARK    6  A    between atoms: C_16  and  N_17
REMARK                            x       y       z     vdW  Elec       q    Type
REMARK                         _______ _______ _______ _____ _____    ______ ____
ROOT
ATOM      1  C   UNL     1      47.187   4.812  15.143  0.00  0.00    +0.000 A 
ATOM      2  N   UNL     1      46.849   3.680  15.802  0.00  0.00    +0.000 NA
ATOM      3  C   UNL     1      47.464   3.471  17.005  0.00  0.00    +0.000 A 
ATOM      4  C   UNL     1      48.438   4.326  17.509  0.00  0.00    +0.000 A 
ATOM      5  N   UNL     1      48.776   5.480  16.891  0.00  0.00    +0.000 NA
ATOM      6  C   UNL     1      48.111   5.736  15.745  0.00  0.00    +0.000 A 
ENDROOT
BRANCH   4   7
ATOM      7  C   UNL     1      49.190   3.990  18.764  0.00  0.00    +0.000 C 
ATOM      8  N   UNL     1      48.487   3.281  19.700  0.00  0.00    +0.000 N 
ATOM      9  O   UNL     1      50.339   4.352  18.948  0.00  0.00    +0.000 OA
ATOM     10  H   UNL     1      47.523   3.008  19.514  0.00  0.00    +0.000 HD
ATOM     11  H   UNL     1      48.911   3.053  20.584  0.00  0.00    +0.000 HD
ENDBRANCH   4   7
BRANCH   6  12
ATOM     12  N   UNL     1      48.316   7.019  15.246  0.00  0.00    +0.000 N 
ATOM     13  H   UNL     1      47.781   7.675  15.802  0.00  0.00    +0.000 HD
ATOM     14  H   UNL     1      49.277   7.284  15.101  0.00  0.00    +0.000 HD
ENDBRANCH   6  12
BRANCH   1  15
ATOM     15  N   UNL     1      46.581   5.153  13.918  0.00  0.00    +0.000 N 
ATOM     16  H   UNL     1      47.282   5.540  13.296  0.00  0.00    +0.000 HD
BRANCH  15  17
ATOM     17  C   UNL     1      45.739   4.183  13.211  0.00  0.00    +0.000 C 
BRANCH  17  22
ATOM     18  C   UNL     1      44.793   3.862   8.537  0.00  0.00    +0.000 C 
ATOM     19  N   UNL     1      44.250   4.452   9.766  0.00  0.00    +0.000 NA
ATOM     20  C   UNL     1      43.947   3.382  10.728  0.00  0.00    +0.000 C 
ATOM     21  C   UNL     1      43.458   3.926  12.070  0.00  0.00    +0.000 C 
ATOM     22  C   UNL     1      44.463   4.900  12.695  0.00  0.00    +0.000 C 
ATOM     23  C   UNL     1      44.749   6.003  11.659  0.00  0.00    +0.000 C 
ATOM     24  C   UNL     1      45.188   5.450  10.300  0.00  0.00    +0.000 C 
ENDBRANCH  17  22
ENDBRANCH  15  17
ENDBRANCH   1  15
TORSDOF 5
ENDMDL
