MODEL 1
REMARK VINA RESULT:    -7.182      0.000      0.000
REMARK INTER + INTRA:          -8.813
REMARK INTER:                  -9.071
REMARK INTRA:                   0.258
REMARK UNBOUND:                 0.258
REMARK  Name = 
REMARK  7 active torsions:
REMARK  status: ('A' for Active; 'I' for Inactive)
REMARK    1  A    between atoms: C_1  and  C_2
REMARK    2  A    between atoms: C_2  and  C_3
REMARK    3  A    between atoms: N_6  and  C_7
REMARK    4  A    between atoms: N_6  and  C_8
REMARK    5  A    between atoms: C_8  and  C_9
REMARK    6  A    between atoms: C_12  and  O_13
REMARK    7  A    between atoms: C_20  and  C_21
REMARK                            x       y       z     vdW  Elec       q    Type
REMARK                         _______ _______ _______ _____ _____    ______ ____
ROOT
ATOM      1  C   UNL     1      45.659   8.318  12.418  0.00  0.00    +0.000 A 
ATOM      2  N   UNL     1      44.736   7.425  11.960  0.00  0.00    +0.000 NA
ATOM      3  C   UNL     1      44.889   6.112  12.219  0.00  0.00    +0.000 A 
ATOM      4  N   UNL     1      43.892   5.229  11.796  0.00  0.00    +0.000 N 
ATOM      5  C   UNL     1      42.586   5.798  11.528  0.00  0.00    +0.000 C 
ATOM      6  N   UNL     1      45.939   5.646  12.910  0.00  0.00    +0.000 NA
ATOM      7  C   UNL     1      46.812   6.556  13.404  0.00  0.00    +0.000 A 
ATOM      8  C   UNL     1      46.721   7.918  13.207  0.00  0.00    +0.000 A 
ENDROOT
BRANCH   8   9
ATOM      9  C   UNL     1      47.720   8.841  13.788  0.00  0.00    +0.000 C 
ATOM     10  N   UNL     1      47.597   9.154  15.118  0.00  0.00    +0.000 N 
ATOM     11  O   UNL     1      48.620   9.336  13.132  0.00  0.00    +0.000 OA
ATOM     12  H   UNL     1      46.781   8.945  15.681  0.00  0.00    +0.000 HD
ATOM     13  H   UNL     1      48.242   9.851  15.477  0.00  0.00    +0.000 HD
ENDBRANCH   8   9
BRANCH   4  14
ATOM     14  C   UNL     1      44.214   3.876  11.291  0.00  0.00    +0.000 C 
ATOM     15  C   UNL     1      43.374   2.687  11.751  0.00  0.00    +0.000 C 
ATOM     16  C   UNL     1      44.767   2.822  12.260  0.00  0.00    +0.000 C 
BRANCH  14  17
ATOM     17  C   UNL     1      44.822   3.820   9.890  0.00  0.00    +0.000 A 
ATOM     18  C   UNL     1      45.464   4.944   9.332  0.00  0.00    +0.000 A 
ATOM     19  C   UNL     1      46.222   4.845   8.164  0.00  0.00    +0.000 A 
ATOM     20  C   UNL     1      46.329   3.616   7.526  0.00  0.00    +0.000 A 
ATOM     21  C   UNL     1      45.635   2.510   7.997  0.00  0.00    +0.000 A 
ATOM     22  C   UNL     1      44.877   2.618   9.164  0.00  0.00    +0.000 A 
BRANCH  20  23
ATOM     23  O   UNL     1      47.136   3.449   6.441  0.00  0.00    +0.000 OA
ATOM     24  H   UNL     1      46.591   3.533   5.641  0.00  0.00    +0.000 HD
ENDBRANCH  20  23
ENDBRANCH  14  17
ENDBRANCH   4  14
BRANCH   1  26
ATOM     25  C   UNL     1      44.139   9.828  11.138  0.00  0.00    +0.000 C 
ATOM     26  C   UNL     1      45.347   9.746  12.058  0.00  0.00    +0.000 C 
ENDBRANCH   1  26
TORSDOF 5
ENDMDL
MODEL 2
REMARK VINA RESULT:    -6.835      2.136      3.505
REMARK INTER + INTRA:          -8.374
REMARK INTER:                  -8.456
REMARK INTRA:                   0.082
REMARK UNBOUND:                 0.258
REMARK  Name = 
REMARK  7 active torsions:
REMARK  status: ('A' for Active; 'I' for Inactive)
REMARK    1  A    between atoms: C_1  and  C_2
REMARK    2  A    between atoms: C_2  and  C_3
REMARK    3  A    between atoms: N_6  and  C_7
REMARK    4  A    between atoms: N_6  and  C_8
REMARK    5  A    between atoms: C_8  and  C_9
REMARK    6  A    between atoms: C_12  and  O_13
REMARK    7  A    between atoms: C_20  and  C_21
REMARK                            x       y       z     vdW  Elec       q    Type
REMARK                         _______ _______ _______ _____ _____    ______ ____
ROOT
ATOM      1  C   UNL     1      47.172   4.920  15.243  0.00  0.00    +0.000 A 
ATOM      2  N   UNL     1      46.334   4.322  14.348  0.00  0.00    +0.000 NA
ATOM      3  C   UNL     1      46.270   4.777  13.083  0.00  0.00    +0.000 A 
ATOM      4  N   UNL     1      45.455   4.101  12.172  0.00  0.00    +0.000 N 
ATOM      5  C   UNL     1      45.102   2.734  12.499  0.00  0.00    +0.000 C 
ATOM      6  N   UNL     1      47.002   5.823  12.671  0.00  0.00    +0.000 NA
ATOM      7  C   UNL     1      47.868   6.364  13.559  0.00  0.00    +0.000 A 
ATOM      8  C   UNL     1      48.016   5.947  14.866  0.00  0.00    +0.000 A 
ENDROOT
BRANCH   8   9
ATOM      9  C   UNL     1      48.991   6.597  15.768  0.00  0.00    +0.000 C 
ATOM     10  N   UNL     1      48.564   7.687  16.485  0.00  0.00    +0.000 N 
ATOM     11  O   UNL     1      50.143   6.215  15.880  0.00  0.00    +0.000 OA
ATOM     12  H   UNL     1      47.697   8.180  16.311  0.00  0.00    +0.000 HD
ATOM     13  H   UNL     1      49.269   8.167  17.035  0.00  0.00    +0.000 HD
ENDBRANCH   8   9
BRANCH   4  14
ATOM     14  C   UNL     1      44.688   4.821  11.131  0.00  0.00    +0.000 C 
ATOM     15  C   UNL     1      44.214   6.247  11.402  0.00  0.00    +0.000 C 
ATOM     16  C   UNL     1      43.209   5.149  11.375  0.00  0.00    +0.000 C 
BRANCH  14  17
ATOM     17  C   UNL     1      45.018   4.442   9.687  0.00  0.00    +0.000 A 
ATOM     18  C   UNL     1      46.002   5.141   8.960  0.00  0.00    +0.000 A 
ATOM     19  C   UNL     1      46.478   4.667   7.736  0.00  0.00    +0.000 A 
ATOM     20  C   UNL     1      45.956   3.491   7.214  0.00  0.00    +0.000 A 
ATOM     21  C   UNL     1      44.922   2.827   7.859  0.00  0.00    +0.000 A 
ATOM     22  C   UNL     1      44.450   3.309   9.081  0.00  0.00    +0.000 A 
BRANCH  20  23
ATOM     23  O   UNL     1      46.458   2.938   6.074  0.00  0.00    +0.000 OA
ATOM     24  H   UNL     1      45.723   2.530   5.586  0.00  0.00    +0.000 HD
ENDBRANCH  20  23
ENDBRANCH  14  17
ENDBRANCH   4  14
BRANCH   1  26
ATOM     25  C   UNL     1      48.024   3.058  16.670  0.00  0.00    +0.000 C 
ATOM     26  C   UNL     1      47.139   4.293  16.611  0.00  0.00    +0.000 C 
ENDBRANCH   1  26
TORSDOF 5
ENDMDL
MODEL 3
REMARK VINA RESULT:    -6.518      4.767      7.476
REMARK INTER + INTRA:          -7.974
REMARK INTER:                  -8.180
REMARK INTRA:                   0.206
REMARK UNBOUND:                 0.258
REMARK  Name = 
REMARK  7 active torsions:
REMARK  status: ('A' for Active; 'I' for Inactive)
REMARK    1  A    between atoms: C_1  and  C_2
REMARK    2  A    between atoms: C_2  and  C_3
REMARK    3  A    between atoms: N_6  and  C_7
REMARK    4  A    between atoms: N_6  and  C_8
REMARK    5  A    between atoms: C_8  and  C_9
REMARK    6  A    between atoms: C_12  and  O_13
REMARK    7  A    between atoms: C_20  and  C_21
REMARK                            x       y       z     vdW  Elec       q    Type
REMARK                         _______ _______ _______ _____ _____    ______ ____
ROOT
ATOM      1  C   UNL     1      45.804   5.473  12.875  0.00  0.00    +0.000 A 
ATOM      2  N   UNL     1      46.605   5.796  13.930  0.00  0.00    +0.000 NA
ATOM      3  C   UNL     1      47.249   4.824  14.604  0.00  0.00    +0.000 A 
ATOM      4  N   UNL     1      48.116   5.192  15.636  0.00  0.00    +0.000 N 
ATOM      5  C   UNL     1      48.614   6.553  15.618  0.00  0.00    +0.000 C 
ATOM      6  N   UNL     1      47.115   3.531  14.278  0.00  0.00    +0.000 NA
ATOM      7  C   UNL     1      46.360   3.239  13.192  0.00  0.00    +0.000 A 
ATOM      8  C   UNL     1      45.685   4.170  12.431  0.00  0.00    +0.000 A 
ENDROOT
BRANCH   8   9
ATOM      9  C   UNL     1      44.884   3.760  11.257  0.00  0.00    +0.000 C 
ATOM     10  N   UNL     1      43.951   2.770  11.441  0.00  0.00    +0.000 N 
ATOM     11  O   UNL     1      45.035   4.248  10.151  0.00  0.00    +0.000 OA
ATOM     12  H   UNL     1      43.895   2.184  12.265  0.00  0.00    +0.000 HD
ATOM     13  H   UNL     1      43.469   2.446  10.608  0.00  0.00    +0.000 HD
ENDBRANCH   8   9
BRANCH   4  14
ATOM     14  C   UNL     1      48.240   4.388  16.871  0.00  0.00    +0.000 C 
ATOM     15  C   UNL     1      46.998   3.718  17.456  0.00  0.00    +0.000 C 
ATOM     16  C   UNL     1      47.584   4.889  18.166  0.00  0.00    +0.000 C 
BRANCH  14  17
ATOM     17  C   UNL     1      49.586   3.694  17.077  0.00  0.00    +0.000 A 
ATOM     18  C   UNL     1      50.701   4.405  17.565  0.00  0.00    +0.000 A 
ATOM     19  C   UNL     1      51.861   3.747  17.978  0.00  0.00    +0.000 A 
ATOM     20  C   UNL     1      51.925   2.363  17.886  0.00  0.00    +0.000 A 
ATOM     21  C   UNL     1      50.882   1.640  17.326  0.00  0.00    +0.000 A 
ATOM     22  C   UNL     1      49.726   2.306  16.913  0.00  0.00    +0.000 A 
BRANCH  20  23
ATOM     23  O   UNL     1      52.996   1.670  18.367  0.00  0.00    +0.000 OA
ATOM     24  H   UNL     1      52.665   0.879  18.824  0.00  0.00    +0.000 HD
ENDBRANCH  20  23
ENDBRANCH  14  17
ENDBRANCH   4  14
BRANCH   1  26
ATOM     25  C   UNL     1      45.650   7.964  12.840  0.00  0.00    +0.000 C 
ATOM     26  C   UNL     1      45.162   6.666  12.217  0.00  0.00    +0.000 C 
ENDBRANCH   1  26
TORSDOF 5
ENDMDL
MODEL 4
REMARK VINA RESULT:    -6.338      2.245      3.568
REMARK INTER + INTRA:          -7.747
REMARK INTER:                  -7.655
REMARK INTRA:                  -0.093
REMARK UNBOUND:                 0.258
REMARK  Name = 
REMARK  7 active torsions:
REMARK  status: ('A' for Active; 'I' for Inactive)
REMARK    1  A    between atoms: C_1  and  C_2
REMARK    2  A    between atoms: C_2  and  C_3
REMARK    3  A    between atoms: N_6  and  C_7
REMARK    4  A    between atoms: N_6  and  C_8
REMARK    5  A    between atoms: C_8  and  C_9
REMARK    6  A    between atoms: C_12  and  O_13
REMARK    7  A    between atoms: C_20  and  C_21
REMARK                            x       y       z     vdW  Elec       q    Type
REMARK                         _______ _______ _______ _____ _____    ______ ____
ROOT
ATOM      1  C   UNL     1      49.195   7.050  14.367  0.00  0.00    +0.000 A 
ATOM      2  N   UNL     1      48.150   6.184  14.238  0.00  0.00    +0.000 NA
ATOM      3  C   UNL     1      47.514   6.073  13.056  0.00  0.00    +0.000 A 
ATOM      4  N   UNL     1      46.493   5.127  12.936  0.00  0.00    +0.000 N 
ATOM      5  C   UNL     1      46.486   4.045  13.900  0.00  0.00    +0.000 C 
ATOM      6  N   UNL     1      47.870   6.805  11.991  0.00  0.00    +0.000 NA
ATOM      7  C   UNL     1      48.946   7.616  12.125  0.00  0.00    +0.000 A 
ATOM      8  C   UNL     1      49.669   7.775  13.289  0.00  0.00    +0.000 A 
ENDROOT
BRANCH   8   9
ATOM      9  C   UNL     1      50.835   8.683  13.345  0.00  0.00    +0.000 C 
ATOM     10  N   UNL     1      52.060   8.165  13.003  0.00  0.00    +0.000 N 
ATOM     11  O   UNL     1      50.749   9.847  13.696  0.00  0.00    +0.000 OA
ATOM     12  H   UNL     1      52.250   7.177  12.889  0.00  0.00    +0.000 HD
ATOM     13  H   UNL     1      52.858   8.781  13.126  0.00  0.00    +0.000 HD
ENDBRANCH   8   9
BRANCH   4  14
ATOM     14  C   UNL     1      45.280   5.391  12.129  0.00  0.00    +0.000 C 
ATOM     15  C   UNL     1      44.577   6.741  12.254  0.00  0.00    +0.000 C 
ATOM     16  C   UNL     1      43.923   5.534  12.832  0.00  0.00    +0.000 C 
BRANCH  14  17
ATOM     17  C   UNL     1      45.216   4.676  10.780  0.00  0.00    +0.000 A 
ATOM     18  C   UNL     1      45.634   5.318   9.598  0.00  0.00    +0.000 A 
ATOM     19  C   UNL     1      45.803   4.613   8.405  0.00  0.00    +0.000 A 
ATOM     20  C   UNL     1      45.534   3.250   8.378  0.00  0.00    +0.000 A 
ATOM     21  C   UNL     1      45.034   2.604   9.500  0.00  0.00    +0.000 A 
ATOM     22  C   UNL     1      44.865   3.318  10.688  0.00  0.00    +0.000 A 
BRANCH  20  23
ATOM     23  O   UNL     1      45.778   2.502   7.266  0.00  0.00    +0.000 OA
ATOM     24  H   UNL     1      44.924   2.225   6.893  0.00  0.00    +0.000 HD
ENDBRANCH  20  23
ENDBRANCH  14  17
ENDBRANCH   4  14
BRANCH   1  26
ATOM     25  C   UNL     1      49.216   5.958  16.611  0.00  0.00    +0.000 C 
ATOM     26  C   UNL     1      49.809   7.056  15.741  0.00  0.00    +0.000 C 
ENDBRANCH   1  26
TORSDOF 5
ENDMDL
MODEL 5
REMARK VINA RESULT:    -6.001      4.760      7.419
REMARK INTER + INTRA:          -7.322
REMARK INTER:                  -7.310
REMARK INTRA:                  -0.012
REMARK UNBOUND:                 0.258
REMARK  Name = 
REMARK  7 active torsions:
REMARK  status: ('A' for Active; 'I' for Inactive)
REMARK    1  A    between atoms: C_1  and  C_2
REMARK    2  A    between atoms: C_2  and  C_3
REMARK    3  A    between atoms: N_6  and  C_7
REMARK    4  A    between atoms: N_6  and  C_8
REMARK    5  A    between atoms: C_8  and  C_9
REMARK    6  A    between atoms: C_12  and  O_13
REMARK    7  A    between atoms: C_20  and  C_21
REMARK                            x       y       z     vdW  Elec       q    Type
REMARK                         _______ _______ _______ _____ _____    ______ ____
ROOT
ATOM      1  C   UNL     1      47.131   7.070  13.127  0.00  0.00    +0.000 A 
ATOM      2  N   UNL     1      48.043   7.143  14.139  0.00  0.00    +0.000 NA
ATOM      3  C   UNL     1      48.250   6.076  14.933  0.00  0.00    +0.000 A 
ATOM      4  N   UNL     1      49.239   6.158  15.916  0.00  0.00    +0.000 N 
ATOM      5  C   UNL     1      50.261   7.170  15.732  0.00  0.00    +0.000 C 
ATOM      6  N   UNL     1      47.569   4.932  14.770  0.00  0.00    +0.000 NA
ATOM      7  C   UNL     1      46.711   4.863  13.724  0.00  0.00    +0.000 A 
ATOM      8  C   UNL     1      46.455   5.897  12.849  0.00  0.00    +0.000 A 
ENDROOT
BRANCH   8   9
ATOM      9  C   UNL     1      45.501   5.732  11.731  0.00  0.00    +0.000 C 
ATOM     10  N   UNL     1      44.166   5.670  12.040  0.00  0.00    +0.000 N 
ATOM     11  O   UNL     1      45.856   5.631  10.569  0.00  0.00    +0.000 OA
ATOM     12  H   UNL     1      43.802   5.553  12.978  0.00  0.00    +0.000 HD
ATOM     13  H   UNL     1      43.534   5.475  11.270  0.00  0.00    +0.000 HD
ENDBRANCH   8   9
BRANCH   4  14
ATOM     14  C   UNL     1      49.071   5.526  17.243  0.00  0.00    +0.000 C 
ATOM     15  C   UNL     1      47.777   5.751  18.021  0.00  0.00    +0.000 C 
ATOM     16  C   UNL     1      49.025   6.408  18.498  0.00  0.00    +0.000 C 
BRANCH  14  17
ATOM     17  C   UNL     1      49.797   4.195  17.438  0.00  0.00    +0.000 A 
ATOM     18  C   UNL     1      49.156   2.972  17.160  0.00  0.00    +0.000 A 
ATOM     19  C   UNL     1      49.867   1.771  17.106  0.00  0.00    +0.000 A 
ATOM     20  C   UNL     1      51.234   1.781  17.351  0.00  0.00    +0.000 A 
ATOM     21  C   UNL     1      51.881   2.953  17.718  0.00  0.00    +0.000 A 
ATOM     22  C   UNL     1      51.161   4.148  17.772  0.00  0.00    +0.000 A 
BRANCH  20  23
ATOM     23  O   UNL     1      51.987   0.653  17.214  0.00  0.00    +0.000 OA
ATOM     24  H   UNL     1      52.129   0.274  18.097  0.00  0.00    +0.000 HD
ENDBRANCH  20  23
ENDBRANCH  14  17
ENDBRANCH   4  14
BRANCH   1  26
ATOM     25  C   UNL     1      48.385   8.800  11.837  0.00  0.00    +0.000 C 
ATOM     26  C   UNL     1      47.020   8.337  12.323  0.00  0.00    +0.000 C 
ENDBRANCH   1  26
TORSDOF 5
ENDMDL
MODEL 6
REMARK VINA RESULT:    -5.836      3.752      8.112
REMARK INTER + INTRA:          -7.113
REMARK INTER:                  -7.083
REMARK INTRA:                  -0.030
REMARK UNBOUND:                 0.258
REMARK  Name = 
REMARK  7 active torsions:
REMARK  status: ('A' for Active; 'I' for Inactive)
REMARK    1  A    between atoms: C_1  and  C_2
REMARK    2  A    between atoms: C_2  and  C_3
REMARK    3  A    between atoms: N_6  and  C_7
REMARK    4  A    between atoms: N_6  and  C_8
REMARK    5  A    between atoms: C_8  and  C_9
REMARK    6  A    between atoms: C_12  and  O_13
REMARK    7  A    between atoms: C_20  and  C_21
REMARK                            x       y       z     vdW  Elec       q    Type
REMARK                         _______ _______ _______ _____ _____    ______ ____
ROOT
ATOM      1  C   UNL     1      46.354   6.107  12.900  0.00  0.00    +0.000 A 
ATOM      2  N   UNL     1      47.460   6.820  13.258  0.00  0.00    +0.000 NA
ATOM      3  C   UNL     1      48.238   6.387  14.269  0.00  0.00    +0.000 A 
ATOM      4  N   UNL     1      49.401   7.100  14.567  0.00  0.00    +0.000 N 
ATOM      5  C   UNL     1      49.930   7.955  13.523  0.00  0.00    +0.000 C 
ATOM      6  N   UNL     1      47.949   5.270  14.954  0.00  0.00    +0.000 NA
ATOM      7  C   UNL     1      46.879   4.549  14.544  0.00  0.00    +0.000 A 
ATOM      8  C   UNL     1      46.043   4.905  13.506  0.00  0.00    +0.000 A 
ENDROOT
BRANCH   8   9
ATOM      9  C   UNL     1      44.896   4.053  13.124  0.00  0.00    +0.000 C 
ATOM     10  N   UNL     1      45.170   2.854  12.515  0.00  0.00    +0.000 N 
ATOM     11  O   UNL     1      43.737   4.382  13.312  0.00  0.00    +0.000 OA
ATOM     12  H   UNL     1      46.079   2.594  12.151  0.00  0.00    +0.000 HD
ATOM     13  H   UNL     1      44.370   2.323  12.188  0.00  0.00    +0.000 HD
ENDBRANCH   8   9
BRANCH   4  14
ATOM     14  C   UNL     1      49.870   7.277  15.959  0.00  0.00    +0.000 C 
ATOM     15  C   UNL     1      51.351   7.536  16.223  0.00  0.00    +0.000 C 
ATOM     16  C   UNL     1      50.777   6.212  16.591  0.00  0.00    +0.000 C 
BRANCH  14  17
ATOM     17  C   UNL     1      48.856   7.891  16.925  0.00  0.00    +0.000 A 
ATOM     18  C   UNL     1      48.329   7.142  17.996  0.00  0.00    +0.000 A 
ATOM     19  C   UNL     1      47.591   7.747  19.015  0.00  0.00    +0.000 A 
ATOM     20  C   UNL     1      47.354   9.115  18.961  0.00  0.00    +0.000 A 
ATOM     21  C   UNL     1      47.779   9.866  17.875  0.00  0.00    +0.000 A 
ATOM     22  C   UNL     1      48.515   9.252  16.859  0.00  0.00    +0.000 A 
BRANCH  20  23
ATOM     23  O   UNL     1      46.725   9.765  19.980  0.00  0.00    +0.000 OA
ATOM     24  H   UNL     1      46.487  10.655  19.670  0.00  0.00    +0.000 HD
ENDBRANCH  20  23
ENDBRANCH  14  17
ENDBRANCH   4  14
BRANCH   1  26
ATOM     25  C   UNL     1      45.887   5.974  10.451  0.00  0.00    +0.000 C 
ATOM     26  C   UNL     1      45.595   6.711  11.749  0.00  0.00    +0.000 C 
ENDBRANCH   1  26
TORSDOF 5
ENDMDL
MODEL 7
REMARK VINA RESULT:    -5.794      3.752      6.099
REMARK INTER + INTRA:          -7.060
REMARK INTER:                  -7.091
REMARK INTRA:                   0.031
REMARK UNBOUND:                 0.258
REMARK  Name = 
REMARK  7 active torsions:
REMARK  status: ('A' for Active; 'I' for Inactive)
REMARK    1  A    between atoms: C_1  and  C_2
REMARK    2  A    between atoms: C_2  and  C_3
REMARK    3  A    between atoms: N_6  and  C_7
REMARK    4  A    between atoms: N_6  and  C_8
REMARK    5  A    between atoms: C_8  and  C_9
REMARK    6  A    between atoms: C_12  and  O_13
REMARK    7  A    between atoms: C_20  and  C_21
REMARK                            x       y       z     vdW  Elec       q    Type
REMARK                         _______ _______ _______ _____ _____    ______ ____
ROOT
ATOM      1  C   UNL     1      48.791   5.336  16.624  0.00  0.00    +0.000 A 
ATOM      2  N   UNL     1      48.730   6.480  15.885  0.00  0.00    +0.000 NA
ATOM      3  C   UNL     1      48.026   6.500  14.737  0.00  0.00    +0.000 A 
ATOM      4  N   UNL     1      47.926   7.705  14.038  0.00  0.00    +0.000 N 
ATOM      5  C   UNL     1      48.178   8.920  14.788  0.00  0.00    +0.000 C 
ATOM      6  N   UNL     1      47.385   5.413  14.284  0.00  0.00    +0.000 NA
ATOM      7  C   UNL     1      47.411   4.306  15.062  0.00  0.00    +0.000 A 
ATOM      8  C   UNL     1      48.087   4.204  16.261  0.00  0.00    +0.000 A 
ENDROOT
BRANCH   8   9
ATOM      9  C   UNL     1      48.059   2.952  17.048  0.00  0.00    +0.000 C 
ATOM     10  N   UNL     1      47.071   2.818  17.992  0.00  0.00    +0.000 N 
ATOM     11  O   UNL     1      48.879   2.063  16.903  0.00  0.00    +0.000 OA
ATOM     12  H   UNL     1      46.477   3.575  18.308  0.00  0.00    +0.000 HD
ATOM     13  H   UNL     1      47.118   1.990  18.576  0.00  0.00    +0.000 HD
ENDBRANCH   8   9
BRANCH   4  14
ATOM     14  C   UNL     1      47.930   7.749  12.559  0.00  0.00    +0.000 C 
ATOM     15  C   UNL     1      49.242   7.530  11.808  0.00  0.00    +0.000 C 
ATOM     16  C   UNL     1      48.653   8.897  11.841  0.00  0.00    +0.000 C 
BRANCH  14  17
ATOM     17  C   UNL     1      46.637   7.298  11.880  0.00  0.00    +0.000 A 
ATOM     18  C   UNL     1      46.641   6.258  10.931  0.00  0.00    +0.000 A 
ATOM     19  C   UNL     1      45.453   5.679  10.479  0.00  0.00    +0.000 A 
ATOM     20  C   UNL     1      44.240   6.154  10.961  0.00  0.00    +0.000 A 
ATOM     21  C   UNL     1      44.197   7.238  11.827  0.00  0.00    +0.000 A 
ATOM     22  C   UNL     1      45.389   7.812  12.271  0.00  0.00    +0.000 A 
BRANCH  20  23
ATOM     23  O   UNL     1      43.062   5.558  10.625  0.00  0.00    +0.000 OA
ATOM     24  H   UNL     1      42.711   6.002   9.836  0.00  0.00    +0.000 HD
ENDBRANCH  20  23
ENDBRANCH  14  17
ENDBRANCH   4  14
BRANCH   1  26
ATOM     25  C   UNL     1      51.032   4.991  17.668  0.00  0.00    +0.000 C 
ATOM     26  C   UNL     1      49.606   5.473  17.882  0.00  0.00    +0.000 C 
ENDBRANCH   1  26
TORSDOF 5
ENDMDL
MODEL 8
REMARK VINA RESULT:    -5.615      4.251      7.807
REMARK INTER + INTRA:          -6.834
REMARK INTER:                  -6.842
REMARK INTRA:                   0.008
REMARK UNBOUND:                 0.258
REMARK  Name = 
REMARK  7 active torsions:
REMARK  status: ('A' for Active; 'I' for Inactive)
REMARK    1  A    between atoms: C_1  and  C_2
REMARK    2  A    between atoms: C_2  and  C_3
REMARK    3  A    between atoms: N_6  and  C_7
REMARK    4  A    between atoms: N_6  and  C_8
REMARK    5  A    between atoms: C_8  and  C_9
REMARK    6  A    between atoms: C_12  and  O_13
REMARK    7  A    between atoms: C_20  and  C_21
REMARK                            x       y       z     vdW  Elec       q    Type
REMARK                         _______ _______ _______ _____ _____    ______ ____
ROOT
ATOM      1  C   UNL     1      46.207   6.006  12.685  0.00  0.00    +0.000 A 
ATOM      2  N   UNL     1      47.277   6.797  12.980  0.00  0.00    +0.000 NA
ATOM      3  C   UNL     1      48.090   6.470  14.003  0.00  0.00    +0.000 A 
ATOM      4  N   UNL     1      49.216   7.263  14.238  0.00  0.00    +0.000 N 
ATOM      5  C   UNL     1      49.684   8.078  13.134  0.00  0.00    +0.000 C 
ATOM      6  N   UNL     1      47.871   5.385  14.760  0.00  0.00    +0.000 NA
ATOM      7  C   UNL     1      46.837   4.583  14.413  0.00  0.00    +0.000 A 
ATOM      8  C   UNL     1      45.969   4.828  13.369  0.00  0.00    +0.000 A 
ENDROOT
BRANCH   8   9
ATOM      9  C   UNL     1      44.865   3.894  13.059  0.00  0.00    +0.000 C 
ATOM     10  N   UNL     1      45.179   2.744  12.379  0.00  0.00    +0.000 N 
ATOM     11  O   UNL     1      43.707   4.116  13.366  0.00  0.00    +0.000 OA
ATOM     12  H   UNL     1      46.068   2.575  11.924  0.00  0.00    +0.000 HD
ATOM     13  H   UNL     1      44.398   2.156  12.106  0.00  0.00    +0.000 HD
ENDBRANCH   8   9
BRANCH   4  14
ATOM     14  C   UNL     1      49.692   7.551  15.609  0.00  0.00    +0.000 C 
ATOM     15  C   UNL     1      48.693   8.018  16.665  0.00  0.00    +0.000 C 
ATOM     16  C   UNL     1      49.676   8.997  16.124  0.00  0.00    +0.000 C 
BRANCH  14  17
ATOM     17  C   UNL     1      50.894   6.731  16.077  0.00  0.00    +0.000 A 
ATOM     18  C   UNL     1      52.209   7.122  15.758  0.00  0.00    +0.000 A 
ATOM     19  C   UNL     1      53.315   6.527  16.367  0.00  0.00    +0.000 A 
ATOM     20  C   UNL     1      53.115   5.511  17.293  0.00  0.00    +0.000 A 
ATOM     21  C   UNL     1      51.839   5.039  17.563  0.00  0.00    +0.000 A 
ATOM     22  C   UNL     1      50.738   5.638  16.948  0.00  0.00    +0.000 A 
BRANCH  20  23
ATOM     23  O   UNL     1      54.156   4.968  17.985  0.00  0.00    +0.000 OA
ATOM     24  H   UNL     1      54.918   4.901  17.384  0.00  0.00    +0.000 HD
ENDBRANCH  20  23
ENDBRANCH  14  17
ENDBRANCH   4  14
BRANCH   1  26
ATOM     25  C   UNL     1      45.842   5.821  10.223  0.00  0.00    +0.000 C 
ATOM     26  C   UNL     1      45.400   6.495  11.512  0.00  0.00    +0.000 C 
ENDBRANCH   1  26
TORSDOF 5
ENDMDL
MODEL 9
REMARK VINA RESULT:    -5.468      3.293      6.618
REMARK INTER + INTRA:          -6.649
REMARK INTER:                  -6.799
REMARK INTRA:                   0.150
REMARK UNBOUND:                 0.258
REMARK  Name = 
REMARK  7 active torsions:
REMARK  status: ('A' for Active; 'I' for Inactive)
REMARK    1  A    between atoms: C_1  and  C_2
REMARK    2  A    between atoms: C_2  and  C_3
REMARK    3  A    between atoms: N_6  and  C_7
REMARK    4  A    between atoms: N_6  and  C_8
REMARK    5  A    between atoms: C_8  and  C_9
REMARK    6  A    between atoms: C_12  and  O_13
REMARK    7  A    between atoms: C_20  and  C_21
REMARK                            x       y       z     vdW  Elec       q    Type
REMARK                         _______ _______ _______ _____ _____    ______ ____
ROOT
ATOM      1  C   UNL     1      46.683   5.000  13.680  0.00  0.00    +0.000 A 
ATOM      2  N   UNL     1      47.394   6.141  13.905  0.00  0.00    +0.000 NA
ATOM      3  C   UNL     1      47.080   7.269  13.238  0.00  0.00    +0.000 A 
ATOM      4  N   UNL     1      47.782   8.438  13.540  0.00  0.00    +0.000 N 
ATOM      5  C   UNL     1      48.456   8.484  14.823  0.00  0.00    +0.000 C 
ATOM      6  N   UNL     1      46.087   7.303  12.338  0.00  0.00    +0.000 NA
ATOM      7  C   UNL     1      45.358   6.174  12.174  0.00  0.00    +0.000 A 
ATOM      8  C   UNL     1      45.594   4.984  12.830  0.00  0.00    +0.000 A 
ENDROOT
BRANCH   8   9
ATOM      9  C   UNL     1      44.742   3.799  12.589  0.00  0.00    +0.000 C 
ATOM     10  N   UNL     1      45.114   2.945  11.580  0.00  0.00    +0.000 N 
ATOM     11  O   UNL     1      43.732   3.570  13.231  0.00  0.00    +0.000 OA
ATOM     12  H   UNL     1      45.817   3.158  10.883  0.00  0.00    +0.000 HD
ATOM     13  H   UNL     1      44.474   2.184  11.377  0.00  0.00    +0.000 HD
ENDBRANCH   8   9
BRANCH   4  14
ATOM     14  C   UNL     1      48.139   9.423  12.495  0.00  0.00    +0.000 C 
ATOM     15  C   UNL     1      47.768  10.891  12.693  0.00  0.00    +0.000 C 
ATOM     16  C   UNL     1      47.025  10.093  11.678  0.00  0.00    +0.000 C 
BRANCH  14  17
ATOM     17  C   UNL     1      49.402   9.109  11.694  0.00  0.00    +0.000 A 
ATOM     18  C   UNL     1      50.291  10.132  11.310  0.00  0.00    +0.000 A 
ATOM     19  C   UNL     1      51.554   9.843  10.789  0.00  0.00    +0.000 A 
ATOM     20  C   UNL     1      51.934   8.518  10.627  0.00  0.00    +0.000 A 
ATOM     21  C   UNL     1      51.050   7.486  10.910  0.00  0.00    +0.000 A 
ATOM     22  C   UNL     1      49.788   7.784  11.428  0.00  0.00    +0.000 A 
BRANCH  20  23
ATOM     23  O   UNL     1      53.191   8.186  10.216  0.00  0.00    +0.000 OA
ATOM     24  H   UNL     1      53.463   8.820   9.532  0.00  0.00    +0.000 HD
ENDBRANCH  20  23
ENDBRANCH  14  17
ENDBRANCH   4  14
BRANCH   1  26
ATOM     25  C   UNL     1      47.304   4.216  15.967  0.00  0.00    +0.000 C 
ATOM     26  C   UNL     1      47.145   3.829  14.505  0.00  0.00    +0.000 C 
ENDBRANCH   1  26
TORSDOF 5
ENDMDL
