MODEL 1
REMARK VINA RESULT:    -7.892      0.000      0.000
REMARK INTER + INTRA:         -12.665
REMARK INTER:                 -11.353
REMARK INTRA:                  -1.312
REMARK UNBOUND:                -1.312
REMARK  Name = 
REMARK  8 active torsions:
REMARK  status: ('A' for Active; 'I' for Inactive)
REMARK    1  A    between atoms: N_1  and  C_2
REMARK    2  A    between atoms: C_2  and  C_3
REMARK    3  A    between atoms: C_3  and  N_4
REMARK    4  A    between atoms: C_3  and  C_17
REMARK    5  A    between atoms: C_5  and  C_7
REMARK    6  A    between atoms: C_20  and  C_21
REMARK    7  A    between atoms: C_21  and  N_22
REMARK    8  A    between atoms: C_23  and  C_25
REMARK                            x       y       z     vdW  Elec       q    Type
REMARK                         _______ _______ _______ _____ _____    ______ ____
ROOT
ATOM      1  C   UNL     1      47.896   7.262  13.938  0.00  0.00    +0.000 C 
ENDROOT
BRANCH   1   2
ATOM      2  C   UNL     1      46.852   6.527  13.085  0.00  0.00    +0.000 A 
ATOM      3  C   UNL     1      46.648   5.148  13.240  0.00  0.00    +0.000 A 
ATOM      4  C   UNL     1      45.726   4.459  12.439  0.00  0.00    +0.000 A 
ATOM      5  C   UNL     1      44.983   5.131  11.458  0.00  0.00    +0.000 A 
ATOM      6  C   UNL     1      45.145   6.518  11.338  0.00  0.00    +0.000 A 
ATOM      7  C   UNL     1      46.067   7.205  12.137  0.00  0.00    +0.000 A 
BRANCH   5   8
ATOM      8  C   UNL     1      44.050   4.385  10.532  0.00  0.00    +0.000 C 
BRANCH   8   9
ATOM      9  N   UNL     1      44.733   3.414   9.712  0.00  0.00    +0.000 N 
ATOM     10  C   UNL     1      45.499   3.802   8.636  0.00  0.00    +0.000 C 
ATOM     11  O   UNL     1      45.622   4.975   8.303  0.00  0.00    +0.000 OA
ATOM     12  H   UNL     1      44.744   2.452  10.014  0.00  0.00    +0.000 HD
BRANCH  10  13
ATOM     13  C   UNL     1      46.151   2.722   7.922  0.00  0.00    +0.000 A 
ATOM     14  C   UNL     1      46.914   2.706   6.762  0.00  0.00    +0.000 A 
ATOM     15  C   UNL     1      47.316   1.372   6.511  0.00  0.00    +0.000 A 
ATOM     16  C   UNL     1      46.799   0.595   7.518  0.00  0.00    +0.000 A 
ATOM     17  N   UNL     1      46.103   1.412   8.366  0.00  0.00    +0.000 N 
ATOM     18  H   UNL     1      45.617   1.122   9.208  0.00  0.00    +0.000 HD
ENDBRANCH  10  13
ENDBRANCH   8   9
ENDBRANCH   5   8
ENDBRANCH   1   2
BRANCH   1  19
ATOM     19  N   UNL     1      47.901   6.668  15.265  0.00  0.00    +0.000 N 
ATOM     20  C   UNL     1      49.040   6.282  15.929  0.00  0.00    +0.000 C 
ATOM     21  O   UNL     1      50.173   6.540  15.542  0.00  0.00    +0.000 OA
ATOM     22  H   UNL     1      47.042   6.193  15.505  0.00  0.00    +0.000 HD
BRANCH  20  23
ATOM     23  C   UNL     1      48.798   5.578  17.192  0.00  0.00    +0.000 A 
ATOM     24  C   UNL     1      48.987   4.206  17.292  0.00  0.00    +0.000 A 
ATOM     25  S   UNL     1      48.694   3.601  18.863  0.00  0.00    +0.000 S 
ATOM     26  C   UNL     1      48.250   5.141  19.438  0.00  0.00    +0.000 A 
ATOM     27  N   UNL     1      47.853   5.331  20.727  0.00  0.00    +0.000 NA
ATOM     28  C   UNL     1      47.519   6.548  21.007  0.00  0.00    +0.000 A 
ATOM     29  N   UNL     1      47.553   7.593  20.122  0.00  0.00    +0.000 N 
ATOM     30  C   UNL     1      47.979   7.454  18.829  0.00  0.00    +0.000 A 
ATOM     31  O   UNL     1      48.064   8.428  18.085  0.00  0.00    +0.000 OA
ATOM     32  C   UNL     1      48.347   6.105  18.453  0.00  0.00    +0.000 A 
ATOM     33  H   UNL     1      47.302   8.528  20.407  0.00  0.00    +0.000 HD
ENDBRANCH  20  23
ENDBRANCH   1  19
BRANCH   1  34
ATOM     34  C   UNL     1      47.634   8.796  13.995  0.00  0.00    +0.000 C 
BRANCH  34  35
ATOM     35  N   UNL     1      47.495   9.340  15.351  0.00  0.00    +0.000 NA
ATOM     36  H   UNL     1      48.335   9.109  15.880  0.00  0.00    +0.000 HD
ATOM     37  H   UNL     1      46.720   8.877  15.826  0.00  0.00    +0.000 HD
ENDBRANCH  34  35
ENDBRANCH   1  34
TORSDOF 8
ENDMDL
MODEL 2
REMARK VINA RESULT:    -7.505      3.764      8.511
REMARK INTER + INTRA:         -12.108
REMARK INTER:                 -11.090
REMARK INTRA:                  -1.018
REMARK UNBOUND:                -1.312
REMARK  Name = 
REMARK  8 active torsions:
REMARK  status: ('A' for Active; 'I' for Inactive)
REMARK    1  A    between atoms: N_1  and  C_2
REMARK    2  A    between atoms: C_2  and  C_3
REMARK    3  A    between atoms: C_3  and  N_4
REMARK    4  A    between atoms: C_3  and  C_17
REMARK    5  A    between atoms: C_5  and  C_7
REMARK    6  A    between atoms: C_20  and  C_21
REMARK    7  A    between atoms: C_21  and  N_22
REMARK    8  A    between atoms: C_23  and  C_25
REMARK                            x       y       z     vdW  Elec       q    Type
REMARK                         _______ _______ _______ _____ _____    ______ ____
ROOT
ATOM      1  C   UNL     1      47.703   6.895  13.659  0.00  0.00    +0.000 C 
ENDROOT
BRANCH   1   2
ATOM      2  C   UNL     1      47.917   6.016  14.900  0.00  0.00    +0.000 A 
ATOM      3  C   UNL     1      48.831   6.397  15.894  0.00  0.00    +0.000 A 
ATOM      4  C   UNL     1      49.063   5.583  17.012  0.00  0.00    +0.000 A 
ATOM      5  C   UNL     1      48.388   4.364  17.167  0.00  0.00    +0.000 A 
ATOM      6  C   UNL     1      47.435   4.008  16.204  0.00  0.00    +0.000 A 
ATOM      7  C   UNL     1      47.204   4.819  15.086  0.00  0.00    +0.000 A 
BRANCH   5   8
ATOM      8  C   UNL     1      48.693   3.440  18.323  0.00  0.00    +0.000 C 
BRANCH   8   9
ATOM      9  N   UNL     1      50.059   2.974  18.323  0.00  0.00    +0.000 N 
ATOM     10  C   UNL     1      50.510   2.088  17.372  0.00  0.00    +0.000 C 
ATOM     11  O   UNL     1      49.782   1.630  16.499  0.00  0.00    +0.000 OA
ATOM     12  H   UNL     1      50.714   3.406  18.957  0.00  0.00    +0.000 HD
BRANCH  10  13
ATOM     13  C   UNL     1      51.912   1.732  17.476  0.00  0.00    +0.000 A 
ATOM     14  C   UNL     1      53.000   2.403  18.017  0.00  0.00    +0.000 A 
ATOM     15  C   UNL     1      54.148   1.591  17.860  0.00  0.00    +0.000 A 
ATOM     16  C   UNL     1      53.748   0.438  17.229  0.00  0.00    +0.000 A 
ATOM     17  N   UNL     1      52.401   0.527  17.005  0.00  0.00    +0.000 N 
ATOM     18  H   UNL     1      51.823  -0.180  16.562  0.00  0.00    +0.000 HD
ENDBRANCH  10  13
ENDBRANCH   8   9
ENDBRANCH   5   8
ENDBRANCH   1   2
BRANCH   1  19
ATOM     19  N   UNL     1      47.120   6.071  12.613  0.00  0.00    +0.000 N 
ATOM     20  C   UNL     1      46.100   6.483  11.789  0.00  0.00    +0.000 C 
ATOM     21  O   UNL     1      45.685   7.634  11.746  0.00  0.00    +0.000 OA
ATOM     22  H   UNL     1      47.213   5.077  12.773  0.00  0.00    +0.000 HD
BRANCH  20  23
ATOM     23  C   UNL     1      45.576   5.440  10.902  0.00  0.00    +0.000 A 
ATOM     24  C   UNL     1      45.763   5.511   9.529  0.00  0.00    +0.000 A 
ATOM     25  S   UNL     1      45.112   4.169   8.693  0.00  0.00    +0.000 S 
ATOM     26  C   UNL     1      44.511   3.487  10.133  0.00  0.00    +0.000 A 
ATOM     27  N   UNL     1      43.812   2.319  10.129  0.00  0.00    +0.000 NA
ATOM     28  C   UNL     1      43.395   1.943  11.293  0.00  0.00    +0.000 A 
ATOM     29  N   UNL     1      43.620   2.621  12.462  0.00  0.00    +0.000 N 
ATOM     30  C   UNL     1      44.348   3.779  12.518  0.00  0.00    +0.000 A 
ATOM     31  O   UNL     1      44.590   4.321  13.593  0.00  0.00    +0.000 OA
ATOM     32  C   UNL     1      44.823   4.259  11.236  0.00  0.00    +0.000 A 
ATOM     33  H   UNL     1      43.289   2.265  13.346  0.00  0.00    +0.000 HD
ENDBRANCH  20  23
ENDBRANCH   1  19
BRANCH   1  34
ATOM     34  C   UNL     1      49.020   7.578  13.188  0.00  0.00    +0.000 C 
BRANCH  34  35
ATOM     35  N   UNL     1      49.847   6.757  12.295  0.00  0.00    +0.000 NA
ATOM     36  H   UNL     1      50.190   5.954  12.821  0.00  0.00    +0.000 HD
ATOM     37  H   UNL     1      50.670   7.287  12.011  0.00  0.00    +0.000 HD
ENDBRANCH  34  35
ENDBRANCH   1  34
TORSDOF 8
ENDMDL
MODEL 3
REMARK VINA RESULT:    -7.366      1.953      2.643
REMARK INTER + INTRA:         -11.907
REMARK INTER:                 -10.761
REMARK INTRA:                  -1.146
REMARK UNBOUND:                -1.312
REMARK  Name = 
REMARK  8 active torsions:
REMARK  status: ('A' for Active; 'I' for Inactive)
REMARK    1  A    between atoms: N_1  and  C_2
REMARK    2  A    between atoms: C_2  and  C_3
REMARK    3  A    between atoms: C_3  and  N_4
REMARK    4  A    between atoms: C_3  and  C_17
REMARK    5  A    between atoms: C_5  and  C_7
REMARK    6  A    between atoms: C_20  and  C_21
REMARK    7  A    between atoms: C_21  and  N_22
REMARK    8  A    between atoms: C_23  and  C_25
REMARK                            x       y       z     vdW  Elec       q    Type
REMARK                         _______ _______ _______ _____ _____    ______ ____
ROOT
ATOM      1  C   UNL     1      46.718   8.723  12.857  0.00  0.00    +0.000 C 
ENDROOT
BRANCH   1   2
ATOM      2  C   UNL     1      46.037   7.390  12.513  0.00  0.00    +0.000 A 
ATOM      3  C   UNL     1      46.583   6.176  12.953  0.00  0.00    +0.000 A 
ATOM      4  C   UNL     1      45.991   4.951  12.612  0.00  0.00    +0.000 A 
ATOM      5  C   UNL     1      44.836   4.906  11.818  0.00  0.00    +0.000 A 
ATOM      6  C   UNL     1      44.257   6.120  11.423  0.00  0.00    +0.000 A 
ATOM      7  C   UNL     1      44.849   7.343  11.762  0.00  0.00    +0.000 A 
BRANCH   5   8
ATOM      8  C   UNL     1      44.240   3.591  11.374  0.00  0.00    +0.000 C 
BRANCH   8   9
ATOM      9  N   UNL     1      45.068   2.894  10.420  0.00  0.00    +0.000 N 
ATOM     10  C   UNL     1      45.036   3.212   9.081  0.00  0.00    +0.000 C 
ATOM     11  O   UNL     1      44.294   4.075   8.626  0.00  0.00    +0.000 OA
ATOM     12  H   UNL     1      45.766   2.254  10.767  0.00  0.00    +0.000 HD
BRANCH  10  13
ATOM     13  C   UNL     1      45.943   2.451   8.245  0.00  0.00    +0.000 A 
ATOM     14  C   UNL     1      46.169   1.087   8.125  0.00  0.00    +0.000 A 
ATOM     15  C   UNL     1      47.169   0.884   7.144  0.00  0.00    +0.000 A 
ATOM     16  C   UNL     1      47.538   2.122   6.678  0.00  0.00    +0.000 A 
ATOM     17  N   UNL     1      46.794   3.061   7.340  0.00  0.00    +0.000 N 
ATOM     18  H   UNL     1      46.841   4.064   7.200  0.00  0.00    +0.000 HD
ENDBRANCH  10  13
ENDBRANCH   8   9
ENDBRANCH   5   8
ENDBRANCH   1   2
BRANCH   1  19
ATOM     19  N   UNL     1      46.994   8.739  14.283  0.00  0.00    +0.000 N 
ATOM     20  C   UNL     1      48.234   8.980  14.823  0.00  0.00    +0.000 C 
ATOM     21  O   UNL     1      49.198   9.358  14.170  0.00  0.00    +0.000 OA
ATOM     22  H   UNL     1      46.349   8.187  14.832  0.00  0.00    +0.000 HD
BRANCH  20  23
ATOM     23  C   UNL     1      48.308   8.807  16.277  0.00  0.00    +0.000 A 
ATOM     24  C   UNL     1      48.071   9.873  17.135  0.00  0.00    +0.000 A 
ATOM     25  S   UNL     1      48.163   9.438  18.786  0.00  0.00    +0.000 S 
ATOM     26  C   UNL     1      48.579   7.832  18.402  0.00  0.00    +0.000 A 
ATOM     27  N   UNL     1      48.829   6.912  19.373  0.00  0.00    +0.000 NA
ATOM     28  C   UNL     1      49.162   5.745  18.928  0.00  0.00    +0.000 A 
ATOM     29  N   UNL     1      49.260   5.410  17.603  0.00  0.00    +0.000 N 
ATOM     30  C   UNL     1      48.983   6.294  16.595  0.00  0.00    +0.000 A 
ATOM     31  O   UNL     1      49.012   5.938  15.419  0.00  0.00    +0.000 OA
ATOM     32  C   UNL     1      48.624   7.626  17.036  0.00  0.00    +0.000 A 
ATOM     33  H   UNL     1      49.502   4.474  17.315  0.00  0.00    +0.000 HD
ENDBRANCH  20  23
ENDBRANCH   1  19
BRANCH   1  34
ATOM     34  C   UNL     1      45.865   9.949  12.420  0.00  0.00    +0.000 C 
BRANCH  34  35
ATOM     35  N   UNL     1      46.602  11.217  12.370  0.00  0.00    +0.000 NA
ATOM     36  H   UNL     1      46.452  11.643  11.456  0.00  0.00    +0.000 HD
ATOM     37  H   UNL     1      47.603  11.032  12.440  0.00  0.00    +0.000 HD
ENDBRANCH  34  35
ENDBRANCH   1  34
TORSDOF 8
ENDMDL
MODEL 4
REMARK VINA RESULT:    -7.316      2.668      4.375
REMARK INTER + INTRA:         -11.836
REMARK INTER:                 -10.593
REMARK INTRA:                  -1.243
REMARK UNBOUND:                -1.312
REMARK  Name = 
REMARK  8 active torsions:
REMARK  status: ('A' for Active; 'I' for Inactive)
REMARK    1  A    between atoms: N_1  and  C_2
REMARK    2  A    between atoms: C_2  and  C_3
REMARK    3  A    between atoms: C_3  and  N_4
REMARK    4  A    between atoms: C_3  and  C_17
REMARK    5  A    between atoms: C_5  and  C_7
REMARK    6  A    between atoms: C_20  and  C_21
REMARK    7  A    between atoms: C_21  and  N_22
REMARK    8  A    between atoms: C_23  and  C_25
REMARK                            x       y       z     vdW  Elec       q    Type
REMARK                         _______ _______ _______ _____ _____    ______ ____
ROOT
ATOM      1  C   UNL     1      46.985   5.082  15.078  0.00  0.00    +0.000 C 
ENDROOT
BRANCH   1   2
ATOM      2  C   UNL     1      46.131   4.816  13.830  0.00  0.00    +0.000 A 
ATOM      3  C   UNL     1      46.102   3.543  13.243  0.00  0.00    +0.000 A 
ATOM      4  C   UNL     1      45.356   3.299  12.080  0.00  0.00    +0.000 A 
ATOM      5  C   UNL     1      44.619   4.325  11.471  0.00  0.00    +0.000 A 
ATOM      6  C   UNL     1      44.602   5.583  12.086  0.00  0.00    +0.000 A 
ATOM      7  C   UNL     1      45.348   5.827  13.246  0.00  0.00    +0.000 A 
BRANCH   5   8
ATOM      8  C   UNL     1      43.882   4.095  10.172  0.00  0.00    +0.000 C 
BRANCH   8   9
ATOM      9  N   UNL     1      44.657   3.349   9.211  0.00  0.00    +0.000 N 
ATOM     10  C   UNL     1      45.601   3.966   8.423  0.00  0.00    +0.000 C 
ATOM     11  O   UNL     1      45.815   5.172   8.472  0.00  0.00    +0.000 OA
ATOM     12  H   UNL     1      44.587   2.342   9.215  0.00  0.00    +0.000 HD
BRANCH  10  13
ATOM     13  C   UNL     1      46.326   3.087   7.526  0.00  0.00    +0.000 A 
ATOM     14  C   UNL     1      46.894   3.302   6.278  0.00  0.00    +0.000 A 
ATOM     15  C   UNL     1      47.493   2.095   5.846  0.00  0.00    +0.000 A 
ATOM     16  C   UNL     1      47.285   1.162   6.833  0.00  0.00    +0.000 A 
ATOM     17  N   UNL     1      46.587   1.766   7.843  0.00  0.00    +0.000 N 
ATOM     18  H   UNL     1      46.296   1.328   8.710  0.00  0.00    +0.000 HD
ENDBRANCH  10  13
ENDBRANCH   8   9
ENDBRANCH   5   8
ENDBRANCH   1   2
BRANCH   1  19
ATOM     19  N   UNL     1      48.105   5.925  14.693  0.00  0.00    +0.000 N 
ATOM     20  C   UNL     1      48.773   6.756  15.559  0.00  0.00    +0.000 C 
ATOM     21  O   UNL     1      48.600   6.756  16.771  0.00  0.00    +0.000 OA
ATOM     22  H   UNL     1      48.114   6.173  13.714  0.00  0.00    +0.000 HD
BRANCH  20  23
ATOM     23  C   UNL     1      49.776   7.616  14.924  0.00  0.00    +0.000 A 
ATOM     24  C   UNL     1      51.119   7.519  15.263  0.00  0.00    +0.000 A 
ATOM     25  S   UNL     1      52.115   8.581  14.367  0.00  0.00    +0.000 S 
ATOM     26  C   UNL     1      50.777   9.240  13.546  0.00  0.00    +0.000 A 
ATOM     27  N   UNL     1      50.927  10.238  12.632  0.00  0.00    +0.000 NA
ATOM     28  C   UNL     1      49.818  10.656  12.114  0.00  0.00    +0.000 A 
ATOM     29  N   UNL     1      48.577  10.164  12.419  0.00  0.00    +0.000 N 
ATOM     30  C   UNL     1      48.384   9.138  13.304  0.00  0.00    +0.000 A 
ATOM     31  O   UNL     1      47.264   8.675  13.499  0.00  0.00    +0.000 OA
ATOM     32  C   UNL     1      49.593   8.643  13.931  0.00  0.00    +0.000 A 
ATOM     33  H   UNL     1      47.748  10.516  11.963  0.00  0.00    +0.000 HD
ENDBRANCH  20  23
ENDBRANCH   1  19
BRANCH   1  34
ATOM     34  C   UNL     1      47.462   3.763  15.755  0.00  0.00    +0.000 C 
BRANCH  34  35
ATOM     35  N   UNL     1      46.748   3.420  16.991  0.00  0.00    +0.000 NA
ATOM     36  H   UNL     1      46.063   2.696  16.778  0.00  0.00    +0.000 HD
ATOM     37  H   UNL     1      46.218   4.230  17.313  0.00  0.00    +0.000 HD
ENDBRANCH  34  35
ENDBRANCH   1  34
TORSDOF 8
ENDMDL
MODEL 5
REMARK VINA RESULT:    -7.238      2.073      2.651
REMARK INTER + INTRA:         -11.725
REMARK INTER:                 -10.374
REMARK INTRA:                  -1.351
REMARK UNBOUND:                -1.312
REMARK  Name = 
REMARK  8 active torsions:
REMARK  status: ('A' for Active; 'I' for Inactive)
REMARK    1  A    between atoms: N_1  and  C_2
REMARK    2  A    between atoms: C_2  and  C_3
REMARK    3  A    between atoms: C_3  and  N_4
REMARK    4  A    between atoms: C_3  and  C_17
REMARK    5  A    between atoms: C_5  and  C_7
REMARK    6  A    between atoms: C_20  and  C_21
REMARK    7  A    between atoms: C_21  and  N_22
REMARK    8  A    between atoms: C_23  and  C_25
REMARK                            x       y       z     vdW  Elec       q    Type
REMARK                         _______ _______ _______ _____ _____    ______ ____
ROOT
ATOM      1  C   UNL     1      49.012   8.744  14.615  0.00  0.00    +0.000 C 
ENDROOT
BRANCH   1   2
ATOM      2  C   UNL     1      47.964   8.235  13.614  0.00  0.00    +0.000 A 
ATOM      3  C   UNL     1      46.670   8.777  13.600  0.00  0.00    +0.000 A 
ATOM      4  C   UNL     1      45.694   8.292  12.717  0.00  0.00    +0.000 A 
ATOM      5  C   UNL     1      45.984   7.250  11.825  0.00  0.00    +0.000 A 
ATOM      6  C   UNL     1      47.291   6.745  11.799  0.00  0.00    +0.000 A 
ATOM      7  C   UNL     1      48.266   7.227  12.682  0.00  0.00    +0.000 A 
BRANCH   5   8
ATOM      8  C   UNL     1      44.917   6.663  10.930  0.00  0.00    +0.000 C 
BRANCH   8   9
ATOM      9  N   UNL     1      45.415   5.610  10.080  0.00  0.00    +0.000 N 
ATOM     10  C   UNL     1      44.710   4.441   9.905  0.00  0.00    +0.000 C 
ATOM     11  O   UNL     1      43.647   4.221  10.474  0.00  0.00    +0.000 OA
ATOM     12  H   UNL     1      46.229   5.793   9.514  0.00  0.00    +0.000 HD
BRANCH  10  13
ATOM     13  C   UNL     1      45.315   3.485   8.999  0.00  0.00    +0.000 A 
ATOM     14  C   UNL     1      45.931   3.640   7.765  0.00  0.00    +0.000 A 
ATOM     15  C   UNL     1      46.356   2.367   7.315  0.00  0.00    +0.000 A 
ATOM     16  C   UNL     1      45.997   1.455   8.277  0.00  0.00    +0.000 A 
ATOM     17  N   UNL     1      45.376   2.133   9.290  0.00  0.00    +0.000 N 
ATOM     18  H   UNL     1      45.009   1.724  10.142  0.00  0.00    +0.000 HD
ENDBRANCH  10  13
ENDBRANCH   8   9
ENDBRANCH   5   8
ENDBRANCH   1   2
BRANCH   1  19
ATOM     19  N   UNL     1      49.091   7.796  15.714  0.00  0.00    +0.000 N 
ATOM     20  C   UNL     1      50.171   6.978  15.946  0.00  0.00    +0.000 C 
ATOM     21  O   UNL     1      51.235   7.072  15.350  0.00  0.00    +0.000 OA
ATOM     22  H   UNL     1      48.192   7.482  16.051  0.00  0.00    +0.000 HD
BRANCH  20  23
ATOM     23  C   UNL     1      49.974   6.005  17.025  0.00  0.00    +0.000 A 
ATOM     24  C   UNL     1      50.793   6.007  18.146  0.00  0.00    +0.000 A 
ATOM     25  S   UNL     1      50.358   4.820  19.297  0.00  0.00    +0.000 S 
ATOM     26  C   UNL     1      49.103   4.234  18.306  0.00  0.00    +0.000 A 
ATOM     27  N   UNL     1      48.329   3.181  18.689  0.00  0.00    +0.000 NA
ATOM     28  C   UNL     1      47.438   2.831  17.820  0.00  0.00    +0.000 A 
ATOM     29  N   UNL     1      47.244   3.441  16.608  0.00  0.00    +0.000 N 
ATOM     30  C   UNL     1      47.974   4.523  16.199  0.00  0.00    +0.000 A 
ATOM     31  O   UNL     1      47.724   5.089  15.138  0.00  0.00    +0.000 OA
ATOM     32  C   UNL     1      49.003   4.947  17.127  0.00  0.00    +0.000 A 
ATOM     33  H   UNL     1      46.515   3.137  15.980  0.00  0.00    +0.000 HD
ENDBRANCH  20  23
ENDBRANCH   1  19
BRANCH   1  34
ATOM     34  C   UNL     1      48.696  10.183  15.116  0.00  0.00    +0.000 C 
BRANCH  34  35
ATOM     35  N   UNL     1      48.190  10.251  16.492  0.00  0.00    +0.000 NA
ATOM     36  H   UNL     1      47.743  11.157  16.627  0.00  0.00    +0.000 HD
ATOM     37  H   UNL     1      48.972  10.217  17.145  0.00  0.00    +0.000 HD
ENDBRANCH  34  35
ENDBRANCH   1  34
TORSDOF 8
ENDMDL
MODEL 6
REMARK VINA RESULT:    -7.036      2.751      4.132
REMARK INTER + INTRA:         -11.434
REMARK INTER:                 -10.462
REMARK INTRA:                  -0.972
REMARK UNBOUND:                -1.312
REMARK  Name = 
REMARK  8 active torsions:
REMARK  status: ('A' for Active; 'I' for Inactive)
REMARK    1  A    between atoms: N_1  and  C_2
REMARK    2  A    between atoms: C_2  and  C_3
REMARK    3  A    between atoms: C_3  and  N_4
REMARK    4  A    between atoms: C_3  and  C_17
REMARK    5  A    between atoms: C_5  and  C_7
REMARK    6  A    between atoms: C_20  and  C_21
REMARK    7  A    between atoms: C_21  and  N_22
REMARK    8  A    between atoms: C_23  and  C_25
REMARK                            x       y       z     vdW  Elec       q    Type
REMARK                         _______ _______ _______ _____ _____    ______ ____
ROOT
ATOM      1  C   UNL     1      47.082   4.994  15.358  0.00  0.00    +0.000 C 
ENDROOT
BRANCH   1   2
ATOM      2  C   UNL     1      46.349   4.770  14.027  0.00  0.00    +0.000 A 
ATOM      3  C   UNL     1      45.826   5.856  13.310  0.00  0.00    +0.000 A 
ATOM      4  C   UNL     1      45.120   5.660  12.114  0.00  0.00    +0.000 A 
ATOM      5  C   UNL     1      44.916   4.370  11.603  0.00  0.00    +0.000 A 
ATOM      6  C   UNL     1      45.485   3.288  12.288  0.00  0.00    +0.000 A 
ATOM      7  C   UNL     1      46.188   3.484  13.484  0.00  0.00    +0.000 A 
BRANCH   5   8
ATOM      8  C   UNL     1      44.084   4.140  10.362  0.00  0.00    +0.000 C 
BRANCH   8   9
ATOM      9  N   UNL     1      44.782   3.381   9.352  0.00  0.00    +0.000 N 
ATOM     10  C   UNL     1      45.657   3.989   8.481  0.00  0.00    +0.000 C 
ATOM     11  O   UNL     1      45.871   5.195   8.496  0.00  0.00    +0.000 OA
ATOM     12  H   UNL     1      44.714   2.375   9.375  0.00  0.00    +0.000 HD
BRANCH  10  13
ATOM     13  C   UNL     1      46.309   3.098   7.541  0.00  0.00    +0.000 A 
ATOM     14  C   UNL     1      46.752   3.289   6.240  0.00  0.00    +0.000 A 
ATOM     15  C   UNL     1      47.329   2.080   5.782  0.00  0.00    +0.000 A 
ATOM     16  C   UNL     1      47.232   1.171   6.807  0.00  0.00    +0.000 A 
ATOM     17  N   UNL     1      46.622   1.790   7.864  0.00  0.00    +0.000 N 
ATOM     18  H   UNL     1      46.422   1.370   8.765  0.00  0.00    +0.000 HD
ENDBRANCH  10  13
ENDBRANCH   8   9
ENDBRANCH   5   8
ENDBRANCH   1   2
BRANCH   1  19
ATOM     19  N   UNL     1      48.237   5.840  15.105  0.00  0.00    +0.000 N 
ATOM     20  C   UNL     1      48.801   6.670  16.044  0.00  0.00    +0.000 C 
ATOM     21  O   UNL     1      48.490   6.667  17.227  0.00  0.00    +0.000 OA
ATOM     22  H   UNL     1      48.357   6.090  14.133  0.00  0.00    +0.000 HD
BRANCH  20  23
ATOM     23  C   UNL     1      49.868   7.534  15.528  0.00  0.00    +0.000 A 
ATOM     24  C   UNL     1      49.570   8.686  14.813  0.00  0.00    +0.000 A 
ATOM     25  S   UNL     1      50.961   9.566  14.349  0.00  0.00    +0.000 S 
ATOM     26  C   UNL     1      51.998   8.404  15.038  0.00  0.00    +0.000 A 
ATOM     27  N   UNL     1      53.352   8.533  14.972  0.00  0.00    +0.000 NA
ATOM     28  C   UNL     1      54.007   7.559  15.512  0.00  0.00    +0.000 A 
ATOM     29  N   UNL     1      53.435   6.472  16.118  0.00  0.00    +0.000 N 
ATOM     30  C   UNL     1      52.080   6.319  16.239  0.00  0.00    +0.000 A 
ATOM     31  O   UNL     1      51.605   5.368  16.852  0.00  0.00    +0.000 OA
ATOM     32  C   UNL     1      51.295   7.375  15.632  0.00  0.00    +0.000 A 
ATOM     33  H   UNL     1      54.000   5.752  16.544  0.00  0.00    +0.000 HD
ENDBRANCH  20  23
ENDBRANCH   1  19
BRANCH   1  34
ATOM     34  C   UNL     1      47.487   3.654  16.039  0.00  0.00    +0.000 C 
BRANCH  34  35
ATOM     35  N   UNL     1      46.734   3.340  17.259  0.00  0.00    +0.000 NA
ATOM     36  H   UNL     1      46.844   2.347  17.461  0.00  0.00    +0.000 HD
ATOM     37  H   UNL     1      45.739   3.490  17.094  0.00  0.00    +0.000 HD
ENDBRANCH  34  35
ENDBRANCH   1  34
TORSDOF 8
ENDMDL
MODEL 7
REMARK VINA RESULT:    -6.495      3.730      5.422
REMARK INTER + INTRA:         -10.655
REMARK INTER:                  -9.169
REMARK INTRA:                  -1.486
REMARK UNBOUND:                -1.312
REMARK  Name = 
REMARK  8 active torsions:
REMARK  status: ('A' for Active; 'I' for Inactive)
REMARK    1  A    between atoms: N_1  and  C_2
REMARK    2  A    between atoms: C_2  and  C_3
REMARK    3  A    between atoms: C_3  and  N_4
REMARK    4  A    between atoms: C_3  and  C_17
REMARK    5  A    between atoms: C_5  and  C_7
REMARK    6  A    between atoms: C_20  and  C_21
REMARK    7  A    between atoms: C_21  and  N_22
REMARK    8  A    between atoms: C_23  and  C_25
REMARK                            x       y       z     vdW  Elec       q    Type
REMARK                         _______ _______ _______ _____ _____    ______ ____
ROOT
ATOM      1  C   UNL     1      48.228   7.240  14.460  0.00  0.00    +0.000 C 
ENDROOT
BRANCH   1   2
ATOM      2  C   UNL     1      47.309   6.427  13.536  0.00  0.00    +0.000 A 
ATOM      3  C   UNL     1      46.813   6.989  12.350  0.00  0.00    +0.000 A 
ATOM      4  C   UNL     1      45.942   6.270  11.519  0.00  0.00    +0.000 A 
ATOM      5  C   UNL     1      45.542   4.967  11.851  0.00  0.00    +0.000 A 
ATOM      6  C   UNL     1      46.079   4.384  13.006  0.00  0.00    +0.000 A 
ATOM      7  C   UNL     1      46.948   5.103  13.838  0.00  0.00    +0.000 A 
BRANCH   5   8
ATOM      8  C   UNL     1      44.538   4.216  11.008  0.00  0.00    +0.000 C 
BRANCH   8   9
ATOM      9  N   UNL     1      45.158   3.304  10.078  0.00  0.00    +0.000 N 
ATOM     10  C   UNL     1      45.484   3.699   8.801  0.00  0.00    +0.000 C 
ATOM     11  O   UNL     1      45.247   4.825   8.378  0.00  0.00    +0.000 OA
ATOM     12  H   UNL     1      45.466   2.405  10.418  0.00  0.00    +0.000 HD
BRANCH  10  13
ATOM     13  C   UNL     1      46.130   2.687   7.987  0.00  0.00    +0.000 A 
ATOM     14  C   UNL     1      46.842   2.770   6.799  0.00  0.00    +0.000 A 
ATOM     15  C   UNL     1      47.264   1.468   6.440  0.00  0.00    +0.000 A 
ATOM     16  C   UNL     1      46.807   0.610   7.411  0.00  0.00    +0.000 A 
ATOM     17  N   UNL     1      46.130   1.350   8.342  0.00  0.00    +0.000 N 
ATOM     18  H   UNL     1      45.687   0.990   9.180  0.00  0.00    +0.000 HD
ENDBRANCH  10  13
ENDBRANCH   8   9
ENDBRANCH   5   8
ENDBRANCH   1   2
BRANCH   1  19
ATOM     19  N   UNL     1      49.380   7.675  13.689  0.00  0.00    +0.000 N 
ATOM     20  C   UNL     1      49.693   8.992  13.453  0.00  0.00    +0.000 C 
ATOM     21  O   UNL     1      49.127   9.933  13.995  0.00  0.00    +0.000 OA
ATOM     22  H   UNL     1      49.705   6.995  13.016  0.00  0.00    +0.000 HD
BRANCH  20  23
ATOM     23  C   UNL     1      50.818   9.195  12.535  0.00  0.00    +0.000 A 
ATOM     24  C   UNL     1      50.626   9.775  11.288  0.00  0.00    +0.000 A 
ATOM     25  S   UNL     1      52.076   9.958  10.402  0.00  0.00    +0.000 S 
ATOM     26  C   UNL     1      52.991   9.215  11.632  0.00  0.00    +0.000 A 
ATOM     27  N   UNL     1      54.333   9.026  11.503  0.00  0.00    +0.000 NA
ATOM     28  C   UNL     1      54.884   8.423  12.504  0.00  0.00    +0.000 A 
ATOM     29  N   UNL     1      54.221   7.999  13.625  0.00  0.00    +0.000 N 
ATOM     30  C   UNL     1      52.880   8.200  13.812  0.00  0.00    +0.000 A 
ATOM     31  O   UNL     1      52.333   7.871  14.861  0.00  0.00    +0.000 OA
ATOM     32  C   UNL     1      52.206   8.855  12.710  0.00  0.00    +0.000 A 
ATOM     33  H   UNL     1      54.711   7.553  14.387  0.00  0.00    +0.000 HD
ENDBRANCH  20  23
ENDBRANCH   1  19
BRANCH   1  34
ATOM     34  C   UNL     1      48.650   6.436  15.724  0.00  0.00    +0.000 C 
BRANCH  34  35
ATOM     35  N   UNL     1      50.101   6.298  15.902  0.00  0.00    +0.000 NA
ATOM     36  H   UNL     1      50.527   6.161  14.986  0.00  0.00    +0.000 HD
ATOM     37  H   UNL     1      50.299   5.454  16.439  0.00  0.00    +0.000 HD
ENDBRANCH  34  35
ENDBRANCH   1  34
TORSDOF 8
ENDMDL
MODEL 8
REMARK VINA RESULT:    -6.389      3.351      5.250
REMARK INTER + INTRA:         -10.503
REMARK INTER:                  -9.117
REMARK INTRA:                  -1.386
REMARK UNBOUND:                -1.312
REMARK  Name = 
REMARK  8 active torsions:
REMARK  status: ('A' for Active; 'I' for Inactive)
REMARK    1  A    between atoms: N_1  and  C_2
REMARK    2  A    between atoms: C_2  and  C_3
REMARK    3  A    between atoms: C_3  and  N_4
REMARK    4  A    between atoms: C_3  and  C_17
REMARK    5  A    between atoms: C_5  and  C_7
REMARK    6  A    between atoms: C_20  and  C_21
REMARK    7  A    between atoms: C_21  and  N_22
REMARK    8  A    between atoms: C_23  and  C_25
REMARK                            x       y       z     vdW  Elec       q    Type
REMARK                         _______ _______ _______ _____ _____    ______ ____
ROOT
ATOM      1  C   UNL     1      48.265   6.750  14.943  0.00  0.00    +0.000 C 
ENDROOT
BRANCH   1   2
ATOM      2  C   UNL     1      47.365   6.151  13.852  0.00  0.00    +0.000 A 
ATOM      3  C   UNL     1      47.138   6.846  12.655  0.00  0.00    +0.000 A 
ATOM      4  C   UNL     1      46.286   6.326  11.669  0.00  0.00    +0.000 A 
ATOM      5  C   UNL     1      45.638   5.097  11.853  0.00  0.00    +0.000 A 
ATOM      6  C   UNL     1      45.907   4.375  13.024  0.00  0.00    +0.000 A 
ATOM      7  C   UNL     1      46.755   4.895  14.010  0.00  0.00    +0.000 A 
BRANCH   5   8
ATOM      8  C   UNL     1      44.654   4.568  10.836  0.00  0.00    +0.000 C 
BRANCH   8   9
ATOM      9  N   UNL     1      45.230   3.578   9.959  0.00  0.00    +0.000 N 
ATOM     10  C   UNL     1      45.725   3.923   8.722  0.00  0.00    +0.000 C 
ATOM     11  O   UNL     1      45.681   5.068   8.290  0.00  0.00    +0.000 OA
ATOM     12  H   UNL     1      45.381   2.648  10.318  0.00  0.00    +0.000 HD
BRANCH  10  13
ATOM     13  C   UNL     1      46.303   2.831   7.963  0.00  0.00    +0.000 A 
ATOM     14  C   UNL     1      47.098   2.812   6.826  0.00  0.00    +0.000 A 
ATOM     15  C   UNL     1      47.389   1.465   6.506  0.00  0.00    +0.000 A 
ATOM     16  C   UNL     1      46.773   0.681   7.451  0.00  0.00    +0.000 A 
ATOM     17  N   UNL     1      46.124   1.508   8.327  0.00  0.00    +0.000 N 
ATOM     18  H   UNL     1      45.588   1.214   9.136  0.00  0.00    +0.000 HD
ENDBRANCH  10  13
ENDBRANCH   8   9
ENDBRANCH   5   8
ENDBRANCH   1   2
BRANCH   1  19
ATOM     19  N   UNL     1      49.537   7.110  14.338  0.00  0.00    +0.000 N 
ATOM     20  C   UNL     1      50.383   8.068  14.843  0.00  0.00    +0.000 C 
ATOM     21  O   UNL     1      50.230   8.605  15.932  0.00  0.00    +0.000 OA
ATOM     22  H   UNL     1      49.587   6.924  13.347  0.00  0.00    +0.000 HD
BRANCH  20  23
ATOM     23  C   UNL     1      51.541   8.364  13.993  0.00  0.00    +0.000 A 
ATOM     24  C   UNL     1      52.829   8.061  14.412  0.00  0.00    +0.000 A 
ATOM     25  S   UNL     1      54.021   8.447  13.248  0.00  0.00    +0.000 S 
ATOM     26  C   UNL     1      52.857   9.083  12.180  0.00  0.00    +0.000 A 
ATOM     27  N   UNL     1      53.213   9.617  10.979  0.00  0.00    +0.000 NA
ATOM     28  C   UNL     1      52.224  10.086  10.291  0.00  0.00    +0.000 A 
ATOM     29  N   UNL     1      50.913  10.064  10.688  0.00  0.00    +0.000 N 
ATOM     30  C   UNL     1      50.507   9.505  11.870  0.00  0.00    +0.000 A 
ATOM     31  O   UNL     1      49.316   9.439  12.160  0.00  0.00    +0.000 OA
ATOM     32  C   UNL     1      51.579   8.980  12.693  0.00  0.00    +0.000 A 
ATOM     33  H   UNL     1      50.180  10.425  10.097  0.00  0.00    +0.000 HD
ENDBRANCH  20  23
ENDBRANCH   1  19
BRANCH   1  34
ATOM     34  C   UNL     1      48.453   5.783  16.148  0.00  0.00    +0.000 C 
BRANCH  34  35
ATOM     35  N   UNL     1      48.291   6.411  17.465  0.00  0.00    +0.000 NA
ATOM     36  H   UNL     1      47.370   6.170  17.827  0.00  0.00    +0.000 HD
ATOM     37  H   UNL     1      48.303   7.426  17.361  0.00  0.00    +0.000 HD
ENDBRANCH  34  35
ENDBRANCH   1  34
TORSDOF 8
ENDMDL
MODEL 9
REMARK VINA RESULT:    -6.352      4.855      8.038
REMARK INTER + INTRA:         -10.450
REMARK INTER:                  -9.930
REMARK INTRA:                  -0.520
REMARK UNBOUND:                -1.312
REMARK  Name = 
REMARK  8 active torsions:
REMARK  status: ('A' for Active; 'I' for Inactive)
REMARK    1  A    between atoms: N_1  and  C_2
REMARK    2  A    between atoms: C_2  and  C_3
REMARK    3  A    between atoms: C_3  and  N_4
REMARK    4  A    between atoms: C_3  and  C_17
REMARK    5  A    between atoms: C_5  and  C_7
REMARK    6  A    between atoms: C_20  and  C_21
REMARK    7  A    between atoms: C_21  and  N_22
REMARK    8  A    between atoms: C_23  and  C_25
REMARK                            x       y       z     vdW  Elec       q    Type
REMARK                         _______ _______ _______ _____ _____    ______ ____
ROOT
ATOM      1  C   UNL     1      46.243   8.224  12.394  0.00  0.00    +0.000 C 
ENDROOT
BRANCH   1   2
ATOM      2  C   UNL     1      47.741   8.366  12.087  0.00  0.00    +0.000 A 
ATOM      3  C   UNL     1      48.294   9.623  11.797  0.00  0.00    +0.000 A 
ATOM      4  C   UNL     1      49.652   9.758  11.476  0.00  0.00    +0.000 A 
ATOM      5  C   UNL     1      50.497   8.639  11.434  0.00  0.00    +0.000 A 
ATOM      6  C   UNL     1      49.959   7.391  11.776  0.00  0.00    +0.000 A 
ATOM      7  C   UNL     1      48.602   7.255  12.095  0.00  0.00    +0.000 A 
BRANCH   5   8
ATOM      8  C   UNL     1      51.940   8.762  11.006  0.00  0.00    +0.000 C 
BRANCH   8   9
ATOM      9  N   UNL     1      52.252   7.958   9.849  0.00  0.00    +0.000 N 
ATOM     10  C   UNL     1      53.274   7.037   9.875  0.00  0.00    +0.000 C 
ATOM     11  O   UNL     1      53.984   6.867  10.860  0.00  0.00    +0.000 OA
ATOM     12  H   UNL     1      51.628   7.991   9.057  0.00  0.00    +0.000 HD
BRANCH  10  13
ATOM     13  C   UNL     1      53.454   6.279   8.652  0.00  0.00    +0.000 A 
ATOM     14  C   UNL     1      53.135   6.563   7.332  0.00  0.00    +0.000 A 
ATOM     15  C   UNL     1      53.539   5.470   6.529  0.00  0.00    +0.000 A 
ATOM     16  C   UNL     1      54.100   4.536   7.367  0.00  0.00    +0.000 A 
ATOM     17  N   UNL     1      54.050   5.030   8.642  0.00  0.00    +0.000 N 
ATOM     18  H   UNL     1      54.398   4.567   9.474  0.00  0.00    +0.000 HD
ENDBRANCH  10  13
ENDBRANCH   8   9
ENDBRANCH   5   8
ENDBRANCH   1   2
BRANCH   1  19
ATOM     19  N   UNL     1      45.812   6.906  11.963  0.00  0.00    +0.000 N 
ATOM     20  C   UNL     1      44.535   6.613  11.550  0.00  0.00    +0.000 C 
ATOM     21  O   UNL     1      43.673   7.459  11.354  0.00  0.00    +0.000 OA
ATOM     22  H   UNL     1      46.359   6.148  12.347  0.00  0.00    +0.000 HD
BRANCH  20  23
ATOM     23  C   UNL     1      44.290   5.190  11.295  0.00  0.00    +0.000 A 
ATOM     24  C   UNL     1      43.526   4.429  12.169  0.00  0.00    +0.000 A 
ATOM     25  S   UNL     1      43.330   2.810  11.655  0.00  0.00    +0.000 S 
ATOM     26  C   UNL     1      44.307   3.065  10.284  0.00  0.00    +0.000 A 
ATOM     27  N   UNL     1      44.577   2.058   9.408  0.00  0.00    +0.000 NA
ATOM     28  C   UNL     1      45.357   2.395   8.433  0.00  0.00    +0.000 A 
ATOM     29  N   UNL     1      45.884   3.646   8.249  0.00  0.00    +0.000 N 
ATOM     30  C   UNL     1      45.610   4.695   9.083  0.00  0.00    +0.000 A 
ATOM     31  O   UNL     1      46.043   5.820   8.846  0.00  0.00    +0.000 OA
ATOM     32  C   UNL     1      44.755   4.369  10.207  0.00  0.00    +0.000 A 
ATOM     33  H   UNL     1      46.469   3.855   7.454  0.00  0.00    +0.000 HD
ENDBRANCH  20  23
ENDBRANCH   1  19
BRANCH   1  34
ATOM     34  C   UNL     1      45.398   9.353  11.734  0.00  0.00    +0.000 C 
BRANCH  34  35
ATOM     35  N   UNL     1      44.479  10.040  12.649  0.00  0.00    +0.000 NA
ATOM     36  H   UNL     1      43.984   9.337  13.198  0.00  0.00    +0.000 HD
ATOM     37  H   UNL     1      43.769  10.535  12.110  0.00  0.00    +0.000 HD
ENDBRANCH  34  35
ENDBRANCH   1  34
TORSDOF 8
ENDMDL
