MODEL 1
REMARK VINA RESULT:    -7.433      0.000      0.000
REMARK INTER + INTRA:         -11.560
REMARK INTER:                 -10.692
REMARK INTRA:                  -0.868
REMARK UNBOUND:                -0.868
REMARK  Name = 
REMARK  8 active torsions:
REMARK  status: ('A' for Active; 'I' for Inactive)
REMARK    1  A    between atoms: N_1  and  C_2
REMARK    2  A    between atoms: C_2  and  C_3
REMARK    3  A    between atoms: C_3  and  N_4
REMARK    4  A    between atoms: N_4  and  C_5
REMARK    5  A    between atoms: C_5  and  C_6
REMARK    6  A    between atoms: C_9  and  C_10
REMARK    7  A    between atoms: C_10  and  N_11
REMARK    8  A    between atoms: C_12  and  C_14
REMARK                            x       y       z     vdW  Elec       q    Type
REMARK                         _______ _______ _______ _____ _____    ______ ____
ROOT
ATOM      1  C   UNL     1      44.280   4.193  12.561  0.00  0.00    +0.000 C 
ENDROOT
BRANCH   1   5
ATOM      2  C   UNL     1      45.368   3.710   8.471  0.00  0.00    +0.000 A 
ATOM      3  C   UNL     1      45.676   4.910   9.106  0.00  0.00    +0.000 A 
ATOM      4  C   UNL     1      45.324   5.079  10.441  0.00  0.00    +0.000 A 
ATOM      5  C   UNL     1      44.656   4.058  11.116  0.00  0.00    +0.000 A 
ATOM      6  C   UNL     1      44.397   2.889  10.410  0.00  0.00    +0.000 A 
ATOM      7  N   UNL     1      44.737   2.690   9.113  0.00  0.00    +0.000 NA
BRANCH   2   8
ATOM      8  C   UNL     1      45.792   3.479   7.035  0.00  0.00    +0.000 C 
BRANCH   8   9
ATOM      9  N   UNL     1      47.247   3.585   6.797  0.00  0.00    +0.000 NA
ATOM     10  H   UNL     1      47.356   3.835   5.810  0.00  0.00    +0.000 HD
BRANCH   9  11
ATOM     11  C   UNL     1      47.932   2.287   6.955  0.00  0.00    +0.000 C 
BRANCH  11  12
ATOM     12  C   UNL     1      47.027   1.068   6.697  0.00  0.00    +0.000 C 
BRANCH  12  13
ATOM     13  N   UNL     1      46.788   0.311   7.932  0.00  0.00    +0.000 NA
ATOM     14  H   UNL     1      47.441   0.634   8.646  0.00  0.00    +0.000 HD
ATOM     15  H   UNL     1      47.011  -0.670   7.767  0.00  0.00    +0.000 HD
ENDBRANCH  12  13
ENDBRANCH  11  12
ENDBRANCH   9  11
ENDBRANCH   8   9
ENDBRANCH   2   8
ENDBRANCH   1   5
BRANCH   1  16
ATOM     16  N   UNL     1      45.277   4.935  13.294  0.00  0.00    +0.000 N 
ATOM     17  C   UNL     1      46.365   4.304  13.839  0.00  0.00    +0.000 C 
ATOM     18  O   UNL     1      46.564   3.103  13.681  0.00  0.00    +0.000 OA
ATOM     19  H   UNL     1      45.018   5.858  13.629  0.00  0.00    +0.000 HD
BRANCH  17  20
ATOM     20  C   UNL     1      47.320   5.147  14.570  0.00  0.00    +0.000 A 
ATOM     21  C   UNL     1      47.968   6.182  13.909  0.00  0.00    +0.000 A 
ATOM     22  S   UNL     1      49.004   7.095  14.908  0.00  0.00    +0.000 S 
ATOM     23  C   UNL     1      48.665   6.107  16.252  0.00  0.00    +0.000 A 
ATOM     24  N   UNL     1      49.261   6.334  17.453  0.00  0.00    +0.000 NA
ATOM     25  C   UNL     1      48.939   5.491  18.377  0.00  0.00    +0.000 A 
ATOM     26  N   UNL     1      48.067   4.445  18.209  0.00  0.00    +0.000 N 
ATOM     27  C   UNL     1      47.420   4.195  17.023  0.00  0.00    +0.000 A 
ATOM     28  O   UNL     1      46.615   3.276  16.916  0.00  0.00    +0.000 OA
ATOM     29  C   UNL     1      47.758   5.107  15.946  0.00  0.00    +0.000 A 
ATOM     30  H   UNL     1      47.852   3.826  18.975  0.00  0.00    +0.000 HD
ENDBRANCH  17  20
ENDBRANCH   1  16
TORSDOF 8
ENDMDL
MODEL 2
REMARK VINA RESULT:    -7.060      1.740      2.519
REMARK INTER + INTRA:         -11.024
REMARK INTER:                 -10.349
REMARK INTRA:                  -0.675
REMARK UNBOUND:                -0.868
REMARK  Name = 
REMARK  8 active torsions:
REMARK  status: ('A' for Active; 'I' for Inactive)
REMARK    1  A    between atoms: N_1  and  C_2
REMARK    2  A    between atoms: C_2  and  C_3
REMARK    3  A    between atoms: C_3  and  N_4
REMARK    4  A    between atoms: N_4  and  C_5
REMARK    5  A    between atoms: C_5  and  C_6
REMARK    6  A    between atoms: C_9  and  C_10
REMARK    7  A    between atoms: C_10  and  N_11
REMARK    8  A    between atoms: C_12  and  C_14
REMARK                            x       y       z     vdW  Elec       q    Type
REMARK                         _______ _______ _______ _____ _____    ______ ____
ROOT
ATOM      1  C   UNL     1      46.209   7.178  12.683  0.00  0.00    +0.000 C 
ENDROOT
BRANCH   1   5
ATOM      2  C   UNL     1      44.943   3.818  10.390  0.00  0.00    +0.000 A 
ATOM      3  C   UNL     1      44.780   3.782  11.772  0.00  0.00    +0.000 A 
ATOM      4  C   UNL     1      45.191   4.873  12.531  0.00  0.00    +0.000 A 
ATOM      5  C   UNL     1      45.774   5.974  11.902  0.00  0.00    +0.000 A 
ATOM      6  C   UNL     1      45.889   5.931  10.518  0.00  0.00    +0.000 A 
ATOM      7  N   UNL     1      45.487   4.888   9.751  0.00  0.00    +0.000 NA
BRANCH   2   8
ATOM      8  C   UNL     1      44.451   2.667   9.536  0.00  0.00    +0.000 C 
BRANCH   8   9
ATOM      9  N   UNL     1      45.497   1.698   9.145  0.00  0.00    +0.000 NA
ATOM     10  H   UNL     1      46.217   1.749   9.872  0.00  0.00    +0.000 HD
BRANCH   9  11
ATOM     11  C   UNL     1      46.174   2.085   7.892  0.00  0.00    +0.000 C 
BRANCH  11  12
ATOM     12  C   UNL     1      47.139   1.016   7.347  0.00  0.00    +0.000 C 
BRANCH  12  13
ATOM     13  N   UNL     1      48.235   1.627   6.583  0.00  0.00    +0.000 NA
ATOM     14  H   UNL     1      48.752   0.889   6.106  0.00  0.00    +0.000 HD
ATOM     15  H   UNL     1      48.891   2.057   7.234  0.00  0.00    +0.000 HD
ENDBRANCH  12  13
ENDBRANCH  11  12
ENDBRANCH   9  11
ENDBRANCH   8   9
ENDBRANCH   2   8
ENDBRANCH   1   5
BRANCH   1  16
ATOM     16  N   UNL     1      46.787   6.799  13.949  0.00  0.00    +0.000 N 
ATOM     17  C   UNL     1      48.118   6.486  14.050  0.00  0.00    +0.000 C 
ATOM     18  O   UNL     1      48.879   6.571  13.089  0.00  0.00    +0.000 OA
ATOM     19  H   UNL     1      46.150   6.501  14.682  0.00  0.00    +0.000 HD
BRANCH  17  20
ATOM     20  C   UNL     1      48.609   6.108  15.382  0.00  0.00    +0.000 A 
ATOM     21  C   UNL     1      49.624   6.847  15.975  0.00  0.00    +0.000 A 
ATOM     22  S   UNL     1      50.042   6.309  17.537  0.00  0.00    +0.000 S 
ATOM     23  C   UNL     1      48.918   5.035  17.459  0.00  0.00    +0.000 A 
ATOM     24  N   UNL     1      48.784   4.157  18.489  0.00  0.00    +0.000 NA
ATOM     25  C   UNL     1      47.918   3.221  18.284  0.00  0.00    +0.000 A 
ATOM     26  N   UNL     1      47.168   3.089  17.143  0.00  0.00    +0.000 N 
ATOM     27  C   UNL     1      47.248   3.967  16.090  0.00  0.00    +0.000 A 
ATOM     28  O   UNL     1      46.534   3.845  15.100  0.00  0.00    +0.000 OA
ATOM     29  C   UNL     1      48.219   5.032  16.264  0.00  0.00    +0.000 A 
ATOM     30  H   UNL     1      46.502   2.337  17.048  0.00  0.00    +0.000 HD
ENDBRANCH  17  20
ENDBRANCH   1  16
TORSDOF 8
ENDMDL
MODEL 3
REMARK VINA RESULT:    -6.875      3.862      8.257
REMARK INTER + INTRA:         -10.758
REMARK INTER:                  -9.774
REMARK INTRA:                  -0.985
REMARK UNBOUND:                -0.868
REMARK  Name = 
REMARK  8 active torsions:
REMARK  status: ('A' for Active; 'I' for Inactive)
REMARK    1  A    between atoms: N_1  and  C_2
REMARK    2  A    between atoms: C_2  and  C_3
REMARK    3  A    between atoms: C_3  and  N_4
REMARK    4  A    between atoms: N_4  and  C_5
REMARK    5  A    between atoms: C_5  and  C_6
REMARK    6  A    between atoms: C_9  and  C_10
REMARK    7  A    between atoms: C_10  and  N_11
REMARK    8  A    between atoms: C_12  and  C_14
REMARK                            x       y       z     vdW  Elec       q    Type
REMARK                         _______ _______ _______ _____ _____    ______ ____
ROOT
ATOM      1  C   UNL     1      47.147   3.369  16.840  0.00  0.00    +0.000 C 
ENDROOT
BRANCH   1   5
ATOM      2  C   UNL     1      51.309   3.510  17.737  0.00  0.00    +0.000 A 
ATOM      3  C   UNL     1      50.559   4.676  17.868  0.00  0.00    +0.000 A 
ATOM      4  C   UNL     1      49.199   4.641  17.577  0.00  0.00    +0.000 A 
ATOM      5  C   UNL     1      48.613   3.452  17.142  0.00  0.00    +0.000 A 
ATOM      6  C   UNL     1      49.434   2.334  17.049  0.00  0.00    +0.000 A 
ATOM      7  N   UNL     1      50.758   2.333  17.337  0.00  0.00    +0.000 NA
BRANCH   2   8
ATOM      8  C   UNL     1      52.780   3.508  18.104  0.00  0.00    +0.000 C 
BRANCH   8   9
ATOM      9  N   UNL     1      53.189   2.406  19.001  0.00  0.00    +0.000 NA
ATOM     10  H   UNL     1      53.671   2.847  19.790  0.00  0.00    +0.000 HD
BRANCH   9  11
ATOM     11  C   UNL     1      54.187   1.519  18.373  0.00  0.00    +0.000 C 
BRANCH  11  12
ATOM     12  C   UNL     1      53.613   0.173  17.893  0.00  0.00    +0.000 C 
BRANCH  12  13
ATOM     13  N   UNL     1      52.226  -0.005  18.342  0.00  0.00    +0.000 NA
ATOM     14  H   UNL     1      51.841  -0.836  17.895  0.00  0.00    +0.000 HD
ATOM     15  H   UNL     1      51.668   0.781  18.008  0.00  0.00    +0.000 HD
ENDBRANCH  12  13
ENDBRANCH  11  12
ENDBRANCH   9  11
ENDBRANCH   8   9
ENDBRANCH   2   8
ENDBRANCH   1   5
BRANCH   1  16
ATOM     16  N   UNL     1      46.754   4.372  15.881  0.00  0.00    +0.000 N 
ATOM     17  C   UNL     1      46.879   4.148  14.534  0.00  0.00    +0.000 C 
ATOM     18  O   UNL     1      47.273   3.072  14.091  0.00  0.00    +0.000 OA
ATOM     19  H   UNL     1      46.654   5.325  16.219  0.00  0.00    +0.000 HD
BRANCH  17  20
ATOM     20  C   UNL     1      46.456   5.234  13.641  0.00  0.00    +0.000 A 
ATOM     21  C   UNL     1      47.315   6.298  13.399  0.00  0.00    +0.000 A 
ATOM     22  S   UNL     1      46.694   7.447  12.304  0.00  0.00    +0.000 S 
ATOM     23  C   UNL     1      45.232   6.591  12.151  0.00  0.00    +0.000 A 
ATOM     24  N   UNL     1      44.229   7.058  11.360  0.00  0.00    +0.000 NA
ATOM     25  C   UNL     1      43.164   6.327  11.361  0.00  0.00    +0.000 A 
ATOM     26  N   UNL     1      43.015   5.167  12.077  0.00  0.00    +0.000 N 
ATOM     27  C   UNL     1      44.010   4.643  12.866  0.00  0.00    +0.000 A 
ATOM     28  O   UNL     1      43.859   3.581  13.462  0.00  0.00    +0.000 OA
ATOM     29  C   UNL     1      45.225   5.434  12.911  0.00  0.00    +0.000 A 
ATOM     30  H   UNL     1      42.157   4.638  12.028  0.00  0.00    +0.000 HD
ENDBRANCH  17  20
ENDBRANCH   1  16
TORSDOF 8
ENDMDL
MODEL 4
REMARK VINA RESULT:    -6.818      1.875      2.831
REMARK INTER + INTRA:         -10.675
REMARK INTER:                  -9.744
REMARK INTRA:                  -0.931
REMARK UNBOUND:                -0.868
REMARK  Name = 
REMARK  8 active torsions:
REMARK  status: ('A' for Active; 'I' for Inactive)
REMARK    1  A    between atoms: N_1  and  C_2
REMARK    2  A    between atoms: C_2  and  C_3
REMARK    3  A    between atoms: C_3  and  N_4
REMARK    4  A    between atoms: N_4  and  C_5
REMARK    5  A    between atoms: C_5  and  C_6
REMARK    6  A    between atoms: C_9  and  C_10
REMARK    7  A    between atoms: C_10  and  N_11
REMARK    8  A    between atoms: C_12  and  C_14
REMARK                            x       y       z     vdW  Elec       q    Type
REMARK                         _______ _______ _______ _____ _____    ______ ____
ROOT
ATOM      1  C   UNL     1      44.416   5.083  12.673  0.00  0.00    +0.000 C 
ENDROOT
BRANCH   1   5
ATOM      2  C   UNL     1      45.398   3.878   8.707  0.00  0.00    +0.000 A 
ATOM      3  C   UNL     1      44.795   2.952   9.555  0.00  0.00    +0.000 A 
ATOM      4  C   UNL     1      44.472   3.335  10.853  0.00  0.00    +0.000 A 
ATOM      5  C   UNL     1      44.769   4.626  11.289  0.00  0.00    +0.000 A 
ATOM      6  C   UNL     1      45.361   5.488  10.374  0.00  0.00    +0.000 A 
ATOM      7  N   UNL     1      45.677   5.149   9.101  0.00  0.00    +0.000 NA
BRANCH   2   8
ATOM      8  C   UNL     1      45.707   3.503   7.271  0.00  0.00    +0.000 C 
BRANCH   8   9
ATOM      9  N   UNL     1      47.109   3.735   6.863  0.00  0.00    +0.000 NA
ATOM     10  H   UNL     1      47.074   4.021   5.880  0.00  0.00    +0.000 HD
BRANCH   9  11
ATOM     11  C   UNL     1      47.908   2.495   6.886  0.00  0.00    +0.000 C 
BRANCH  11  12
ATOM     12  C   UNL     1      47.091   1.220   6.609  0.00  0.00    +0.000 C 
BRANCH  12  13
ATOM     13  N   UNL     1      47.133   0.300   7.753  0.00  0.00    +0.000 NA
ATOM     14  H   UNL     1      46.786  -0.611   7.453  0.00  0.00    +0.000 HD
ATOM     15  H   UNL     1      46.484   0.631   8.465  0.00  0.00    +0.000 HD
ENDBRANCH  12  13
ENDBRANCH  11  12
ENDBRANCH   9  11
ENDBRANCH   8   9
ENDBRANCH   2   8
ENDBRANCH   1   5
BRANCH   1  16
ATOM     16  N   UNL     1      45.557   5.662  13.340  0.00  0.00    +0.000 N 
ATOM     17  C   UNL     1      46.471   4.871  13.987  0.00  0.00    +0.000 C 
ATOM     18  O   UNL     1      46.390   3.645  13.977  0.00  0.00    +0.000 OA
ATOM     19  H   UNL     1      45.516   6.653  13.557  0.00  0.00    +0.000 HD
BRANCH  17  20
ATOM     20  C   UNL     1      47.594   5.557  14.639  0.00  0.00    +0.000 A 
ATOM     21  C   UNL     1      47.896   5.271  15.964  0.00  0.00    +0.000 A 
ATOM     22  S   UNL     1      49.255   6.113  16.555  0.00  0.00    +0.000 S 
ATOM     23  C   UNL     1      49.459   6.930  15.077  0.00  0.00    +0.000 A 
ATOM     24  N   UNL     1      50.455   7.843  14.916  0.00  0.00    +0.000 NA
ATOM     25  C   UNL     1      50.475   8.411  13.756  0.00  0.00    +0.000 A 
ATOM     26  N   UNL     1      49.593   8.143  12.741  0.00  0.00    +0.000 N 
ATOM     27  C   UNL     1      48.590   7.210  12.849  0.00  0.00    +0.000 A 
ATOM     28  O   UNL     1      47.842   6.965  11.908  0.00  0.00    +0.000 OA
ATOM     29  C   UNL     1      48.515   6.551  14.139  0.00  0.00    +0.000 A 
ATOM     30  H   UNL     1      49.668   8.619  11.854  0.00  0.00    +0.000 HD
ENDBRANCH  17  20
ENDBRANCH   1  16
TORSDOF 8
ENDMDL
MODEL 5
REMARK VINA RESULT:    -6.800      2.065      3.322
REMARK INTER + INTRA:         -10.650
REMARK INTER:                  -9.620
REMARK INTRA:                  -1.030
REMARK UNBOUND:                -0.868
REMARK  Name = 
REMARK  8 active torsions:
REMARK  status: ('A' for Active; 'I' for Inactive)
REMARK    1  A    between atoms: N_1  and  C_2
REMARK    2  A    between atoms: C_2  and  C_3
REMARK    3  A    between atoms: C_3  and  N_4
REMARK    4  A    between atoms: N_4  and  C_5
REMARK    5  A    between atoms: C_5  and  C_6
REMARK    6  A    between atoms: C_9  and  C_10
REMARK    7  A    between atoms: C_10  and  N_11
REMARK    8  A    between atoms: C_12  and  C_14
REMARK                            x       y       z     vdW  Elec       q    Type
REMARK                         _______ _______ _______ _____ _____    ______ ____
ROOT
ATOM      1  C   UNL     1      47.142   7.978  13.313  0.00  0.00    +0.000 C 
ENDROOT
BRANCH   1   5
ATOM      2  C   UNL     1      44.641   5.453  10.965  0.00  0.00    +0.000 A 
ATOM      3  C   UNL     1      45.902   5.783  10.476  0.00  0.00    +0.000 A 
ATOM      4  C   UNL     1      46.726   6.608  11.234  0.00  0.00    +0.000 A 
ATOM      5  C   UNL     1      46.274   7.105  12.457  0.00  0.00    +0.000 A 
ATOM      6  C   UNL     1      45.006   6.716  12.874  0.00  0.00    +0.000 A 
ATOM      7  N   UNL     1      44.185   5.905  12.163  0.00  0.00    +0.000 NA
BRANCH   2   8
ATOM      8  C   UNL     1      43.747   4.509  10.185  0.00  0.00    +0.000 C 
BRANCH   8   9
ATOM      9  N   UNL     1      44.146   4.305   8.776  0.00  0.00    +0.000 NA
ATOM     10  H   UNL     1      43.287   4.378   8.224  0.00  0.00    +0.000 HD
BRANCH   9  11
ATOM     11  C   UNL     1      44.658   2.943   8.534  0.00  0.00    +0.000 C 
BRANCH  11  12
ATOM     12  C   UNL     1      46.010   2.905   7.797  0.00  0.00    +0.000 C 
BRANCH  12  13
ATOM     13  N   UNL     1      46.368   4.228   7.271  0.00  0.00    +0.000 NA
ATOM     14  H   UNL     1      46.118   4.934   7.963  0.00  0.00    +0.000 HD
ATOM     15  H   UNL     1      45.796   4.422   6.449  0.00  0.00    +0.000 HD
ENDBRANCH  12  13
ENDBRANCH  11  12
ENDBRANCH   9  11
ENDBRANCH   8   9
ENDBRANCH   2   8
ENDBRANCH   1   5
BRANCH   1  16
ATOM     16  N   UNL     1      47.512   7.309  14.536  0.00  0.00    +0.000 N 
ATOM     17  C   UNL     1      48.789   6.847  14.728  0.00  0.00    +0.000 C 
ATOM     18  O   UNL     1      49.677   7.033  13.899  0.00  0.00    +0.000 OA
ATOM     19  H   UNL     1      46.761   6.946  15.115  0.00  0.00    +0.000 HD
BRANCH  17  20
ATOM     20  C   UNL     1      49.065   6.175  16.005  0.00  0.00    +0.000 A 
ATOM     21  C   UNL     1      50.087   6.644  16.820  0.00  0.00    +0.000 A 
ATOM     22  S   UNL     1      50.243   5.787  18.285  0.00  0.00    +0.000 S 
ATOM     23  C   UNL     1      48.984   4.724  17.861  0.00  0.00    +0.000 A 
ATOM     24  N   UNL     1      48.618   3.710  18.689  0.00  0.00    +0.000 NA
ATOM     25  C   UNL     1      47.671   2.961  18.230  0.00  0.00    +0.000 A 
ATOM     26  N   UNL     1      47.052   3.140  17.019  0.00  0.00    +0.000 N 
ATOM     27  C   UNL     1      47.369   4.167  16.163  0.00  0.00    +0.000 A 
ATOM     28  O   UNL     1      46.769   4.325  15.105  0.00  0.00    +0.000 OA
ATOM     29  C   UNL     1      48.438   5.032  16.626  0.00  0.00    +0.000 A 
ATOM     30  H   UNL     1      46.313   2.522  16.722  0.00  0.00    +0.000 HD
ENDBRANCH  17  20
ENDBRANCH   1  16
TORSDOF 8
ENDMDL
MODEL 6
REMARK VINA RESULT:    -6.411      4.271      7.863
REMARK INTER + INTRA:         -10.090
REMARK INTER:                  -9.240
REMARK INTRA:                  -0.850
REMARK UNBOUND:                -0.868
REMARK  Name = 
REMARK  8 active torsions:
REMARK  status: ('A' for Active; 'I' for Inactive)
REMARK    1  A    between atoms: N_1  and  C_2
REMARK    2  A    between atoms: C_2  and  C_3
REMARK    3  A    between atoms: C_3  and  N_4
REMARK    4  A    between atoms: N_4  and  C_5
REMARK    5  A    between atoms: C_5  and  C_6
REMARK    6  A    between atoms: C_9  and  C_10
REMARK    7  A    between atoms: C_10  and  N_11
REMARK    8  A    between atoms: C_12  and  C_14
REMARK                            x       y       z     vdW  Elec       q    Type
REMARK                         _______ _______ _______ _____ _____    ______ ____
ROOT
ATOM      1  C   UNL     1      47.220   3.696  16.884  0.00  0.00    +0.000 C 
ENDROOT
BRANCH   1   5
ATOM      2  C   UNL     1      51.267   2.518  17.498  0.00  0.00    +0.000 A 
ATOM      3  C   UNL     1      50.846   3.744  18.006  0.00  0.00    +0.000 A 
ATOM      4  C   UNL     1      49.526   4.139  17.810  0.00  0.00    +0.000 A 
ATOM      5  C   UNL     1      48.654   3.315  17.097  0.00  0.00    +0.000 A 
ATOM      6  C   UNL     1      49.156   2.104  16.635  0.00  0.00    +0.000 A 
ATOM      7  N   UNL     1      50.432   1.687  16.819  0.00  0.00    +0.000 NA
BRANCH   2   8
ATOM      8  C   UNL     1      52.683   2.039  17.748  0.00  0.00    +0.000 C 
BRANCH   8   9
ATOM      9  N   UNL     1      52.781   0.707  18.383  0.00  0.00    +0.000 NA
ATOM     10  H   UNL     1      52.748   0.872  19.393  0.00  0.00    +0.000 HD
BRANCH   9  11
ATOM     11  C   UNL     1      54.083   0.063  18.128  0.00  0.00    +0.000 C 
BRANCH  11  12
ATOM     12  C   UNL     1      54.574   0.200  16.674  0.00  0.00    +0.000 C 
BRANCH  12  13
ATOM     13  N   UNL     1      54.129  -0.932  15.852  0.00  0.00    +0.000 NA
ATOM     14  H   UNL     1      54.948  -1.456  15.545  0.00  0.00    +0.000 HD
ATOM     15  H   UNL     1      53.689  -0.571  15.006  0.00  0.00    +0.000 HD
ENDBRANCH  12  13
ENDBRANCH  11  12
ENDBRANCH   9  11
ENDBRANCH   8   9
ENDBRANCH   2   8
ENDBRANCH   1   5
BRANCH   1  16
ATOM     16  N   UNL     1      47.092   4.702  15.858  0.00  0.00    +0.000 N 
ATOM     17  C   UNL     1      47.098   4.359  14.531  0.00  0.00    +0.000 C 
ATOM     18  O   UNL     1      47.153   3.188  14.164  0.00  0.00    +0.000 OA
ATOM     19  H   UNL     1      47.280   5.664  16.124  0.00  0.00    +0.000 HD
BRANCH  17  20
ATOM     20  C   UNL     1      46.968   5.457  13.564  0.00  0.00    +0.000 A 
ATOM     21  C   UNL     1      45.933   5.437  12.638  0.00  0.00    +0.000 A 
ATOM     22  S   UNL     1      45.893   6.806  11.623  0.00  0.00    +0.000 S 
ATOM     23  C   UNL     1      47.289   7.452  12.350  0.00  0.00    +0.000 A 
ATOM     24  N   UNL     1      47.819   8.629  11.920  0.00  0.00    +0.000 NA
ATOM     25  C   UNL     1      48.895   8.987  12.537  0.00  0.00    +0.000 A 
ATOM     26  N   UNL     1      49.487   8.276  13.550  0.00  0.00    +0.000 N 
ATOM     27  C   UNL     1      48.973   7.098  14.035  0.00  0.00    +0.000 A 
ATOM     28  O   UNL     1      49.503   6.506  14.969  0.00  0.00    +0.000 OA
ATOM     29  C   UNL     1      47.768   6.643  13.366  0.00  0.00    +0.000 A 
ATOM     30  H   UNL     1      50.326   8.615  13.996  0.00  0.00    +0.000 HD
ENDBRANCH  17  20
ENDBRANCH   1  16
TORSDOF 8
ENDMDL
MODEL 7
REMARK VINA RESULT:    -6.329      2.281      3.651
REMARK INTER + INTRA:          -9.973
REMARK INTER:                  -9.274
REMARK INTRA:                  -0.699
REMARK UNBOUND:                -0.868
REMARK  Name = 
REMARK  8 active torsions:
REMARK  status: ('A' for Active; 'I' for Inactive)
REMARK    1  A    between atoms: N_1  and  C_2
REMARK    2  A    between atoms: C_2  and  C_3
REMARK    3  A    between atoms: C_3  and  N_4
REMARK    4  A    between atoms: N_4  and  C_5
REMARK    5  A    between atoms: C_5  and  C_6
REMARK    6  A    between atoms: C_9  and  C_10
REMARK    7  A    between atoms: C_10  and  N_11
REMARK    8  A    between atoms: C_12  and  C_14
REMARK                            x       y       z     vdW  Elec       q    Type
REMARK                         _______ _______ _______ _____ _____    ______ ____
ROOT
ATOM      1  C   UNL     1      48.045   6.454  13.519  0.00  0.00    +0.000 C 
ENDROOT
BRANCH   1   5
ATOM      2  C   UNL     1      44.863   4.117  11.920  0.00  0.00    +0.000 A 
ATOM      3  C   UNL     1      45.098   5.379  11.382  0.00  0.00    +0.000 A 
ATOM      4  C   UNL     1      46.134   6.152  11.898  0.00  0.00    +0.000 A 
ATOM      5  C   UNL     1      46.906   5.661  12.952  0.00  0.00    +0.000 A 
ATOM      6  C   UNL     1      46.609   4.387  13.420  0.00  0.00    +0.000 A 
ATOM      7  N   UNL     1      45.615   3.606  12.931  0.00  0.00    +0.000 NA
BRANCH   2   8
ATOM      8  C   UNL     1      43.778   3.233  11.337  0.00  0.00    +0.000 C 
BRANCH   8   9
ATOM      9  N   UNL     1      43.712   3.232   9.860  0.00  0.00    +0.000 NA
ATOM     10  H   UNL     1      42.810   2.813   9.616  0.00  0.00    +0.000 HD
BRANCH   9  11
ATOM     11  C   UNL     1      44.732   2.352   9.258  0.00  0.00    +0.000 C 
BRANCH  11  12
ATOM     12  C   UNL     1      45.597   3.041   8.185  0.00  0.00    +0.000 C 
BRANCH  12  13
ATOM     13  N   UNL     1      45.311   4.479   8.113  0.00  0.00    +0.000 NA
ATOM     14  H   UNL     1      44.431   4.663   8.593  0.00  0.00    +0.000 HD
ATOM     15  H   UNL     1      45.161   4.737   7.138  0.00  0.00    +0.000 HD
ENDBRANCH  12  13
ENDBRANCH  11  12
ENDBRANCH   9  11
ENDBRANCH   8   9
ENDBRANCH   2   8
ENDBRANCH   1   5
BRANCH   1  16
ATOM     16  N   UNL     1      47.928   6.584  14.952  0.00  0.00    +0.000 N 
ATOM     17  C   UNL     1      49.044   6.661  15.745  0.00  0.00    +0.000 C 
ATOM     18  O   UNL     1      50.177   6.681  15.270  0.00  0.00    +0.000 OA
ATOM     19  H   UNL     1      47.036   6.338  15.371  0.00  0.00    +0.000 HD
BRANCH  17  20
ATOM     20  C   UNL     1      48.819   6.787  17.191  0.00  0.00    +0.000 A 
ATOM     21  C   UNL     1      48.519   8.030  17.734  0.00  0.00    +0.000 A 
ATOM     22  S   UNL     1      48.238   7.995  19.414  0.00  0.00    +0.000 S 
ATOM     23  C   UNL     1      48.558   6.326  19.489  0.00  0.00    +0.000 A 
ATOM     24  N   UNL     1      48.513   5.659  20.673  0.00  0.00    +0.000 NA
ATOM     25  C   UNL     1      48.807   4.404  20.590  0.00  0.00    +0.000 A 
ATOM     26  N   UNL     1      49.136   3.755  19.427  0.00  0.00    +0.000 N 
ATOM     27  C   UNL     1      49.166   4.381  18.205  0.00  0.00    +0.000 A 
ATOM     28  O   UNL     1      49.425   3.764  17.177  0.00  0.00    +0.000 OA
ATOM     29  C   UNL     1      48.856   5.798  18.244  0.00  0.00    +0.000 A 
ATOM     30  H   UNL     1      49.350   2.769  19.430  0.00  0.00    +0.000 HD
ENDBRANCH  17  20
ENDBRANCH   1  16
TORSDOF 8
ENDMDL
MODEL 8
REMARK VINA RESULT:    -6.243      3.786      5.958
REMARK INTER + INTRA:          -9.849
REMARK INTER:                  -9.012
REMARK INTRA:                  -0.837
REMARK UNBOUND:                -0.868
REMARK  Name = 
REMARK  8 active torsions:
REMARK  status: ('A' for Active; 'I' for Inactive)
REMARK    1  A    between atoms: N_1  and  C_2
REMARK    2  A    between atoms: C_2  and  C_3
REMARK    3  A    between atoms: C_3  and  N_4
REMARK    4  A    between atoms: N_4  and  C_5
REMARK    5  A    between atoms: C_5  and  C_6
REMARK    6  A    between atoms: C_9  and  C_10
REMARK    7  A    between atoms: C_10  and  N_11
REMARK    8  A    between atoms: C_12  and  C_14
REMARK                            x       y       z     vdW  Elec       q    Type
REMARK                         _______ _______ _______ _____ _____    ______ ____
ROOT
ATOM      1  C   UNL     1      49.009   6.620  16.171  0.00  0.00    +0.000 C 
ENDROOT
BRANCH   1   5
ATOM      2  C   UNL     1      46.406   4.471  13.573  0.00  0.00    +0.000 A 
ATOM      3  C   UNL     1      47.004   5.636  13.102  0.00  0.00    +0.000 A 
ATOM      4  C   UNL     1      47.855   6.347  13.943  0.00  0.00    +0.000 A 
ATOM      5  C   UNL     1      48.082   5.894  15.243  0.00  0.00    +0.000 A 
ATOM      6  C   UNL     1      47.453   4.716  15.627  0.00  0.00    +0.000 A 
ATOM      7  N   UNL     1      46.628   3.996  14.828  0.00  0.00    +0.000 NA
BRANCH   2   8
ATOM      8  C   UNL     1      45.521   3.648  12.658  0.00  0.00    +0.000 C 
BRANCH   8   9
ATOM      9  N   UNL     1      44.079   3.712  12.976  0.00  0.00    +0.000 NA
ATOM     10  H   UNL     1      43.855   2.834  13.454  0.00  0.00    +0.000 HD
BRANCH   9  11
ATOM     11  C   UNL     1      43.241   3.725  11.761  0.00  0.00    +0.000 C 
BRANCH  11  12
ATOM     12  C   UNL     1      43.141   5.107  11.087  0.00  0.00    +0.000 C 
BRANCH  12  13
ATOM     13  N   UNL     1      42.175   5.969  11.778  0.00  0.00    +0.000 NA
ATOM     14  H   UNL     1      42.322   5.884  12.784  0.00  0.00    +0.000 HD
ATOM     15  H   UNL     1      41.234   5.619  11.599  0.00  0.00    +0.000 HD
ENDBRANCH  12  13
ENDBRANCH  11  12
ENDBRANCH   9  11
ENDBRANCH   8   9
ENDBRANCH   2   8
ENDBRANCH   1   5
BRANCH   1  16
ATOM     16  N   UNL     1      50.081   5.763  16.615  0.00  0.00    +0.000 N 
ATOM     17  C   UNL     1      50.247   5.471  17.945  0.00  0.00    +0.000 C 
ATOM     18  O   UNL     1      49.463   5.877  18.799  0.00  0.00    +0.000 OA
ATOM     19  H   UNL     1      50.856   5.615  15.974  0.00  0.00    +0.000 HD
BRANCH  17  20
ATOM     20  C   UNL     1      51.371   4.593  18.294  0.00  0.00    +0.000 A 
ATOM     21  C   UNL     1      52.437   5.102  19.026  0.00  0.00    +0.000 A 
ATOM     22  S   UNL     1      53.633   3.944  19.391  0.00  0.00    +0.000 S 
ATOM     23  C   UNL     1      52.796   2.731  18.539  0.00  0.00    +0.000 A 
ATOM     24  N   UNL     1      53.303   1.473  18.438  0.00  0.00    +0.000 NA
ATOM     25  C   UNL     1      52.582   0.663  17.738  0.00  0.00    +0.000 A 
ATOM     26  N   UNL     1      51.395   0.995  17.135  0.00  0.00    +0.000 N 
ATOM     27  C   UNL     1      50.832   2.244  17.235  0.00  0.00    +0.000 A 
ATOM     28  O   UNL     1      49.749   2.499  16.718  0.00  0.00    +0.000 OA
ATOM     29  C   UNL     1      51.610   3.200  18.001  0.00  0.00    +0.000 A 
ATOM     30  H   UNL     1      50.876   0.311  16.607  0.00  0.00    +0.000 HD
ENDBRANCH  17  20
ENDBRANCH   1  16
TORSDOF 8
ENDMDL
MODEL 9
REMARK VINA RESULT:    -6.117      2.688      4.163
REMARK INTER + INTRA:          -9.668
REMARK INTER:                  -8.953
REMARK INTRA:                  -0.715
REMARK UNBOUND:                -0.868
REMARK  Name = 
REMARK  8 active torsions:
REMARK  status: ('A' for Active; 'I' for Inactive)
REMARK    1  A    between atoms: N_1  and  C_2
REMARK    2  A    between atoms: C_2  and  C_3
REMARK    3  A    between atoms: C_3  and  N_4
REMARK    4  A    between atoms: N_4  and  C_5
REMARK    5  A    between atoms: C_5  and  C_6
REMARK    6  A    between atoms: C_9  and  C_10
REMARK    7  A    between atoms: C_10  and  N_11
REMARK    8  A    between atoms: C_12  and  C_14
REMARK                            x       y       z     vdW  Elec       q    Type
REMARK                         _______ _______ _______ _____ _____    ______ ____
ROOT
ATOM      1  C   UNL     1      47.992   6.277  13.881  0.00  0.00    +0.000 C 
ENDROOT
BRANCH   1   5
ATOM      2  C   UNL     1      44.727   4.479  11.820  0.00  0.00    +0.000 A 
ATOM      3  C   UNL     1      45.194   5.714  11.379  0.00  0.00    +0.000 A 
ATOM      4  C   UNL     1      46.259   6.311  12.046  0.00  0.00    +0.000 A 
ATOM      5  C   UNL     1      46.829   5.676  13.150  0.00  0.00    +0.000 A 
ATOM      6  C   UNL     1      46.307   4.441  13.515  0.00  0.00    +0.000 A 
ATOM      7  N   UNL     1      45.279   3.829  12.879  0.00  0.00    +0.000 NA
BRANCH   2   8
ATOM      8  C   UNL     1      43.606   3.781  11.076  0.00  0.00    +0.000 C 
BRANCH   8   9
ATOM      9  N   UNL     1      43.960   2.451  10.534  0.00  0.00    +0.000 NA
ATOM     10  H   UNL     1      44.414   1.945  11.300  0.00  0.00    +0.000 HD
BRANCH   9  11
ATOM     11  C   UNL     1      44.970   2.538   9.462  0.00  0.00    +0.000 C 
BRANCH  11  12
ATOM     12  C   UNL     1      44.614   3.541   8.348  0.00  0.00    +0.000 C 
BRANCH  12  13
ATOM     13  N   UNL     1      45.730   4.458   8.080  0.00  0.00    +0.000 NA
ATOM     14  H   UNL     1      45.354   5.330   7.708  0.00  0.00    +0.000 HD
ATOM     15  H   UNL     1      46.312   4.062   7.343  0.00  0.00    +0.000 HD
ENDBRANCH  12  13
ENDBRANCH  11  12
ENDBRANCH   9  11
ENDBRANCH   8   9
ENDBRANCH   2   8
ENDBRANCH   1   5
BRANCH   1  16
ATOM     16  N   UNL     1      47.842   6.136  15.308  0.00  0.00    +0.000 N 
ATOM     17  C   UNL     1      48.926   6.229  16.143  0.00  0.00    +0.000 C 
ATOM     18  O   UNL     1      50.050   6.490  15.721  0.00  0.00    +0.000 OA
ATOM     19  H   UNL     1      46.991   5.698  15.646  0.00  0.00    +0.000 HD
BRANCH  17  20
ATOM     20  C   UNL     1      48.669   6.065  17.580  0.00  0.00    +0.000 A 
ATOM     21  C   UNL     1      48.853   4.823  18.173  0.00  0.00    +0.000 A 
ATOM     22  S   UNL     1      48.561   4.814  19.853  0.00  0.00    +0.000 S 
ATOM     23  C   UNL     1      48.127   6.459  19.841  0.00  0.00    +0.000 A 
ATOM     24  N   UNL     1      47.735   7.086  20.982  0.00  0.00    +0.000 NA
ATOM     25  C   UNL     1      47.404   8.324  20.824  0.00  0.00    +0.000 A 
ATOM     26  N   UNL     1      47.436   8.994  19.628  0.00  0.00    +0.000 N 
ATOM     27  C   UNL     1      47.851   8.410  18.456  0.00  0.00    +0.000 A 
ATOM     28  O   UNL     1      47.907   9.048  17.409  0.00  0.00    +0.000 OA
ATOM     29  C   UNL     1      48.223   7.012  18.575  0.00  0.00    +0.000 A 
ATOM     30  H   UNL     1      47.170   9.965  19.574  0.00  0.00    +0.000 HD
ENDBRANCH  17  20
ENDBRANCH   1  16
TORSDOF 8
ENDMDL
