MODEL 1
REMARK VINA RESULT:    -8.171      0.000      0.000
REMARK INTER + INTRA:         -11.074
REMARK INTER:                 -10.559
REMARK INTRA:                  -0.514
REMARK UNBOUND:                -0.514
REMARK  Name = 
REMARK  6 active torsions:
REMARK  status: ('A' for Active; 'I' for Inactive)
REMARK    1  A    between atoms: C_1  and  C_2
REMARK    2  A    between atoms: C_2  and  N_3
REMARK    3  A    between atoms: C_2  and  C_16
REMARK    4  A    between atoms: C_4  and  C_6
REMARK    5  A    between atoms: C_19  and  O_20
REMARK    6  A    between atoms: O_20  and  C_21
REMARK                            x       y       z     vdW  Elec       q    Type
REMARK                         _______ _______ _______ _____ _____    ______ ____
ROOT
ATOM      1  C   UNL     1      45.610   9.066  12.756  0.00  0.00    +0.000 C 
ATOM      2  C   UNL     1      46.599   7.897  12.698  0.00  0.00    +0.000 C 
ENDROOT
BRANCH   2   3
ATOM      3  C   UNL     1      46.002   6.753  11.892  0.00  0.00    +0.000 A 
ATOM      4  C   UNL     1      44.983   5.963  12.437  0.00  0.00    +0.000 A 
ATOM      5  C   UNL     1      44.402   4.940  11.687  0.00  0.00    +0.000 A 
ATOM      6  C   UNL     1      44.797   4.721  10.365  0.00  0.00    +0.000 A 
ATOM      7  C   UNL     1      45.844   5.468   9.827  0.00  0.00    +0.000 A 
ATOM      8  C   UNL     1      46.442   6.479  10.583  0.00  0.00    +0.000 A 
BRANCH   6   9
ATOM      9  O   UNL     1      44.257   3.748   9.555  0.00  0.00    +0.000 OA
BRANCH   9  10
ATOM     10  C   UNL     1      45.096   3.110   8.650  0.00  0.00    +0.000 A 
ATOM     11  N   UNL     1      45.523   1.856   8.900  0.00  0.00    +0.000 NA
ATOM     12  C   UNL     1      46.376   1.328   8.006  0.00  0.00    +0.000 A 
ATOM     13  C   UNL     1      46.783   1.985   6.870  0.00  0.00    +0.000 A 
ATOM     14  C   UNL     1      46.251   3.240   6.688  0.00  0.00    +0.000 A 
ATOM     15  N   UNL     1      45.406   3.826   7.557  0.00  0.00    +0.000 NA
ENDBRANCH   9  10
ENDBRANCH   6   9
ENDBRANCH   2   3
BRANCH   2  16
ATOM     16  N   UNL     1      46.981   7.404  14.013  0.00  0.00    +0.000 N 
ATOM     17  C   UNL     1      48.153   6.734  14.249  0.00  0.00    +0.000 C 
ATOM     18  O   UNL     1      49.004   6.556  13.383  0.00  0.00    +0.000 OA
ATOM     19  H   UNL     1      46.211   7.235  14.655  0.00  0.00    +0.000 HD
BRANCH  17  20
ATOM     20  C   UNL     1      48.384   6.301  15.631  0.00  0.00    +0.000 A 
ATOM     21  C   UNL     1      48.955   7.182  16.540  0.00  0.00    +0.000 A 
ATOM     22  S   UNL     1      49.142   6.528  18.103  0.00  0.00    +0.000 S 
ATOM     23  C   UNL     1      48.508   5.027  17.609  0.00  0.00    +0.000 A 
ATOM     24  N   UNL     1      48.426   3.981  18.475  0.00  0.00    +0.000 NA
ATOM     25  C   UNL     1      47.955   2.896  17.957  0.00  0.00    +0.000 A 
ATOM     26  N   UNL     1      47.553   2.764  16.653  0.00  0.00    +0.000 N 
ATOM     27  C   UNL     1      47.586   3.803  15.752  0.00  0.00    +0.000 A 
ATOM     28  O   UNL     1      47.165   3.675  14.606  0.00  0.00    +0.000 OA
ATOM     29  C   UNL     1      48.131   5.037  16.279  0.00  0.00    +0.000 A 
ATOM     30  H   UNL     1      47.178   1.890  16.311  0.00  0.00    +0.000 HD
ENDBRANCH  17  20
ENDBRANCH   2  16
TORSDOF 5
ENDMDL
MODEL 2
REMARK VINA RESULT:    -7.759      2.816      4.287
REMARK INTER + INTRA:         -10.541
REMARK INTER:                  -9.669
REMARK INTRA:                  -0.872
REMARK UNBOUND:                -0.514
REMARK  Name = 
REMARK  6 active torsions:
REMARK  status: ('A' for Active; 'I' for Inactive)
REMARK    1  A    between atoms: C_1  and  C_2
REMARK    2  A    between atoms: C_2  and  N_3
REMARK    3  A    between atoms: C_2  and  C_16
REMARK    4  A    between atoms: C_4  and  C_6
REMARK    5  A    between atoms: C_19  and  O_20
REMARK    6  A    between atoms: O_20  and  C_21
REMARK                            x       y       z     vdW  Elec       q    Type
REMARK                         _______ _______ _______ _____ _____    ______ ____
ROOT
ATOM      1  C   UNL     1      46.575   4.694  14.569  0.00  0.00    +0.000 C 
ATOM      2  C   UNL     1      46.145   5.720  13.515  0.00  0.00    +0.000 C 
ENDROOT
BRANCH   2   3
ATOM      3  C   UNL     1      45.680   5.006  12.256  0.00  0.00    +0.000 A 
ATOM      4  C   UNL     1      45.656   5.682  11.030  0.00  0.00    +0.000 A 
ATOM      5  C   UNL     1      45.272   5.020   9.863  0.00  0.00    +0.000 A 
ATOM      6  C   UNL     1      44.951   3.661   9.895  0.00  0.00    +0.000 A 
ATOM      7  C   UNL     1      44.922   2.989  11.116  0.00  0.00    +0.000 A 
ATOM      8  C   UNL     1      45.287   3.654  12.288  0.00  0.00    +0.000 A 
BRANCH   6   9
ATOM      9  O   UNL     1      44.584   2.935   8.785  0.00  0.00    +0.000 OA
BRANCH   9  10
ATOM     10  C   UNL     1      45.587   2.502   7.926  0.00  0.00    +0.000 A 
ATOM     11  N   UNL     1      46.245   1.355   8.185  0.00  0.00    +0.000 NA
ATOM     12  C   UNL     1      47.238   1.033   7.340  0.00  0.00    +0.000 A 
ATOM     13  C   UNL     1      47.567   1.786   6.239  0.00  0.00    +0.000 A 
ATOM     14  C   UNL     1      46.802   2.912   6.040  0.00  0.00    +0.000 A 
ATOM     15  N   UNL     1      45.807   3.293   6.863  0.00  0.00    +0.000 NA
ENDBRANCH   9  10
ENDBRANCH   6   9
ENDBRANCH   2   3
BRANCH   2  16
ATOM     16  N   UNL     1      47.200   6.660  13.167  0.00  0.00    +0.000 N 
ATOM     17  C   UNL     1      47.002   8.015  13.096  0.00  0.00    +0.000 C 
ATOM     18  O   UNL     1      45.934   8.547  13.385  0.00  0.00    +0.000 OA
ATOM     19  H   UNL     1      47.967   6.273  12.623  0.00  0.00    +0.000 HD
BRANCH  17  20
ATOM     20  C   UNL     1      48.170   8.821  12.728  0.00  0.00    +0.000 A 
ATOM     21  C   UNL     1      48.020   9.892  11.858  0.00  0.00    +0.000 A 
ATOM     22  S   UNL     1      49.471  10.730  11.545  0.00  0.00    +0.000 S 
ATOM     23  C   UNL     1      50.361   9.663  12.528  0.00  0.00    +0.000 A 
ATOM     24  N   UNL     1      51.708   9.797  12.667  0.00  0.00    +0.000 NA
ATOM     25  C   UNL     1      52.258   8.900  13.416  0.00  0.00    +0.000 A 
ATOM     26  N   UNL     1      51.582   7.887  14.046  0.00  0.00    +0.000 N 
ATOM     27  C   UNL     1      50.218   7.734  13.962  0.00  0.00    +0.000 A 
ATOM     28  O   UNL     1      49.628   6.853  14.582  0.00  0.00    +0.000 OA
ATOM     29  C   UNL     1      49.557   8.702  13.110  0.00  0.00    +0.000 A 
ATOM     30  H   UNL     1      52.069   7.224  14.632  0.00  0.00    +0.000 HD
ENDBRANCH  17  20
ENDBRANCH   2  16
TORSDOF 5
ENDMDL
MODEL 3
REMARK VINA RESULT:    -7.693      2.079      2.765
REMARK INTER + INTRA:         -10.456
REMARK INTER:                  -9.389
REMARK INTRA:                  -1.067
REMARK UNBOUND:                -0.514
REMARK  Name = 
REMARK  6 active torsions:
REMARK  status: ('A' for Active; 'I' for Inactive)
REMARK    1  A    between atoms: C_1  and  C_2
REMARK    2  A    between atoms: C_2  and  N_3
REMARK    3  A    between atoms: C_2  and  C_16
REMARK    4  A    between atoms: C_4  and  C_6
REMARK    5  A    between atoms: C_19  and  O_20
REMARK    6  A    between atoms: O_20  and  C_21
REMARK                            x       y       z     vdW  Elec       q    Type
REMARK                         _______ _______ _______ _____ _____    ______ ____
ROOT
ATOM      1  C   UNL     1      47.567   8.952  14.033  0.00  0.00    +0.000 C 
ATOM      2  C   UNL     1      47.895   7.458  13.947  0.00  0.00    +0.000 C 
ENDROOT
BRANCH   2   3
ATOM      3  C   UNL     1      46.902   6.760  13.030  0.00  0.00    +0.000 A 
ATOM      4  C   UNL     1      46.208   7.490  12.057  0.00  0.00    +0.000 A 
ATOM      5  C   UNL     1      45.329   6.850  11.184  0.00  0.00    +0.000 A 
ATOM      6  C   UNL     1      45.164   5.463  11.239  0.00  0.00    +0.000 A 
ATOM      7  C   UNL     1      45.810   4.732  12.235  0.00  0.00    +0.000 A 
ATOM      8  C   UNL     1      46.676   5.374  13.123  0.00  0.00    +0.000 A 
BRANCH   6   9
ATOM      9  O   UNL     1      44.333   4.757  10.400  0.00  0.00    +0.000 OA
BRANCH   9  10
ATOM     10  C   UNL     1      44.913   3.893   9.479  0.00  0.00    +0.000 A 
ATOM     11  N   UNL     1      44.819   2.560   9.657  0.00  0.00    +0.000 NA
ATOM     12  C   UNL     1      45.453   1.792   8.756  0.00  0.00    +0.000 A 
ATOM     13  C   UNL     1      46.136   2.300   7.678  0.00  0.00    +0.000 A 
ATOM     14  C   UNL     1      46.131   3.671   7.564  0.00  0.00    +0.000 A 
ATOM     15  N   UNL     1      45.527   4.491   8.445  0.00  0.00    +0.000 NA
ENDBRANCH   9  10
ENDBRANCH   6   9
ENDBRANCH   2   3
BRANCH   2  16
ATOM     16  N   UNL     1      47.892   6.796  15.244  0.00  0.00    +0.000 N 
ATOM     17  C   UNL     1      49.034   6.362  15.865  0.00  0.00    +0.000 C 
ATOM     18  O   UNL     1      50.156   6.558  15.407  0.00  0.00    +0.000 OA
ATOM     19  H   UNL     1      47.022   6.334  15.495  0.00  0.00    +0.000 HD
BRANCH  17  20
ATOM     20  C   UNL     1      48.856   5.712  17.167  0.00  0.00    +0.000 A 
ATOM     21  C   UNL     1      49.099   4.350  17.294  0.00  0.00    +0.000 A 
ATOM     22  S   UNL     1      48.856   3.756  18.873  0.00  0.00    +0.000 S 
ATOM     23  C   UNL     1      48.374   5.289  19.434  0.00  0.00    +0.000 A 
ATOM     24  N   UNL     1      47.983   5.472  20.724  0.00  0.00    +0.000 NA
ATOM     25  C   UNL     1      47.613   6.678  21.003  0.00  0.00    +0.000 A 
ATOM     26  N   UNL     1      47.608   7.719  20.110  0.00  0.00    +0.000 N 
ATOM     27  C   UNL     1      48.028   7.588  18.807  0.00  0.00    +0.000 A 
ATOM     28  O   UNL     1      48.069   8.548  18.043  0.00  0.00    +0.000 OA
ATOM     29  C   UNL     1      48.428   6.246  18.438  0.00  0.00    +0.000 A 
ATOM     30  H   UNL     1      47.321   8.645  20.395  0.00  0.00    +0.000 HD
ENDBRANCH  17  20
ENDBRANCH   2  16
TORSDOF 5
ENDMDL
MODEL 4
REMARK VINA RESULT:    -7.446      3.232      7.801
REMARK INTER + INTRA:         -10.137
REMARK INTER:                  -9.087
REMARK INTRA:                  -1.049
REMARK UNBOUND:                -0.514
REMARK  Name = 
REMARK  6 active torsions:
REMARK  status: ('A' for Active; 'I' for Inactive)
REMARK    1  A    between atoms: C_1  and  C_2
REMARK    2  A    between atoms: C_2  and  N_3
REMARK    3  A    between atoms: C_2  and  C_16
REMARK    4  A    between atoms: C_4  and  C_6
REMARK    5  A    between atoms: C_19  and  O_20
REMARK    6  A    between atoms: O_20  and  C_21
REMARK                            x       y       z     vdW  Elec       q    Type
REMARK                         _______ _______ _______ _____ _____    ______ ____
ROOT
ATOM      1  C   UNL     1      49.358   7.944  12.581  0.00  0.00    +0.000 C 
ATOM      2  C   UNL     1      48.131   7.360  13.290  0.00  0.00    +0.000 C 
ENDROOT
BRANCH   2   3
ATOM      3  C   UNL     1      48.550   6.701  14.594  0.00  0.00    +0.000 A 
ATOM      4  C   UNL     1      47.784   5.663  15.138  0.00  0.00    +0.000 A 
ATOM      5  C   UNL     1      48.187   5.024  16.312  0.00  0.00    +0.000 A 
ATOM      6  C   UNL     1      49.385   5.382  16.935  0.00  0.00    +0.000 A 
ATOM      7  C   UNL     1      50.131   6.447  16.432  0.00  0.00    +0.000 A 
ATOM      8  C   UNL     1      49.720   7.101  15.268  0.00  0.00    +0.000 A 
BRANCH   6   9
ATOM      9  O   UNL     1      49.860   4.786  18.081  0.00  0.00    +0.000 OA
BRANCH   9  10
ATOM     10  C   UNL     1      50.765   3.740  17.948  0.00  0.00    +0.000 A 
ATOM     11  N   UNL     1      50.403   2.618  17.296  0.00  0.00    +0.000 NA
ATOM     12  C   UNL     1      51.313   1.630  17.258  0.00  0.00    +0.000 A 
ATOM     13  C   UNL     1      52.567   1.738  17.808  0.00  0.00    +0.000 A 
ATOM     14  C   UNL     1      52.851   2.942  18.408  0.00  0.00    +0.000 A 
ATOM     15  N   UNL     1      51.973   3.960  18.492  0.00  0.00    +0.000 NA
ENDBRANCH   9  10
ENDBRANCH   6   9
ENDBRANCH   2   3
BRANCH   2  16
ATOM     16  N   UNL     1      47.408   6.392  12.478  0.00  0.00    +0.000 N 
ATOM     17  C   UNL     1      46.299   6.715  11.739  0.00  0.00    +0.000 C 
ATOM     18  O   UNL     1      45.868   7.860  11.652  0.00  0.00    +0.000 OA
ATOM     19  H   UNL     1      47.511   5.421  12.762  0.00  0.00    +0.000 HD
BRANCH  17  20
ATOM     20  C   UNL     1      45.686   5.620  10.980  0.00  0.00    +0.000 A 
ATOM     21  C   UNL     1      45.794   5.600   9.596  0.00  0.00    +0.000 A 
ATOM     22  S   UNL     1      45.039   4.255   8.869  0.00  0.00    +0.000 S 
ATOM     23  C   UNL     1      44.502   3.675  10.377  0.00  0.00    +0.000 A 
ATOM     24  N   UNL     1      43.743   2.549  10.464  0.00  0.00    +0.000 NA
ATOM     25  C   UNL     1      43.381   2.243  11.666  0.00  0.00    +0.000 A 
ATOM     26  N   UNL     1      43.716   2.956  12.788  0.00  0.00    +0.000 N 
ATOM     27  C   UNL     1      44.509   4.079  12.750  0.00  0.00    +0.000 A 
ATOM     28  O   UNL     1      44.843   4.667  13.775  0.00  0.00    +0.000 OA
ATOM     29  C   UNL     1      44.921   4.479  11.420  0.00  0.00    +0.000 A 
ATOM     30  H   UNL     1      43.413   2.655  13.703  0.00  0.00    +0.000 HD
ENDBRANCH  17  20
ENDBRANCH   2  16
TORSDOF 5
ENDMDL
MODEL 5
REMARK VINA RESULT:    -7.402      3.441      5.295
REMARK INTER + INTRA:         -10.080
REMARK INTER:                  -8.863
REMARK INTRA:                  -1.216
REMARK UNBOUND:                -0.514
REMARK  Name = 
REMARK  6 active torsions:
REMARK  status: ('A' for Active; 'I' for Inactive)
REMARK    1  A    between atoms: C_1  and  C_2
REMARK    2  A    between atoms: C_2  and  N_3
REMARK    3  A    between atoms: C_2  and  C_16
REMARK    4  A    between atoms: C_4  and  C_6
REMARK    5  A    between atoms: C_19  and  O_20
REMARK    6  A    between atoms: O_20  and  C_21
REMARK                            x       y       z     vdW  Elec       q    Type
REMARK                         _______ _______ _______ _____ _____    ______ ____
ROOT
ATOM      1  C   UNL     1      48.069   6.569  18.573  0.00  0.00    +0.000 C 
ATOM      2  C   UNL     1      49.028   6.193  17.438  0.00  0.00    +0.000 C 
ENDROOT
BRANCH   2   3
ATOM      3  C   UNL     1      48.257   5.542  16.301  0.00  0.00    +0.000 A 
ATOM      4  C   UNL     1      48.165   6.178  15.057  0.00  0.00    +0.000 A 
ATOM      5  C   UNL     1      47.496   5.566  13.996  0.00  0.00    +0.000 A 
ATOM      6  C   UNL     1      46.948   4.289  14.149  0.00  0.00    +0.000 A 
ATOM      7  C   UNL     1      46.990   3.667  15.395  0.00  0.00    +0.000 A 
ATOM      8  C   UNL     1      47.642   4.286  16.464  0.00  0.00    +0.000 A 
BRANCH   6   9
ATOM      9  O   UNL     1      46.294   3.613  13.145  0.00  0.00    +0.000 OA
BRANCH   9  10
ATOM     10  C   UNL     1      45.164   4.201  12.588  0.00  0.00    +0.000 A 
ATOM     11  N   UNL     1      45.204   4.666  11.325  0.00  0.00    +0.000 NA
ATOM     12  C   UNL     1      44.091   5.271  10.877  0.00  0.00    +0.000 A 
ATOM     13  C   UNL     1      42.945   5.392  11.624  0.00  0.00    +0.000 A 
ATOM     14  C   UNL     1      42.995   4.841  12.883  0.00  0.00    +0.000 A 
ATOM     15  N   UNL     1      44.087   4.239  13.391  0.00  0.00    +0.000 NA
ENDBRANCH   9  10
ENDBRANCH   6   9
ENDBRANCH   2   3
BRANCH   2  16
ATOM     16  N   UNL     1      50.095   5.298  17.864  0.00  0.00    +0.000 N 
ATOM     17  C   UNL     1      51.347   5.307  17.304  0.00  0.00    +0.000 C 
ATOM     18  O   UNL     1      51.686   6.116  16.446  0.00  0.00    +0.000 OA
ATOM     19  H   UNL     1      49.789   4.436  18.307  0.00  0.00    +0.000 HD
BRANCH  17  20
ATOM     20  C   UNL     1      52.304   4.338  17.847  0.00  0.00    +0.000 A 
ATOM     21  C   UNL     1      53.463   4.789  18.465  0.00  0.00    +0.000 A 
ATOM     22  S   UNL     1      54.459   3.537  19.050  0.00  0.00    +0.000 S 
ATOM     23  C   UNL     1      53.400   2.344  18.457  0.00  0.00    +0.000 A 
ATOM     24  N   UNL     1      53.687   1.021  18.592  0.00  0.00    +0.000 NA
ATOM     25  C   UNL     1      52.812   0.229  18.068  0.00  0.00    +0.000 A 
ATOM     26  N   UNL     1      51.670   0.641  17.429  0.00  0.00    +0.000 N 
ATOM     27  C   UNL     1      51.322   1.965  17.301  0.00  0.00    +0.000 A 
ATOM     28  O   UNL     1      50.265   2.305  16.776  0.00  0.00    +0.000 OA
ATOM     29  C   UNL     1      52.287   2.895  17.850  0.00  0.00    +0.000 A 
ATOM     30  H   UNL     1      51.015  -0.031  17.053  0.00  0.00    +0.000 HD
ENDBRANCH  17  20
ENDBRANCH   2  16
TORSDOF 5
ENDMDL
MODEL 6
REMARK VINA RESULT:    -7.192      2.720      4.299
REMARK INTER + INTRA:          -9.809
REMARK INTER:                  -9.658
REMARK INTRA:                  -0.151
REMARK UNBOUND:                -0.514
REMARK  Name = 
REMARK  6 active torsions:
REMARK  status: ('A' for Active; 'I' for Inactive)
REMARK    1  A    between atoms: C_1  and  C_2
REMARK    2  A    between atoms: C_2  and  N_3
REMARK    3  A    between atoms: C_2  and  C_16
REMARK    4  A    between atoms: C_4  and  C_6
REMARK    5  A    between atoms: C_19  and  O_20
REMARK    6  A    between atoms: O_20  and  C_21
REMARK                            x       y       z     vdW  Elec       q    Type
REMARK                         _______ _______ _______ _____ _____    ______ ____
ROOT
ATOM      1  C   UNL     1      46.680   4.549  14.539  0.00  0.00    +0.000 C 
ATOM      2  C   UNL     1      45.892   5.531  13.666  0.00  0.00    +0.000 C 
ENDROOT
BRANCH   2   3
ATOM      3  C   UNL     1      45.601   4.903  12.312  0.00  0.00    +0.000 A 
ATOM      4  C   UNL     1      45.222   3.558  12.225  0.00  0.00    +0.000 A 
ATOM      5  C   UNL     1      44.912   2.987  10.990  0.00  0.00    +0.000 A 
ATOM      6  C   UNL     1      44.931   3.764   9.829  0.00  0.00    +0.000 A 
ATOM      7  C   UNL     1      45.354   5.090   9.894  0.00  0.00    +0.000 A 
ATOM      8  C   UNL     1      45.685   5.658  11.127  0.00  0.00    +0.000 A 
BRANCH   6   9
ATOM      9  O   UNL     1      44.618   3.280   8.579  0.00  0.00    +0.000 OA
BRANCH   9  10
ATOM     10  C   UNL     1      45.658   2.854   7.762  0.00  0.00    +0.000 A 
ATOM     11  N   UNL     1      46.044   3.612   6.717  0.00  0.00    +0.000 NA
ATOM     12  C   UNL     1      47.018   3.107   5.942  0.00  0.00    +0.000 A 
ATOM     13  C   UNL     1      47.636   1.906   6.192  0.00  0.00    +0.000 A 
ATOM     14  C   UNL     1      47.199   1.235   7.310  0.00  0.00    +0.000 A 
ATOM     15  N   UNL     1      46.216   1.684   8.113  0.00  0.00    +0.000 NA
ENDBRANCH   9  10
ENDBRANCH   6   9
ENDBRANCH   2   3
BRANCH   2  16
ATOM     16  N   UNL     1      46.580   6.798  13.466  0.00  0.00    +0.000 N 
ATOM     17  C   UNL     1      47.928   6.888  13.232  0.00  0.00    +0.000 C 
ATOM     18  O   UNL     1      48.649   5.903  13.108  0.00  0.00    +0.000 OA
ATOM     19  H   UNL     1      46.123   7.611  13.869  0.00  0.00    +0.000 HD
BRANCH  17  20
ATOM     20  C   UNL     1      48.465   8.241  13.055  0.00  0.00    +0.000 A 
ATOM     21  C   UNL     1      48.618   8.758  11.776  0.00  0.00    +0.000 A 
ATOM     22  S   UNL     1      49.241  10.344  11.747  0.00  0.00    +0.000 S 
ATOM     23  C   UNL     1      49.371  10.381  13.444  0.00  0.00    +0.000 A 
ATOM     24  N   UNL     1      49.884  11.466  14.085  0.00  0.00    +0.000 NA
ATOM     25  C   UNL     1      49.953  11.344  15.369  0.00  0.00    +0.000 A 
ATOM     26  N   UNL     1      49.546  10.238  16.070  0.00  0.00    +0.000 N 
ATOM     27  C   UNL     1      48.990   9.134  15.468  0.00  0.00    +0.000 A 
ATOM     28  O   UNL     1      48.581   8.180  16.124  0.00  0.00    +0.000 OA
ATOM     29  C   UNL     1      48.916   9.212  14.024  0.00  0.00    +0.000 A 
ATOM     30  H   UNL     1      49.612  10.211  17.078  0.00  0.00    +0.000 HD
ENDBRANCH  17  20
ENDBRANCH   2  16
TORSDOF 5
ENDMDL
MODEL 7
REMARK VINA RESULT:    -7.080      2.816      4.439
REMARK INTER + INTRA:          -9.663
REMARK INTER:                  -8.608
REMARK INTRA:                  -1.056
REMARK UNBOUND:                -0.514
REMARK  Name = 
REMARK  6 active torsions:
REMARK  status: ('A' for Active; 'I' for Inactive)
REMARK    1  A    between atoms: C_1  and  C_2
REMARK    2  A    between atoms: C_2  and  N_3
REMARK    3  A    between atoms: C_2  and  C_16
REMARK    4  A    between atoms: C_4  and  C_6
REMARK    5  A    between atoms: C_19  and  O_20
REMARK    6  A    between atoms: O_20  and  C_21
REMARK                            x       y       z     vdW  Elec       q    Type
REMARK                         _______ _______ _______ _____ _____    ______ ____
ROOT
ATOM      1  C   UNL     1      47.274   4.497  15.532  0.00  0.00    +0.000 C 
ATOM      2  C   UNL     1      47.157   5.634  14.511  0.00  0.00    +0.000 C 
ENDROOT
BRANCH   2   3
ATOM      3  C   UNL     1      46.509   5.121  13.235  0.00  0.00    +0.000 A 
ATOM      4  C   UNL     1      46.000   3.818  13.177  0.00  0.00    +0.000 A 
ATOM      5  C   UNL     1      45.366   3.355  12.024  0.00  0.00    +0.000 A 
ATOM      6  C   UNL     1      45.189   4.203  10.927  0.00  0.00    +0.000 A 
ATOM      7  C   UNL     1      45.734   5.485  10.953  0.00  0.00    +0.000 A 
ATOM      8  C   UNL     1      46.387   5.944  12.099  0.00  0.00    +0.000 A 
BRANCH   6   9
ATOM      9  O   UNL     1      44.556   3.827   9.764  0.00  0.00    +0.000 OA
BRANCH   9  10
ATOM     10  C   UNL     1      45.321   3.245   8.761  0.00  0.00    +0.000 A 
ATOM     11  N   UNL     1      45.611   1.930   8.816  0.00  0.00    +0.000 NA
ATOM     12  C   UNL     1      46.402   1.453   7.840  0.00  0.00    +0.000 A 
ATOM     13  C   UNL     1      46.876   2.224   6.807  0.00  0.00    +0.000 A 
ATOM     14  C   UNL     1      46.481   3.542   6.820  0.00  0.00    +0.000 A 
ATOM     15  N   UNL     1      45.705   4.079   7.781  0.00  0.00    +0.000 NA
ENDBRANCH   9  10
ENDBRANCH   6   9
ENDBRANCH   2   3
BRANCH   2  16
ATOM     16  N   UNL     1      48.438   6.243  14.184  0.00  0.00    +0.000 N 
ATOM     17  C   UNL     1      48.965   7.299  14.882  0.00  0.00    +0.000 C 
ATOM     18  O   UNL     1      48.428   7.770  15.880  0.00  0.00    +0.000 OA
ATOM     19  H   UNL     1      48.745   6.122  13.222  0.00  0.00    +0.000 HD
BRANCH  17  20
ATOM     20  C   UNL     1      50.264   7.796  14.420  0.00  0.00    +0.000 A 
ATOM     21  C   UNL     1      51.383   7.652  15.229  0.00  0.00    +0.000 A 
ATOM     22  S   UNL     1      52.813   8.271  14.538  0.00  0.00    +0.000 S 
ATOM     23  C   UNL     1      51.979   8.796  13.150  0.00  0.00    +0.000 A 
ATOM     24  N   UNL     1      52.625   9.458  12.153  0.00  0.00    +0.000 NA
ATOM     25  C   UNL     1      51.864   9.825  11.176  0.00  0.00    +0.000 A 
ATOM     26  N   UNL     1      50.516   9.580  11.103  0.00  0.00    +0.000 N 
ATOM     27  C   UNL     1      49.829   8.884  12.070  0.00  0.00    +0.000 A 
ATOM     28  O   UNL     1      48.634   8.628  11.953  0.00  0.00    +0.000 OA
ATOM     29  C   UNL     1      50.636   8.474  13.201  0.00  0.00    +0.000 A 
ATOM     30  H   UNL     1      49.978   9.881  10.302  0.00  0.00    +0.000 HD
ENDBRANCH  17  20
ENDBRANCH   2  16
TORSDOF 5
ENDMDL
MODEL 8
REMARK VINA RESULT:    -6.985      2.921      8.364
REMARK INTER + INTRA:          -9.541
REMARK INTER:                  -8.383
REMARK INTRA:                  -1.158
REMARK UNBOUND:                -0.514
REMARK  Name = 
REMARK  6 active torsions:
REMARK  status: ('A' for Active; 'I' for Inactive)
REMARK    1  A    between atoms: C_1  and  C_2
REMARK    2  A    between atoms: C_2  and  N_3
REMARK    3  A    between atoms: C_2  and  C_16
REMARK    4  A    between atoms: C_4  and  C_6
REMARK    5  A    between atoms: C_19  and  O_20
REMARK    6  A    between atoms: O_20  and  C_21
REMARK                            x       y       z     vdW  Elec       q    Type
REMARK                         _______ _______ _______ _____ _____    ______ ____
ROOT
ATOM      1  C   UNL     1      49.308   7.765  11.529  0.00  0.00    +0.000 C 
ATOM      2  C   UNL     1      48.009   7.776  12.343  0.00  0.00    +0.000 C 
ENDROOT
BRANCH   2   3
ATOM      3  C   UNL     1      48.329   7.857  13.828  0.00  0.00    +0.000 A 
ATOM      4  C   UNL     1      49.055   6.833  14.449  0.00  0.00    +0.000 A 
ATOM      5  C   UNL     1      49.389   6.921  15.801  0.00  0.00    +0.000 A 
ATOM      6  C   UNL     1      49.043   8.055  16.541  0.00  0.00    +0.000 A 
ATOM      7  C   UNL     1      48.278   9.058  15.948  0.00  0.00    +0.000 A 
ATOM      8  C   UNL     1      47.925   8.962  14.600  0.00  0.00    +0.000 A 
BRANCH   6   9
ATOM      9  O   UNL     1      49.355   8.225  17.871  0.00  0.00    +0.000 OA
BRANCH   9  10
ATOM     10  C   UNL     1      49.108   7.171  18.741  0.00  0.00    +0.000 A 
ATOM     11  N   UNL     1      50.137   6.474  19.262  0.00  0.00    +0.000 NA
ATOM     12  C   UNL     1      49.815   5.435  20.050  0.00  0.00    +0.000 A 
ATOM     13  C   UNL     1      48.522   5.095  20.361  0.00  0.00    +0.000 A 
ATOM     14  C   UNL     1      47.549   5.899  19.815  0.00  0.00    +0.000 A 
ATOM     15  N   UNL     1      47.811   6.942  19.005  0.00  0.00    +0.000 NA
ENDBRANCH   9  10
ENDBRANCH   6   9
ENDBRANCH   2   3
BRANCH   2  16
ATOM     16  N   UNL     1      47.171   6.611  12.099  0.00  0.00    +0.000 N 
ATOM     17  C   UNL     1      45.805   6.636  12.214  0.00  0.00    +0.000 C 
ATOM     18  O   UNL     1      45.177   7.660  12.466  0.00  0.00    +0.000 OA
ATOM     19  H   UNL     1      47.631   5.712  12.212  0.00  0.00    +0.000 HD
BRANCH  17  20
ATOM     20  C   UNL     1      45.109   5.375  11.936  0.00  0.00    +0.000 A 
ATOM     21  C   UNL     1      44.421   4.731  12.955  0.00  0.00    +0.000 A 
ATOM     22  S   UNL     1      43.660   3.288  12.463  0.00  0.00    +0.000 S 
ATOM     23  C   UNL     1      44.261   3.448  10.878  0.00  0.00    +0.000 A 
ATOM     24  N   UNL     1      44.008   2.504   9.933  0.00  0.00    +0.000 NA
ATOM     25  C   UNL     1      44.552   2.738   8.785  0.00  0.00    +0.000 A 
ATOM     26  N   UNL     1      45.320   3.837   8.496  0.00  0.00    +0.000 N 
ATOM     27  C   UNL     1      45.573   4.833   9.409  0.00  0.00    +0.000 A 
ATOM     28  O   UNL     1      46.215   5.836   9.108  0.00  0.00    +0.000 OA
ATOM     29  C   UNL     1      45.005   4.603  10.721  0.00  0.00    +0.000 A 
ATOM     30  H   UNL     1      45.706   3.971   7.571  0.00  0.00    +0.000 HD
ENDBRANCH  17  20
ENDBRANCH   2  16
TORSDOF 5
ENDMDL
MODEL 9
REMARK VINA RESULT:    -6.935      2.973      8.086
REMARK INTER + INTRA:          -9.476
REMARK INTER:                  -8.723
REMARK INTRA:                  -0.753
REMARK UNBOUND:                -0.514
REMARK  Name = 
REMARK  6 active torsions:
REMARK  status: ('A' for Active; 'I' for Inactive)
REMARK    1  A    between atoms: C_1  and  C_2
REMARK    2  A    between atoms: C_2  and  N_3
REMARK    3  A    between atoms: C_2  and  C_16
REMARK    4  A    between atoms: C_4  and  C_6
REMARK    5  A    between atoms: C_19  and  O_20
REMARK    6  A    between atoms: O_20  and  C_21
REMARK                            x       y       z     vdW  Elec       q    Type
REMARK                         _______ _______ _______ _____ _____    ______ ____
ROOT
ATOM      1  C   UNL     1      49.274   7.675  11.657  0.00  0.00    +0.000 C 
ATOM      2  C   UNL     1      48.193   7.395  12.707  0.00  0.00    +0.000 C 
ENDROOT
BRANCH   2   3
ATOM      3  C   UNL     1      48.839   7.086  14.048  0.00  0.00    +0.000 A 
ATOM      4  C   UNL     1      48.132   6.373  15.024  0.00  0.00    +0.000 A 
ATOM      5  C   UNL     1      48.734   6.047  16.239  0.00  0.00    +0.000 A 
ATOM      6  C   UNL     1      50.068   6.389  16.481  0.00  0.00    +0.000 A 
ATOM      7  C   UNL     1      50.767   7.142  15.539  0.00  0.00    +0.000 A 
ATOM      8  C   UNL     1      50.159   7.486  14.329  0.00  0.00    +0.000 A 
BRANCH   6   9
ATOM      9  O   UNL     1      50.737   6.086  17.644  0.00  0.00    +0.000 OA
BRANCH   9  10
ATOM     10  C   UNL     1      51.366   4.850  17.733  0.00  0.00    +0.000 A 
ATOM     11  N   UNL     1      52.647   4.776  18.146  0.00  0.00    +0.000 NA
ATOM     12  C   UNL     1      53.202   3.553  18.152  0.00  0.00    +0.000 A 
ATOM     13  C   UNL     1      52.522   2.413  17.801  0.00  0.00    +0.000 A 
ATOM     14  C   UNL     1      51.207   2.594  17.440  0.00  0.00    +0.000 A 
ATOM     15  N   UNL     1      50.603   3.796  17.399  0.00  0.00    +0.000 NA
ENDBRANCH   9  10
ENDBRANCH   6   9
ENDBRANCH   2   3
BRANCH   2  16
ATOM     16  N   UNL     1      47.309   6.298  12.339  0.00  0.00    +0.000 N 
ATOM     17  C   UNL     1      45.942   6.403  12.352  0.00  0.00    +0.000 C 
ATOM     18  O   UNL     1      45.357   7.450  12.609  0.00  0.00    +0.000 OA
ATOM     19  H   UNL     1      47.705   5.368  12.439  0.00  0.00    +0.000 HD
BRANCH  17  20
ATOM     20  C   UNL     1      45.198   5.202  11.957  0.00  0.00    +0.000 A 
ATOM     21  C   UNL     1      44.483   4.492  12.912  0.00  0.00    +0.000 A 
ATOM     22  S   UNL     1      43.666   3.133  12.285  0.00  0.00    +0.000 S 
ATOM     23  C   UNL     1      44.277   3.420  10.722  0.00  0.00    +0.000 A 
ATOM     24  N   UNL     1      43.987   2.580   9.692  0.00  0.00    +0.000 NA
ATOM     25  C   UNL     1      44.543   2.901   8.571  0.00  0.00    +0.000 A 
ATOM     26  N   UNL     1      45.354   3.991   8.386  0.00  0.00    +0.000 N 
ATOM     27  C   UNL     1      45.645   4.885   9.389  0.00  0.00    +0.000 A 
ATOM     28  O   UNL     1      46.327   5.885   9.183  0.00  0.00    +0.000 OA
ATOM     29  C   UNL     1      45.066   4.554  10.674  0.00  0.00    +0.000 A 
ATOM     30  H   UNL     1      45.747   4.196   7.477  0.00  0.00    +0.000 HD
ENDBRANCH  17  20
ENDBRANCH   2  16
TORSDOF 5
ENDMDL
