MODEL 1
REMARK VINA RESULT:    -8.320      0.000      0.000
REMARK INTER + INTRA:         -12.704
REMARK INTER:                 -11.725
REMARK INTRA:                  -0.979
REMARK UNBOUND:                -0.979
REMARK  Name = 
REMARK  9 active torsions:
REMARK  status: ('A' for Active; 'I' for Inactive)
REMARK    1  A    between atoms: C_1  and  C_2
REMARK    2  A    between atoms: C_2  and  C_3
REMARK    3  A    between atoms: N_5  and  C_6
REMARK    4  A    between atoms: C_6  and  C_7
REMARK    5  A    between atoms: C_11  and  C_12
REMARK    6  A    between atoms: C_12  and  C_13
REMARK    7  A    between atoms: C_13  and  N_14
REMARK    8  A    between atoms: N_14  and  C_15
REMARK    9  A    between atoms: C_18  and  C_19
REMARK                            x       y       z     vdW  Elec       q    Type
REMARK                         _______ _______ _______ _____ _____    ______ ____
ROOT
ATOM      1  C   UNL     1      43.430   5.348  12.220  0.00  0.00    +0.000 C 
ENDROOT
BRANCH   1   6
ATOM      2  C   UNL     1      46.843   4.935  13.921  0.00  0.00    +0.000 A 
ATOM      3  C   UNL     1      47.561   5.846  13.147  0.00  0.00    +0.000 A 
ATOM      4  C   UNL     1      46.895   6.561  12.169  0.00  0.00    +0.000 A 
ATOM      5  N   UNL     1      45.585   6.401  11.882  0.00  0.00    +0.000 NA
ATOM      6  C   UNL     1      44.885   5.503  12.615  0.00  0.00    +0.000 A 
ATOM      7  C   UNL     1      45.480   4.773  13.647  0.00  0.00    +0.000 A 
BRANCH   2   8
ATOM      8  C   UNL     1      47.506   4.141  15.024  0.00  0.00    +0.000 C 
BRANCH   8  13
ATOM      9  C   UNL     1      48.875   3.978  19.302  0.00  0.00    +0.000 C 
ATOM     10  C   UNL     1      48.642   3.764  17.808  0.00  0.00    +0.000 C 
ATOM     11  C   UNL     1      49.571   2.666  17.283  0.00  0.00    +0.000 C 
ATOM     12  C   UNL     1      48.649   5.086  17.006  0.00  0.00    +0.000 C 
ATOM     13  N   UNL     1      47.369   4.729  16.364  0.00  0.00    +0.000 NA
ATOM     14  C   UNL     1      47.151   3.665  17.375  0.00  0.00    +0.000 C 
ENDBRANCH   8  13
ENDBRANCH   2   8
ENDBRANCH   1   6
BRANCH   1  15
ATOM     15  C   UNL     1      43.196   4.379  11.065  0.00  0.00    +0.000 C 
BRANCH  15  16
ATOM     16  N   UNL     1      43.761   4.856   9.799  0.00  0.00    +0.000 N 
ATOM     17  H   UNL     1      44.204   5.769   9.889  0.00  0.00    +0.000 HD
BRANCH  16  18
ATOM     18  C   UNL     1      44.581   3.940   9.112  0.00  0.00    +0.000 A 
ATOM     19  C   UNL     1      45.614   4.335   8.253  0.00  0.00    +0.000 A 
ATOM     20  C   UNL     1      46.437   3.391   7.642  0.00  0.00    +0.000 A 
ATOM     21  C   UNL     1      46.227   2.056   7.934  0.00  0.00    +0.000 A 
ATOM     22  N   UNL     1      45.270   1.610   8.793  0.00  0.00    +0.000 NA
ATOM     23  C   UNL     1      44.494   2.567   9.366  0.00  0.00    +0.000 A 
BRANCH  21  24
ATOM     24  C   UNL     1      47.103   1.023   7.297  0.00  0.00    +0.000 C 
ATOM     25  N   UNL     1      46.873  -0.265   7.691  0.00  0.00    +0.000 N 
ATOM     26  O   UNL     1      47.972   1.303   6.479  0.00  0.00    +0.000 OA
ATOM     27  H   UNL     1      46.167  -0.451   8.395  0.00  0.00    +0.000 HD
ATOM     28  H   UNL     1      47.454  -1.007   7.331  0.00  0.00    +0.000 HD
ENDBRANCH  21  24
ENDBRANCH  16  18
ENDBRANCH  15  16
ENDBRANCH   1  15
TORSDOF 7
ENDMDL
MODEL 2
REMARK VINA RESULT:    -7.927      2.392      4.066
REMARK INTER + INTRA:         -12.150
REMARK INTER:                 -11.212
REMARK INTRA:                  -0.938
REMARK UNBOUND:                -0.979
REMARK  Name = 
REMARK  9 active torsions:
REMARK  status: ('A' for Active; 'I' for Inactive)
REMARK    1  A    between atoms: C_1  and  C_2
REMARK    2  A    between atoms: C_2  and  C_3
REMARK    3  A    between atoms: N_5  and  C_6
REMARK    4  A    between atoms: C_6  and  C_7
REMARK    5  A    between atoms: C_11  and  C_12
REMARK    6  A    between atoms: C_12  and  C_13
REMARK    7  A    between atoms: C_13  and  N_14
REMARK    8  A    between atoms: N_14  and  C_15
REMARK    9  A    between atoms: C_18  and  C_19
REMARK                            x       y       z     vdW  Elec       q    Type
REMARK                         _______ _______ _______ _____ _____    ______ ____
ROOT
ATOM      1  C   UNL     1      43.348   4.865  12.525  0.00  0.00    +0.000 C 
ENDROOT
BRANCH   1   6
ATOM      2  C   UNL     1      46.742   6.502  13.236  0.00  0.00    +0.000 A 
ATOM      3  C   UNL     1      47.415   5.371  13.698  0.00  0.00    +0.000 A 
ATOM      4  C   UNL     1      46.752   4.158  13.705  0.00  0.00    +0.000 A 
ATOM      5  N   UNL     1      45.465   4.003  13.329  0.00  0.00    +0.000 NA
ATOM      6  C   UNL     1      44.797   5.101  12.899  0.00  0.00    +0.000 A 
ATOM      7  C   UNL     1      45.413   6.353  12.826  0.00  0.00    +0.000 A 
BRANCH   2   8
ATOM      8  C   UNL     1      47.419   7.854  13.178  0.00  0.00    +0.000 C 
BRANCH   8  13
ATOM      9  C   UNL     1      50.963   9.625  11.055  0.00  0.00    +0.000 C 
ATOM     10  C   UNL     1      49.949   9.100  12.070  0.00  0.00    +0.000 C 
ATOM     11  C   UNL     1      50.508   9.234  13.488  0.00  0.00    +0.000 C 
ATOM     12  C   UNL     1      49.397   7.705  11.697  0.00  0.00    +0.000 C 
ATOM     13  N   UNL     1      48.011   8.182  11.874  0.00  0.00    +0.000 NA
ATOM     14  C   UNL     1      48.486   9.587  11.861  0.00  0.00    +0.000 C 
ENDBRANCH   8  13
ENDBRANCH   2   8
ENDBRANCH   1   6
BRANCH   1  15
ATOM     15  C   UNL     1      43.157   4.078  11.231  0.00  0.00    +0.000 C 
BRANCH  15  16
ATOM     16  N   UNL     1      43.749   4.745  10.068  0.00  0.00    +0.000 N 
ATOM     17  H   UNL     1      44.174   5.640  10.304  0.00  0.00    +0.000 HD
BRANCH  16  18
ATOM     18  C   UNL     1      44.605   3.952   9.278  0.00  0.00    +0.000 A 
ATOM     19  C   UNL     1      45.530   4.491   8.376  0.00  0.00    +0.000 A 
ATOM     20  C   UNL     1      46.397   3.668   7.662  0.00  0.00    +0.000 A 
ATOM     21  C   UNL     1      46.341   2.305   7.892  0.00  0.00    +0.000 A 
ATOM     22  N   UNL     1      45.497   1.722   8.786  0.00  0.00    +0.000 NA
ATOM     23  C   UNL     1      44.673   2.566   9.460  0.00  0.00    +0.000 A 
BRANCH  21  24
ATOM     24  C   UNL     1      47.268   1.400   7.142  0.00  0.00    +0.000 C 
ATOM     25  N   UNL     1      48.312   2.020   6.515  0.00  0.00    +0.000 N 
ATOM     26  O   UNL     1      47.108   0.187   7.084  0.00  0.00    +0.000 OA
ATOM     27  H   UNL     1      48.390   3.030   6.559  0.00  0.00    +0.000 HD
ATOM     28  H   UNL     1      48.953   1.475   5.958  0.00  0.00    +0.000 HD
ENDBRANCH  21  24
ENDBRANCH  16  18
ENDBRANCH  15  16
ENDBRANCH   1  15
TORSDOF 7
ENDMDL
MODEL 3
REMARK VINA RESULT:    -7.593      3.162      4.059
REMARK INTER + INTRA:         -11.679
REMARK INTER:                 -10.772
REMARK INTRA:                  -0.907
REMARK UNBOUND:                -0.979
REMARK  Name = 
REMARK  9 active torsions:
REMARK  status: ('A' for Active; 'I' for Inactive)
REMARK    1  A    between atoms: C_1  and  C_2
REMARK    2  A    between atoms: C_2  and  C_3
REMARK    3  A    between atoms: N_5  and  C_6
REMARK    4  A    between atoms: C_6  and  C_7
REMARK    5  A    between atoms: C_11  and  C_12
REMARK    6  A    between atoms: C_12  and  C_13
REMARK    7  A    between atoms: C_13  and  N_14
REMARK    8  A    between atoms: N_14  and  C_15
REMARK    9  A    between atoms: C_18  and  C_19
REMARK                            x       y       z     vdW  Elec       q    Type
REMARK                         _______ _______ _______ _____ _____    ______ ____
ROOT
ATOM      1  C   UNL     1      43.703   4.121  12.863  0.00  0.00    +0.000 C 
ENDROOT
BRANCH   1   6
ATOM      2  C   UNL     1      46.039   7.162  12.838  0.00  0.00    +0.000 A 
ATOM      3  C   UNL     1      45.348   7.936  11.905  0.00  0.00    +0.000 A 
ATOM      4  C   UNL     1      44.162   7.451  11.387  0.00  0.00    +0.000 A 
ATOM      5  N   UNL     1      43.644   6.243  11.697  0.00  0.00    +0.000 NA
ATOM      6  C   UNL     1      44.320   5.477  12.585  0.00  0.00    +0.000 A 
ATOM      7  C   UNL     1      45.505   5.916  13.182  0.00  0.00    +0.000 A 
BRANCH   2   8
ATOM      8  C   UNL     1      47.329   7.646  13.463  0.00  0.00    +0.000 C 
BRANCH   8  13
ATOM      9  C   UNL     1      51.125   8.017  11.085  0.00  0.00    +0.000 C 
ATOM     10  C   UNL     1      49.795   8.235  11.804  0.00  0.00    +0.000 C 
ATOM     11  C   UNL     1      49.353   9.693  11.659  0.00  0.00    +0.000 C 
ATOM     12  C   UNL     1      49.794   7.675  13.244  0.00  0.00    +0.000 C 
ATOM     13  N   UNL     1      48.534   6.952  12.986  0.00  0.00    +0.000 NA
ATOM     14  C   UNL     1      48.706   7.159  11.528  0.00  0.00    +0.000 C 
ENDBRANCH   8  13
ENDBRANCH   2   8
ENDBRANCH   1   6
BRANCH   1  15
ATOM     15  C   UNL     1      43.712   3.173  11.666  0.00  0.00    +0.000 C 
BRANCH  15  16
ATOM     16  N   UNL     1      43.727   3.880  10.382  0.00  0.00    +0.000 N 
ATOM     17  H   UNL     1      43.726   4.892  10.493  0.00  0.00    +0.000 HD
BRANCH  16  18
ATOM     18  C   UNL     1      44.704   3.455   9.462  0.00  0.00    +0.000 A 
ATOM     19  C   UNL     1      45.030   2.108   9.260  0.00  0.00    +0.000 A 
ATOM     20  C   UNL     1      45.961   1.733   8.294  0.00  0.00    +0.000 A 
ATOM     21  C   UNL     1      46.530   2.725   7.517  0.00  0.00    +0.000 A 
ATOM     22  N   UNL     1      46.224   4.046   7.632  0.00  0.00    +0.000 NA
ATOM     23  C   UNL     1      45.309   4.362   8.585  0.00  0.00    +0.000 A 
BRANCH  21  24
ATOM     24  C   UNL     1      47.527   2.347   6.467  0.00  0.00    +0.000 C 
ATOM     25  N   UNL     1      47.502   3.110   5.334  0.00  0.00    +0.000 N 
ATOM     26  O   UNL     1      48.313   1.417   6.603  0.00  0.00    +0.000 OA
ATOM     27  H   UNL     1      46.814   3.849   5.247  0.00  0.00    +0.000 HD
ATOM     28  H   UNL     1      48.121   2.885   4.568  0.00  0.00    +0.000 HD
ENDBRANCH  21  24
ENDBRANCH  16  18
ENDBRANCH  15  16
ENDBRANCH   1  15
TORSDOF 7
ENDMDL
MODEL 4
REMARK VINA RESULT:    -7.382      2.127      2.808
REMARK INTER + INTRA:         -11.381
REMARK INTER:                 -10.409
REMARK INTRA:                  -0.973
REMARK UNBOUND:                -0.979
REMARK  Name = 
REMARK  9 active torsions:
REMARK  status: ('A' for Active; 'I' for Inactive)
REMARK    1  A    between atoms: C_1  and  C_2
REMARK    2  A    between atoms: C_2  and  C_3
REMARK    3  A    between atoms: N_5  and  C_6
REMARK    4  A    between atoms: C_6  and  C_7
REMARK    5  A    between atoms: C_11  and  C_12
REMARK    6  A    between atoms: C_12  and  C_13
REMARK    7  A    between atoms: C_13  and  N_14
REMARK    8  A    between atoms: N_14  and  C_15
REMARK    9  A    between atoms: C_18  and  C_19
REMARK                            x       y       z     vdW  Elec       q    Type
REMARK                         _______ _______ _______ _____ _____    ______ ____
ROOT
ATOM      1  C   UNL     1      45.322   3.501  12.419  0.00  0.00    +0.000 C 
ENDROOT
BRANCH   1   6
ATOM      2  C   UNL     1      47.269   6.757  12.982  0.00  0.00    +0.000 A 
ATOM      3  C   UNL     1      46.200   7.647  12.883  0.00  0.00    +0.000 A 
ATOM      4  C   UNL     1      44.928   7.142  12.690  0.00  0.00    +0.000 A 
ATOM      5  N   UNL     1      44.656   5.827  12.547  0.00  0.00    +0.000 NA
ATOM      6  C   UNL     1      45.691   4.957  12.621  0.00  0.00    +0.000 A 
ATOM      7  C   UNL     1      46.999   5.390  12.855  0.00  0.00    +0.000 A 
BRANCH   2   8
ATOM      8  C   UNL     1      48.682   7.243  13.220  0.00  0.00    +0.000 C 
BRANCH   8  13
ATOM      9  C   UNL     1      49.875   7.775  17.521  0.00  0.00    +0.000 C 
ATOM     10  C   UNL     1      49.329   7.921  16.101  0.00  0.00    +0.000 C 
ATOM     11  C   UNL     1      48.583   9.250  15.960  0.00  0.00    +0.000 C 
ATOM     12  C   UNL     1      48.561   6.667  15.625  0.00  0.00    +0.000 C 
ATOM     13  N   UNL     1      49.350   6.632  14.377  0.00  0.00    +0.000 NA
ATOM     14  C   UNL     1      50.333   7.574  14.964  0.00  0.00    +0.000 C 
ENDBRANCH   8  13
ENDBRANCH   2   8
ENDBRANCH   1   6
BRANCH   1  15
ATOM     15  C   UNL     1      43.899   3.282  11.912  0.00  0.00    +0.000 C 
BRANCH  15  16
ATOM     16  N   UNL     1      43.664   3.890  10.599  0.00  0.00    +0.000 N 
ATOM     17  H   UNL     1      43.557   4.901  10.650  0.00  0.00    +0.000 HD
BRANCH  16  18
ATOM     18  C   UNL     1      44.557   3.507   9.580  0.00  0.00    +0.000 A 
ATOM     19  C   UNL     1      45.288   4.428   8.819  0.00  0.00    +0.000 A 
ATOM     20  C   UNL     1      46.205   3.999   7.863  0.00  0.00    +0.000 A 
ATOM     21  C   UNL     1      46.398   2.638   7.707  0.00  0.00    +0.000 A 
ATOM     22  N   UNL     1      45.752   1.693   8.444  0.00  0.00    +0.000 NA
ATOM     23  C   UNL     1      44.870   2.160   9.366  0.00  0.00    +0.000 A 
BRANCH  21  24
ATOM     24  C   UNL     1      47.383   2.152   6.691  0.00  0.00    +0.000 C 
ATOM     25  N   UNL     1      47.529   2.948   5.590  0.00  0.00    +0.000 N 
ATOM     26  O   UNL     1      48.017   1.112   6.826  0.00  0.00    +0.000 OA
ATOM     27  H   UNL     1      46.961   3.783   5.501  0.00  0.00    +0.000 HD
ATOM     28  H   UNL     1      48.147   2.660   4.846  0.00  0.00    +0.000 HD
ENDBRANCH  21  24
ENDBRANCH  16  18
ENDBRANCH  15  16
ENDBRANCH   1  15
TORSDOF 7
ENDMDL
MODEL 5
REMARK VINA RESULT:    -6.844      1.734      2.150
REMARK INTER + INTRA:         -10.624
REMARK INTER:                 -10.214
REMARK INTRA:                  -0.410
REMARK UNBOUND:                -0.979
REMARK  Name = 
REMARK  9 active torsions:
REMARK  status: ('A' for Active; 'I' for Inactive)
REMARK    1  A    between atoms: C_1  and  C_2
REMARK    2  A    between atoms: C_2  and  C_3
REMARK    3  A    between atoms: N_5  and  C_6
REMARK    4  A    between atoms: C_6  and  C_7
REMARK    5  A    between atoms: C_11  and  C_12
REMARK    6  A    between atoms: C_12  and  C_13
REMARK    7  A    between atoms: C_13  and  N_14
REMARK    8  A    between atoms: N_14  and  C_15
REMARK    9  A    between atoms: C_18  and  C_19
REMARK                            x       y       z     vdW  Elec       q    Type
REMARK                         _______ _______ _______ _____ _____    ______ ____
ROOT
ATOM      1  C   UNL     1      45.484   4.029  12.539  0.00  0.00    +0.000 C 
ENDROOT
BRANCH   1   6
ATOM      2  C   UNL     1      47.712   5.071  15.480  0.00  0.00    +0.000 A 
ATOM      3  C   UNL     1      48.193   6.268  14.951  0.00  0.00    +0.000 A 
ATOM      4  C   UNL     1      47.736   6.680  13.713  0.00  0.00    +0.000 A 
ATOM      5  N   UNL     1      46.875   5.968  12.955  0.00  0.00    +0.000 NA
ATOM      6  C   UNL     1      46.419   4.794  13.452  0.00  0.00    +0.000 A 
ATOM      7  C   UNL     1      46.805   4.332  14.714  0.00  0.00    +0.000 A 
BRANCH   2   8
ATOM      8  C   UNL     1      48.152   4.577  16.841  0.00  0.00    +0.000 C 
BRANCH   8  13
ATOM      9  C   UNL     1      52.211   4.776  18.762  0.00  0.00    +0.000 C 
ATOM     10  C   UNL     1      50.919   4.365  18.057  0.00  0.00    +0.000 C 
ATOM     11  C   UNL     1      50.997   2.897  17.633  0.00  0.00    +0.000 C 
ATOM     12  C   UNL     1      50.498   5.360  16.953  0.00  0.00    +0.000 C 
ATOM     13  N   UNL     1      49.135   5.439  17.513  0.00  0.00    +0.000 NA
ATOM     14  C   UNL     1      49.607   4.805  18.767  0.00  0.00    +0.000 C 
ENDBRANCH   8  13
ENDBRANCH   2   8
ENDBRANCH   1   6
BRANCH   1  15
ATOM     15  C   UNL     1      44.626   4.915  11.639  0.00  0.00    +0.000 C 
BRANCH  15  16
ATOM     16  N   UNL     1      44.007   4.175  10.536  0.00  0.00    +0.000 N 
ATOM     17  H   UNL     1      43.222   4.675  10.121  0.00  0.00    +0.000 HD
BRANCH  16  18
ATOM     18  C   UNL     1      44.892   3.682   9.558  0.00  0.00    +0.000 A 
ATOM     19  C   UNL     1      45.078   2.316   9.314  0.00  0.00    +0.000 A 
ATOM     20  C   UNL     1      45.919   1.878   8.294  0.00  0.00    +0.000 A 
ATOM     21  C   UNL     1      46.539   2.831   7.506  0.00  0.00    +0.000 A 
ATOM     22  N   UNL     1      46.366   4.172   7.661  0.00  0.00    +0.000 NA
ATOM     23  C   UNL     1      45.534   4.549   8.667  0.00  0.00    +0.000 A 
BRANCH  21  24
ATOM     24  C   UNL     1      47.442   2.386   6.398  0.00  0.00    +0.000 C 
ATOM     25  N   UNL     1      47.289   3.053   5.215  0.00  0.00    +0.000 N 
ATOM     26  O   UNL     1      48.262   1.486   6.531  0.00  0.00    +0.000 OA
ATOM     27  H   UNL     1      46.576   3.769   5.136  0.00  0.00    +0.000 HD
ATOM     28  H   UNL     1      47.838   2.777   4.414  0.00  0.00    +0.000 HD
ENDBRANCH  21  24
ENDBRANCH  16  18
ENDBRANCH  15  16
ENDBRANCH   1  15
TORSDOF 7
ENDMDL
MODEL 6
REMARK VINA RESULT:    -6.564      2.760      3.679
REMARK INTER + INTRA:         -10.228
REMARK INTER:                  -9.922
REMARK INTRA:                  -0.306
REMARK UNBOUND:                -0.979
REMARK  Name = 
REMARK  9 active torsions:
REMARK  status: ('A' for Active; 'I' for Inactive)
REMARK    1  A    between atoms: C_1  and  C_2
REMARK    2  A    between atoms: C_2  and  C_3
REMARK    3  A    between atoms: N_5  and  C_6
REMARK    4  A    between atoms: C_6  and  C_7
REMARK    5  A    between atoms: C_11  and  C_12
REMARK    6  A    between atoms: C_12  and  C_13
REMARK    7  A    between atoms: C_13  and  N_14
REMARK    8  A    between atoms: N_14  and  C_15
REMARK    9  A    between atoms: C_18  and  C_19
REMARK                            x       y       z     vdW  Elec       q    Type
REMARK                         _______ _______ _______ _____ _____    ______ ____
ROOT
ATOM      1  C   UNL     1      45.707   5.729  11.054  0.00  0.00    +0.000 C 
ENDROOT
BRANCH   1   6
ATOM      2  C   UNL     1      47.537   7.588  13.865  0.00  0.00    +0.000 A 
ATOM      3  C   UNL     1      46.961   8.845  13.680  0.00  0.00    +0.000 A 
ATOM      4  C   UNL     1      45.995   8.997  12.702  0.00  0.00    +0.000 A 
ATOM      5  N   UNL     1      45.600   8.005  11.875  0.00  0.00    +0.000 NA
ATOM      6  C   UNL     1      46.170   6.787  12.034  0.00  0.00    +0.000 A 
ATOM      7  C   UNL     1      47.124   6.547  13.027  0.00  0.00    +0.000 A 
BRANCH   2   8
ATOM      8  C   UNL     1      48.579   7.348  14.934  0.00  0.00    +0.000 C 
BRANCH   8  13
ATOM      9  C   UNL     1      52.668   9.020  14.101  0.00  0.00    +0.000 C 
ATOM     10  C   UNL     1      51.214   8.782  14.504  0.00  0.00    +0.000 C 
ATOM     11  C   UNL     1      50.632  10.048  15.139  0.00  0.00    +0.000 C 
ATOM     12  C   UNL     1      51.022   7.479  15.313  0.00  0.00    +0.000 C 
ATOM     13  N   UNL     1      49.925   7.060  14.419  0.00  0.00    +0.000 NA
ATOM     14  C   UNL     1      50.331   8.087  13.429  0.00  0.00    +0.000 C 
ENDBRANCH   8  13
ENDBRANCH   2   8
ENDBRANCH   1   6
BRANCH   1  15
ATOM     15  C   UNL     1      44.212   5.428  11.119  0.00  0.00    +0.000 C 
BRANCH  15  16
ATOM     16  N   UNL     1      43.714   4.761   9.913  0.00  0.00    +0.000 N 
ATOM     17  H   UNL     1      43.224   5.399   9.287  0.00  0.00    +0.000 HD
BRANCH  16  18
ATOM     18  C   UNL     1      44.650   3.966   9.223  0.00  0.00    +0.000 A 
ATOM     19  C   UNL     1      44.741   2.578   9.385  0.00  0.00    +0.000 A 
ATOM     20  C   UNL     1      45.642   1.827   8.634  0.00  0.00    +0.000 A 
ATOM     21  C   UNL     1      46.421   2.485   7.700  0.00  0.00    +0.000 A 
ATOM     22  N   UNL     1      46.350   3.824   7.463  0.00  0.00    +0.000 NA
ATOM     23  C   UNL     1      45.454   4.513   8.217  0.00  0.00    +0.000 A 
BRANCH  21  24
ATOM     24  C   UNL     1      47.392   1.699   6.876  0.00  0.00    +0.000 C 
ATOM     25  N   UNL     1      48.479   2.396   6.429  0.00  0.00    +0.000 N 
ATOM     26  O   UNL     1      47.231   0.514   6.612  0.00  0.00    +0.000 OA
ATOM     27  H   UNL     1      48.559   3.384   6.641  0.00  0.00    +0.000 HD
ATOM     28  H   UNL     1      49.154   1.938   5.834  0.00  0.00    +0.000 HD
ENDBRANCH  21  24
ENDBRANCH  16  18
ENDBRANCH  15  16
ENDBRANCH   1  15
TORSDOF 7
ENDMDL
MODEL 7
REMARK VINA RESULT:    -6.119      3.638      8.005
REMARK INTER + INTRA:          -9.601
REMARK INTER:                  -8.560
REMARK INTRA:                  -1.041
REMARK UNBOUND:                -0.979
REMARK  Name = 
REMARK  9 active torsions:
REMARK  status: ('A' for Active; 'I' for Inactive)
REMARK    1  A    between atoms: C_1  and  C_2
REMARK    2  A    between atoms: C_2  and  C_3
REMARK    3  A    between atoms: N_5  and  C_6
REMARK    4  A    between atoms: C_6  and  C_7
REMARK    5  A    between atoms: C_11  and  C_12
REMARK    6  A    between atoms: C_12  and  C_13
REMARK    7  A    between atoms: C_13  and  N_14
REMARK    8  A    between atoms: N_14  and  C_15
REMARK    9  A    between atoms: C_18  and  C_19
REMARK                            x       y       z     vdW  Elec       q    Type
REMARK                         _______ _______ _______ _____ _____    ______ ____
ROOT
ATOM      1  C   UNL     1      48.460   9.275  16.149  0.00  0.00    +0.000 C 
ENDROOT
BRANCH   1   6
ATOM      2  C   UNL     1      48.006   7.207  12.951  0.00  0.00    +0.000 A 
ATOM      3  C   UNL     1      49.301   7.333  12.448  0.00  0.00    +0.000 A 
ATOM      4  C   UNL     1      50.238   8.029  13.188  0.00  0.00    +0.000 A 
ATOM      5  N   UNL     1      49.967   8.639  14.362  0.00  0.00    +0.000 NA
ATOM      6  C   UNL     1      48.706   8.540  14.847  0.00  0.00    +0.000 A 
ATOM      7  C   UNL     1      47.715   7.819  14.175  0.00  0.00    +0.000 A 
BRANCH   2   8
ATOM      8  C   UNL     1      46.941   6.436  12.204  0.00  0.00    +0.000 C 
BRANCH   8  13
ATOM      9  C   UNL     1      42.602   5.376  11.697  0.00  0.00    +0.000 C 
ATOM     10  C   UNL     1      44.123   5.494  11.610  0.00  0.00    +0.000 C 
ATOM     11  C   UNL     1      44.669   4.498  10.584  0.00  0.00    +0.000 C 
ATOM     12  C   UNL     1      44.805   5.468  12.997  0.00  0.00    +0.000 C 
ATOM     13  N   UNL     1      45.569   6.688  12.668  0.00  0.00    +0.000 NA
ATOM     14  C   UNL     1      44.673   6.946  11.515  0.00  0.00    +0.000 C 
ENDBRANCH   8  13
ENDBRANCH   2   8
ENDBRANCH   1   6
BRANCH   1  15
ATOM     15  C   UNL     1      48.942   8.527  17.390  0.00  0.00    +0.000 C 
BRANCH  15  16
ATOM     16  N   UNL     1      48.009   7.482  17.821  0.00  0.00    +0.000 N 
ATOM     17  H   UNL     1      47.075   7.607  17.432  0.00  0.00    +0.000 HD
BRANCH  16  18
ATOM     18  C   UNL     1      48.464   6.157  17.676  0.00  0.00    +0.000 A 
ATOM     19  C   UNL     1      47.624   5.043  17.790  0.00  0.00    +0.000 A 
ATOM     20  C   UNL     1      48.109   3.755  17.578  0.00  0.00    +0.000 A 
ATOM     21  C   UNL     1      49.437   3.609  17.219  0.00  0.00    +0.000 A 
ATOM     22  N   UNL     1      50.294   4.652  17.048  0.00  0.00    +0.000 NA
ATOM     23  C   UNL     1      49.774   5.889  17.263  0.00  0.00    +0.000 A 
BRANCH  21  24
ATOM     24  C   UNL     1      49.981   2.236  16.978  0.00  0.00    +0.000 C 
ATOM     25  N   UNL     1      50.920   1.812  17.876  0.00  0.00    +0.000 N 
ATOM     26  O   UNL     1      49.618   1.533  16.042  0.00  0.00    +0.000 OA
ATOM     27  H   UNL     1      51.217   2.437  18.617  0.00  0.00    +0.000 HD
ATOM     28  H   UNL     1      51.358   0.912  17.750  0.00  0.00    +0.000 HD
ENDBRANCH  21  24
ENDBRANCH  16  18
ENDBRANCH  15  16
ENDBRANCH   1  15
TORSDOF 7
ENDMDL
MODEL 8
REMARK VINA RESULT:    -6.029      3.526      8.324
REMARK INTER + INTRA:          -9.474
REMARK INTER:                  -8.700
REMARK INTRA:                  -0.774
REMARK UNBOUND:                -0.979
REMARK  Name = 
REMARK  9 active torsions:
REMARK  status: ('A' for Active; 'I' for Inactive)
REMARK    1  A    between atoms: C_1  and  C_2
REMARK    2  A    between atoms: C_2  and  C_3
REMARK    3  A    between atoms: N_5  and  C_6
REMARK    4  A    between atoms: C_6  and  C_7
REMARK    5  A    between atoms: C_11  and  C_12
REMARK    6  A    between atoms: C_12  and  C_13
REMARK    7  A    between atoms: C_13  and  N_14
REMARK    8  A    between atoms: N_14  and  C_15
REMARK    9  A    between atoms: C_18  and  C_19
REMARK                            x       y       z     vdW  Elec       q    Type
REMARK                         _______ _______ _______ _____ _____    ______ ____
ROOT
ATOM      1  C   UNL     1      48.203   5.490  15.611  0.00  0.00    +0.000 C 
ENDROOT
BRANCH   1   6
ATOM      2  C   UNL     1      46.022   5.990  12.497  0.00  0.00    +0.000 A 
ATOM      3  C   UNL     1      46.953   6.666  11.710  0.00  0.00    +0.000 A 
ATOM      4  C   UNL     1      48.225   6.873  12.211  0.00  0.00    +0.000 A 
ATOM      5  N   UNL     1      48.616   6.495  13.447  0.00  0.00    +0.000 NA
ATOM      6  C   UNL     1      47.711   5.856  14.226  0.00  0.00    +0.000 A 
ATOM      7  C   UNL     1      46.419   5.576  13.773  0.00  0.00    +0.000 A 
BRANCH   2   8
ATOM      8  C   UNL     1      44.622   5.708  11.998  0.00  0.00    +0.000 C 
BRANCH   8  13
ATOM      9  C   UNL     1      44.564   2.137   9.268  0.00  0.00    +0.000 C 
ATOM     10  C   UNL     1      44.720   3.515   9.909  0.00  0.00    +0.000 C 
ATOM     11  C   UNL     1      45.363   4.486   8.915  0.00  0.00    +0.000 C 
ATOM     12  C   UNL     1      45.378   3.454  11.306  0.00  0.00    +0.000 C 
ATOM     13  N   UNL     1      44.295   4.280  11.876  0.00  0.00    +0.000 NA
ATOM     14  C   UNL     1      43.469   4.041  10.668  0.00  0.00    +0.000 C 
ENDBRANCH   8  13
ENDBRANCH   2   8
ENDBRANCH   1   6
BRANCH   1  15
ATOM     15  C   UNL     1      47.432   4.347  16.267  0.00  0.00    +0.000 C 
BRANCH  15  16
ATOM     16  N   UNL     1      47.980   3.967  17.572  0.00  0.00    +0.000 N 
ATOM     17  H   UNL     1      47.331   3.406  18.121  0.00  0.00    +0.000 HD
BRANCH  16  18
ATOM     18  C   UNL     1      49.271   3.404  17.552  0.00  0.00    +0.000 A 
ATOM     19  C   UNL     1      50.382   4.019  18.143  0.00  0.00    +0.000 A 
ATOM     20  C   UNL     1      51.627   3.395  18.151  0.00  0.00    +0.000 A 
ATOM     21  C   UNL     1      51.728   2.135  17.587  0.00  0.00    +0.000 A 
ATOM     22  N   UNL     1      50.679   1.465  17.037  0.00  0.00    +0.000 NA
ATOM     23  C   UNL     1      49.486   2.114  17.056  0.00  0.00    +0.000 A 
BRANCH  21  24
ATOM     24  C   UNL     1      53.054   1.440  17.590  0.00  0.00    +0.000 C 
ATOM     25  N   UNL     1      53.052   0.176  17.072  0.00  0.00    +0.000 N 
ATOM     26  O   UNL     1      54.074   1.959  18.026  0.00  0.00    +0.000 OA
ATOM     27  H   UNL     1      52.180  -0.230  16.751  0.00  0.00    +0.000 HD
ATOM     28  H   UNL     1      53.904  -0.366  17.079  0.00  0.00    +0.000 HD
ENDBRANCH  21  24
ENDBRANCH  16  18
ENDBRANCH  15  16
ENDBRANCH   1  15
TORSDOF 7
ENDMDL
MODEL 9
REMARK VINA RESULT:    -5.906      3.050      4.835
REMARK INTER + INTRA:          -9.302
REMARK INTER:                  -7.885
REMARK INTRA:                  -1.417
REMARK UNBOUND:                -0.979
REMARK  Name = 
REMARK  9 active torsions:
REMARK  status: ('A' for Active; 'I' for Inactive)
REMARK    1  A    between atoms: C_1  and  C_2
REMARK    2  A    between atoms: C_2  and  C_3
REMARK    3  A    between atoms: N_5  and  C_6
REMARK    4  A    between atoms: C_6  and  C_7
REMARK    5  A    between atoms: C_11  and  C_12
REMARK    6  A    between atoms: C_12  and  C_13
REMARK    7  A    between atoms: C_13  and  N_14
REMARK    8  A    between atoms: N_14  and  C_15
REMARK    9  A    between atoms: C_18  and  C_19
REMARK                            x       y       z     vdW  Elec       q    Type
REMARK                         _______ _______ _______ _____ _____    ______ ____
ROOT
ATOM      1  C   UNL     1      49.637   8.673  12.595  0.00  0.00    +0.000 C 
ENDROOT
BRANCH   1   6
ATOM      2  C   UNL     1      49.655   7.360  16.198  0.00  0.00    +0.000 A 
ATOM      3  C   UNL     1      48.927   8.393  16.789  0.00  0.00    +0.000 A 
ATOM      4  C   UNL     1      48.443   9.410  15.988  0.00  0.00    +0.000 A 
ATOM      5  N   UNL     1      48.668   9.491  14.659  0.00  0.00    +0.000 NA
ATOM      6  C   UNL     1      49.392   8.504  14.080  0.00  0.00    +0.000 A 
ATOM      7  C   UNL     1      49.880   7.422  14.819  0.00  0.00    +0.000 A 
BRANCH   2   8
ATOM      8  C   UNL     1      50.189   6.204  17.014  0.00  0.00    +0.000 C 
BRANCH   8  13
ATOM      9  C   UNL     1      47.168   2.948  17.704  0.00  0.00    +0.000 C 
ATOM     10  C   UNL     1      48.020   4.216  17.737  0.00  0.00    +0.000 C 
ATOM     11  C   UNL     1      47.475   5.188  18.786  0.00  0.00    +0.000 C 
ATOM     12  C   UNL     1      48.259   4.813  16.332  0.00  0.00    +0.000 C 
ATOM     13  N   UNL     1      49.711   4.883  16.584  0.00  0.00    +0.000 NA
ATOM     14  C   UNL     1      49.558   3.983  17.753  0.00  0.00    +0.000 C 
ENDBRANCH   8  13
ENDBRANCH   2   8
ENDBRANCH   1   6
BRANCH   1  15
ATOM     15  C   UNL     1      48.503   8.158  11.712  0.00  0.00    +0.000 C 
BRANCH  15  16
ATOM     16  N   UNL     1      47.224   8.071  12.423  0.00  0.00    +0.000 N 
ATOM     17  H   UNL     1      46.639   8.892  12.275  0.00  0.00    +0.000 HD
BRANCH  16  18
ATOM     18  C   UNL     1      46.504   6.875  12.243  0.00  0.00    +0.000 A 
ATOM     19  C   UNL     1      46.627   5.772  13.098  0.00  0.00    +0.000 A 
ATOM     20  C   UNL     1      45.848   4.633  12.913  0.00  0.00    +0.000 A 
ATOM     21  C   UNL     1      44.926   4.632  11.883  0.00  0.00    +0.000 A 
ATOM     22  N   UNL     1      44.726   5.686  11.045  0.00  0.00    +0.000 NA
ATOM     23  C   UNL     1      45.507   6.776  11.266  0.00  0.00    +0.000 A 
BRANCH  21  24
ATOM     24  C   UNL     1      44.072   3.422  11.669  0.00  0.00    +0.000 C 
ATOM     25  N   UNL     1      44.103   2.498  12.676  0.00  0.00    +0.000 N 
ATOM     26  O   UNL     1      43.391   3.259  10.663  0.00  0.00    +0.000 OA
ATOM     27  H   UNL     1      44.705   2.655  13.476  0.00  0.00    +0.000 HD
ATOM     28  H   UNL     1      43.582   1.639  12.579  0.00  0.00    +0.000 HD
ENDBRANCH  21  24
ENDBRANCH  16  18
ENDBRANCH  15  16
ENDBRANCH   1  15
TORSDOF 7
ENDMDL
