MODEL 1
REMARK VINA RESULT:    -7.468      0.000      0.000
REMARK INTER + INTRA:         -10.300
REMARK INTER:                  -9.870
REMARK INTRA:                  -0.430
REMARK UNBOUND:                -0.430
REMARK  Name = 
REMARK  6 active torsions:
REMARK  status: ('A' for Active; 'I' for Inactive)
REMARK    1  A    between atoms: N_1  and  C_2
REMARK    2  A    between atoms: C_2  and  C_3
REMARK    3  A    between atoms: C_3  and  O_4
REMARK    4  A    between atoms: O_4  and  C_5
REMARK    5  A    between atoms: C_8  and  C_9
REMARK    6  A    between atoms: C_9  and  C_10
REMARK                            x       y       z     vdW  Elec       q    Type
REMARK                         _______ _______ _______ _____ _____    ______ ____
ROOT
ATOM      1  C   UNL     1      46.128   4.675  13.368  0.00  0.00    +0.000 A 
ATOM      2  C   UNL     1      45.745   5.752  12.587  0.00  0.00    +0.000 A 
ATOM      3  C   UNL     1      45.076   5.498  11.391  0.00  0.00    +0.000 A 
ATOM      4  C   UNL     1      44.807   4.179  11.013  0.00  0.00    +0.000 A 
ATOM      5  C   UNL     1      45.174   3.179  11.913  0.00  0.00    +0.000 A 
ATOM      6  N   UNL     1      45.823   3.394  13.076  0.00  0.00    +0.000 NA
ENDROOT
BRANCH   1   7
ATOM      7  O   UNL     1      46.868   4.943  14.505  0.00  0.00    +0.000 OA
BRANCH   7   8
ATOM      8  C   UNL     1      47.145   3.735  15.232  0.00  0.00    +0.000 C 
BRANCH   8   9
ATOM      9  C   UNL     1      47.258   4.036  16.732  0.00  0.00    +0.000 C 
BRANCH   9  10
ATOM     10  N   UNL     1      46.615   3.020  17.570  0.00  0.00    +0.000 NA
ATOM     11  H   UNL     1      45.730   3.385  17.917  0.00  0.00    +0.000 HD
ATOM     12  H   UNL     1      47.203   2.863  18.389  0.00  0.00    +0.000 HD
ENDBRANCH   9  10
ENDBRANCH   8   9
ENDBRANCH   7   8
ENDBRANCH   1   7
BRANCH   4  13
ATOM     13  C   UNL     1      44.263   3.824   9.646  0.00  0.00    +0.000 C 
BRANCH  13  14
ATOM     14  C   UNL     1      45.484   3.830   8.778  0.00  0.00    +0.000 A 
ATOM     15  C   UNL     1      46.129   4.945   8.274  0.00  0.00    +0.000 A 
ATOM     16  N   UNL     1      47.014   4.530   7.316  0.00  0.00    +0.000 N 
ATOM     17  C   UNL     1      47.018   3.158   7.239  0.00  0.00    +0.000 A 
ATOM     18  C   UNL     1      47.696   2.303   6.380  0.00  0.00    +0.000 A 
ATOM     19  N   UNL     1      47.576   0.967   6.550  0.00  0.00    +0.000 NA
ATOM     20  C   UNL     1      46.788   0.504   7.544  0.00  0.00    +0.000 A 
ATOM     21  C   UNL     1      46.042   1.299   8.400  0.00  0.00    +0.000 A 
ATOM     22  C   UNL     1      46.150   2.686   8.222  0.00  0.00    +0.000 A 
ATOM     23  H   UNL     1      47.562   5.141   6.725  0.00  0.00    +0.000 HD
ENDBRANCH  13  14
ENDBRANCH   4  13
TORSDOF 6
ENDMDL
MODEL 2
REMARK VINA RESULT:    -7.449      1.309      2.242
REMARK INTER + INTRA:         -10.274
REMARK INTER:                  -9.924
REMARK INTRA:                  -0.350
REMARK UNBOUND:                -0.430
REMARK  Name = 
REMARK  6 active torsions:
REMARK  status: ('A' for Active; 'I' for Inactive)
REMARK    1  A    between atoms: N_1  and  C_2
REMARK    2  A    between atoms: C_2  and  C_3
REMARK    3  A    between atoms: C_3  and  O_4
REMARK    4  A    between atoms: O_4  and  C_5
REMARK    5  A    between atoms: C_8  and  C_9
REMARK    6  A    between atoms: C_9  and  C_10
REMARK                            x       y       z     vdW  Elec       q    Type
REMARK                         _______ _______ _______ _____ _____    ______ ____
ROOT
ATOM      1  C   UNL     1      46.993   4.994  13.964  0.00  0.00    +0.000 A 
ATOM      2  C   UNL     1      47.372   5.862  12.953  0.00  0.00    +0.000 A 
ATOM      3  C   UNL     1      46.476   6.097  11.912  0.00  0.00    +0.000 A 
ATOM      4  C   UNL     1      45.230   5.464  11.913  0.00  0.00    +0.000 A 
ATOM      5  C   UNL     1      44.928   4.670  13.019  0.00  0.00    +0.000 A 
ATOM      6  N   UNL     1      45.774   4.422  14.039  0.00  0.00    +0.000 NA
ENDROOT
BRANCH   1   7
ATOM      7  O   UNL     1      47.930   4.705  14.939  0.00  0.00    +0.000 OA
BRANCH   7   8
ATOM      8  C   UNL     1      47.313   4.637  16.236  0.00  0.00    +0.000 C 
BRANCH   8   9
ATOM      9  C   UNL     1      47.745   3.357  16.960  0.00  0.00    +0.000 C 
BRANCH   9  10
ATOM     10  N   UNL     1      46.657   2.733  17.719  0.00  0.00    +0.000 NA
ATOM     11  H   UNL     1      46.691   1.724  17.584  0.00  0.00    +0.000 HD
ATOM     12  H   UNL     1      45.771   3.047  17.322  0.00  0.00    +0.000 HD
ENDBRANCH   9  10
ENDBRANCH   8   9
ENDBRANCH   7   8
ENDBRANCH   1   7
BRANCH   4  13
ATOM     13  C   UNL     1      44.293   5.521  10.726  0.00  0.00    +0.000 C 
BRANCH  13  14
ATOM     14  C   UNL     1      44.391   4.143  10.144  0.00  0.00    +0.000 A 
ATOM     15  C   UNL     1      43.780   3.001  10.630  0.00  0.00    +0.000 A 
ATOM     16  N   UNL     1      44.335   1.919  10.000  0.00  0.00    +0.000 N 
ATOM     17  C   UNL     1      45.240   2.337   9.055  0.00  0.00    +0.000 A 
ATOM     18  C   UNL     1      46.084   1.606   8.229  0.00  0.00    +0.000 A 
ATOM     19  N   UNL     1      46.851   2.260   7.327  0.00  0.00    +0.000 NA
ATOM     20  C   UNL     1      46.782   3.607   7.267  0.00  0.00    +0.000 A 
ATOM     21  C   UNL     1      46.004   4.400   8.097  0.00  0.00    +0.000 A 
ATOM     22  C   UNL     1      45.216   3.730   9.044  0.00  0.00    +0.000 A 
ATOM     23  H   UNL     1      44.135   0.953  10.219  0.00  0.00    +0.000 HD
ENDBRANCH  13  14
ENDBRANCH   4  13
TORSDOF 6
ENDMDL
MODEL 3
REMARK VINA RESULT:    -7.098      2.449      6.488
REMARK INTER + INTRA:          -9.810
REMARK INTER:                  -9.170
REMARK INTRA:                  -0.640
REMARK UNBOUND:                -0.430
REMARK  Name = 
REMARK  6 active torsions:
REMARK  status: ('A' for Active; 'I' for Inactive)
REMARK    1  A    between atoms: N_1  and  C_2
REMARK    2  A    between atoms: C_2  and  C_3
REMARK    3  A    between atoms: C_3  and  O_4
REMARK    4  A    between atoms: O_4  and  C_5
REMARK    5  A    between atoms: C_8  and  C_9
REMARK    6  A    between atoms: C_9  and  C_10
REMARK                            x       y       z     vdW  Elec       q    Type
REMARK                         _______ _______ _______ _____ _____    ______ ____
ROOT
ATOM      1  C   UNL     1      45.064   2.680   8.922  0.00  0.00    +0.000 A 
ATOM      2  C   UNL     1      44.493   2.164  10.073  0.00  0.00    +0.000 A 
ATOM      3  C   UNL     1      43.782   3.027  10.904  0.00  0.00    +0.000 A 
ATOM      4  C   UNL     1      43.657   4.376  10.559  0.00  0.00    +0.000 A 
ATOM      5  C   UNL     1      44.209   4.768   9.340  0.00  0.00    +0.000 A 
ATOM      6  N   UNL     1      44.904   3.957   8.517  0.00  0.00    +0.000 NA
ENDROOT
BRANCH   1   7
ATOM      7  O   UNL     1      45.841   1.828   8.158  0.00  0.00    +0.000 OA
BRANCH   7   8
ATOM      8  C   UNL     1      46.660   2.569   7.239  0.00  0.00    +0.000 C 
BRANCH   8   9
ATOM      9  C   UNL     1      47.961   1.807   6.959  0.00  0.00    +0.000 C 
BRANCH   9  10
ATOM     10  N   UNL     1      48.391   1.901   5.561  0.00  0.00    +0.000 NA
ATOM     11  H   UNL     1      49.406   1.973   5.527  0.00  0.00    +0.000 HD
ATOM     12  H   UNL     1      48.027   2.772   5.173  0.00  0.00    +0.000 HD
ENDBRANCH   9  10
ENDBRANCH   8   9
ENDBRANCH   7   8
ENDBRANCH   1   7
BRANCH   4  13
ATOM     13  C   UNL     1      43.069   5.401  11.504  0.00  0.00    +0.000 C 
BRANCH  13  14
ATOM     14  C   UNL     1      44.263   6.201  11.929  0.00  0.00    +0.000 A 
ATOM     15  C   UNL     1      44.612   7.460  11.476  0.00  0.00    +0.000 A 
ATOM     16  N   UNL     1      45.893   7.721  11.883  0.00  0.00    +0.000 N 
ATOM     17  C   UNL     1      46.360   6.689  12.661  0.00  0.00    +0.000 A 
ATOM     18  C   UNL     1      47.608   6.484  13.234  0.00  0.00    +0.000 A 
ATOM     19  N   UNL     1      47.802   5.400  14.018  0.00  0.00    +0.000 NA
ATOM     20  C   UNL     1      46.778   4.542  14.211  0.00  0.00    +0.000 A 
ATOM     21  C   UNL     1      45.526   4.658  13.628  0.00  0.00    +0.000 A 
ATOM     22  C   UNL     1      45.320   5.772  12.801  0.00  0.00    +0.000 A 
ATOM     23  H   UNL     1      46.432   8.536  11.623  0.00  0.00    +0.000 HD
ENDBRANCH  13  14
ENDBRANCH   4  13
TORSDOF 6
ENDMDL
MODEL 4
REMARK VINA RESULT:    -6.867      2.559      3.472
REMARK INTER + INTRA:          -9.506
REMARK INTER:                  -8.820
REMARK INTRA:                  -0.685
REMARK UNBOUND:                -0.430
REMARK  Name = 
REMARK  6 active torsions:
REMARK  status: ('A' for Active; 'I' for Inactive)
REMARK    1  A    between atoms: N_1  and  C_2
REMARK    2  A    between atoms: C_2  and  C_3
REMARK    3  A    between atoms: C_3  and  O_4
REMARK    4  A    between atoms: O_4  and  C_5
REMARK    5  A    between atoms: C_8  and  C_9
REMARK    6  A    between atoms: C_9  and  C_10
REMARK                            x       y       z     vdW  Elec       q    Type
REMARK                         _______ _______ _______ _____ _____    ______ ____
ROOT
ATOM      1  C   UNL     1      47.902   6.157  13.413  0.00  0.00    +0.000 A 
ATOM      2  C   UNL     1      47.110   5.074  13.760  0.00  0.00    +0.000 A 
ATOM      3  C   UNL     1      45.927   4.867  13.053  0.00  0.00    +0.000 A 
ATOM      4  C   UNL     1      45.574   5.741  12.020  0.00  0.00    +0.000 A 
ATOM      5  C   UNL     1      46.483   6.751  11.711  0.00  0.00    +0.000 A 
ATOM      6  N   UNL     1      47.634   6.978  12.377  0.00  0.00    +0.000 NA
ENDROOT
BRANCH   1   7
ATOM      7  O   UNL     1      49.025   6.397  14.184  0.00  0.00    +0.000 OA
BRANCH   7   8
ATOM      8  C   UNL     1      48.658   6.907  15.477  0.00  0.00    +0.000 C 
BRANCH   8   9
ATOM      9  C   UNL     1      48.712   8.440  15.475  0.00  0.00    +0.000 C 
BRANCH   9  10
ATOM     10  N   UNL     1      47.443   9.057  15.078  0.00  0.00    +0.000 NA
ATOM     11  H   UNL     1      47.543   9.459  14.148  0.00  0.00    +0.000 HD
ATOM     12  H   UNL     1      47.256   9.836  15.710  0.00  0.00    +0.000 HD
ENDBRANCH   9  10
ENDBRANCH   8   9
ENDBRANCH   7   8
ENDBRANCH   1   7
BRANCH   4  13
ATOM     13  C   UNL     1      44.220   5.689  11.345  0.00  0.00    +0.000 C 
BRANCH  13  14
ATOM     14  C   UNL     1      44.193   4.321  10.735  0.00  0.00    +0.000 A 
ATOM     15  C   UNL     1      43.562   3.203  11.249  0.00  0.00    +0.000 A 
ATOM     16  N   UNL     1      44.002   2.107  10.558  0.00  0.00    +0.000 N 
ATOM     17  C   UNL     1      44.850   2.495   9.548  0.00  0.00    +0.000 A 
ATOM     18  C   UNL     1      45.582   1.738   8.643  0.00  0.00    +0.000 A 
ATOM     19  N   UNL     1      46.308   2.368   7.693  0.00  0.00    +0.000 NA
ATOM     20  C   UNL     1      46.309   3.718   7.661  0.00  0.00    +0.000 A 
ATOM     21  C   UNL     1      45.646   4.534   8.566  0.00  0.00    +0.000 A 
ATOM     22  C   UNL     1      44.902   3.887   9.564  0.00  0.00    +0.000 A 
ATOM     23  H   UNL     1      43.767   1.148  10.776  0.00  0.00    +0.000 HD
ENDBRANCH  13  14
ENDBRANCH   4  13
TORSDOF 6
ENDMDL
MODEL 5
REMARK VINA RESULT:    -6.765      2.854      7.023
REMARK INTER + INTRA:          -9.371
REMARK INTER:                  -8.795
REMARK INTRA:                  -0.576
REMARK UNBOUND:                -0.430
REMARK  Name = 
REMARK  6 active torsions:
REMARK  status: ('A' for Active; 'I' for Inactive)
REMARK    1  A    between atoms: N_1  and  C_2
REMARK    2  A    between atoms: C_2  and  C_3
REMARK    3  A    between atoms: C_3  and  O_4
REMARK    4  A    between atoms: O_4  and  C_5
REMARK    5  A    between atoms: C_8  and  C_9
REMARK    6  A    between atoms: C_9  and  C_10
REMARK                            x       y       z     vdW  Elec       q    Type
REMARK                         _______ _______ _______ _____ _____    ______ ____
ROOT
ATOM      1  C   UNL     1      45.237   3.542   8.574  0.00  0.00    +0.000 A 
ATOM      2  C   UNL     1      45.817   4.797   8.654  0.00  0.00    +0.000 A 
ATOM      3  C   UNL     1      45.674   5.518   9.838  0.00  0.00    +0.000 A 
ATOM      4  C   UNL     1      44.962   4.963  10.906  0.00  0.00    +0.000 A 
ATOM      5  C   UNL     1      44.486   3.664  10.739  0.00  0.00    +0.000 A 
ATOM      6  N   UNL     1      44.606   2.943   9.605  0.00  0.00    +0.000 NA
ENDROOT
BRANCH   1   7
ATOM      7  O   UNL     1      45.313   2.881   7.362  0.00  0.00    +0.000 OA
BRANCH   7   8
ATOM      8  C   UNL     1      46.561   3.159   6.705  0.00  0.00    +0.000 C 
BRANCH   8   9
ATOM      9  C   UNL     1      47.546   2.006   6.932  0.00  0.00    +0.000 C 
BRANCH   9  10
ATOM     10  N   UNL     1      48.431   1.776   5.787  0.00  0.00    +0.000 NA
ATOM     11  H   UNL     1      47.911   1.932   4.925  0.00  0.00    +0.000 HD
ATOM     12  H   UNL     1      48.703   0.792   5.786  0.00  0.00    +0.000 HD
ENDBRANCH   9  10
ENDBRANCH   8   9
ENDBRANCH   7   8
ENDBRANCH   1   7
BRANCH   4  13
ATOM     13  C   UNL     1      44.605   5.763  12.141  0.00  0.00    +0.000 C 
BRANCH  13  14
ATOM     14  C   UNL     1      45.836   5.653  12.989  0.00  0.00    +0.000 A 
ATOM     15  C   UNL     1      46.047   4.754  14.019  0.00  0.00    +0.000 A 
ATOM     16  N   UNL     1      47.156   5.155  14.715  0.00  0.00    +0.000 N 
ATOM     17  C   UNL     1      47.721   6.252  14.112  0.00  0.00    +0.000 A 
ATOM     18  C   UNL     1      48.804   7.034  14.491  0.00  0.00    +0.000 A 
ATOM     19  N   UNL     1      49.206   8.040  13.683  0.00  0.00    +0.000 NA
ATOM     20  C   UNL     1      48.532   8.263  12.534  0.00  0.00    +0.000 A 
ATOM     21  C   UNL     1      47.412   7.558  12.122  0.00  0.00    +0.000 A 
ATOM     22  C   UNL     1      46.980   6.521  12.963  0.00  0.00    +0.000 A 
ATOM     23  H   UNL     1      47.494   4.728  15.567  0.00  0.00    +0.000 HD
ENDBRANCH  13  14
ENDBRANCH   4  13
TORSDOF 6
ENDMDL
MODEL 6
REMARK VINA RESULT:    -6.687      2.228      2.912
REMARK INTER + INTRA:          -9.268
REMARK INTER:                  -8.764
REMARK INTRA:                  -0.504
REMARK UNBOUND:                -0.430
REMARK  Name = 
REMARK  6 active torsions:
REMARK  status: ('A' for Active; 'I' for Inactive)
REMARK    1  A    between atoms: N_1  and  C_2
REMARK    2  A    between atoms: C_2  and  C_3
REMARK    3  A    between atoms: C_3  and  O_4
REMARK    4  A    between atoms: O_4  and  C_5
REMARK    5  A    between atoms: C_8  and  C_9
REMARK    6  A    between atoms: C_9  and  C_10
REMARK                            x       y       z     vdW  Elec       q    Type
REMARK                         _______ _______ _______ _____ _____    ______ ____
ROOT
ATOM      1  C   UNL     1      46.695   5.855  12.678  0.00  0.00    +0.000 A 
ATOM      2  C   UNL     1      45.926   4.710  12.806  0.00  0.00    +0.000 A 
ATOM      3  C   UNL     1      45.192   4.279  11.702  0.00  0.00    +0.000 A 
ATOM      4  C   UNL     1      45.252   4.999  10.506  0.00  0.00    +0.000 A 
ATOM      5  C   UNL     1      46.116   6.092  10.471  0.00  0.00    +0.000 A 
ATOM      6  N   UNL     1      46.836   6.535  11.522  0.00  0.00    +0.000 NA
ENDROOT
BRANCH   1   7
ATOM      7  O   UNL     1      47.344   6.316  13.809  0.00  0.00    +0.000 OA
BRANCH   7   8
ATOM      8  C   UNL     1      47.681   7.706  13.674  0.00  0.00    +0.000 C 
BRANCH   8   9
ATOM      9  C   UNL     1      48.983   8.010  14.424  0.00  0.00    +0.000 C 
BRANCH   9  10
ATOM     10  N   UNL     1      49.943   6.904  14.376  0.00  0.00    +0.000 NA
ATOM     11  H   UNL     1      50.006   6.475  15.298  0.00  0.00    +0.000 HD
ATOM     12  H   UNL     1      50.866   7.290  14.175  0.00  0.00    +0.000 HD
ENDBRANCH   9  10
ENDBRANCH   8   9
ENDBRANCH   7   8
ENDBRANCH   1   7
BRANCH   4  13
ATOM     13  C   UNL     1      44.337   4.701   9.337  0.00  0.00    +0.000 C 
BRANCH  13  14
ATOM     14  C   UNL     1      44.747   3.320   8.924  0.00  0.00    +0.000 A 
ATOM     15  C   UNL     1      44.214   2.131   9.388  0.00  0.00    +0.000 A 
ATOM     16  N   UNL     1      45.035   1.110   8.990  0.00  0.00    +0.000 N 
ATOM     17  C   UNL     1      46.052   1.601   8.207  0.00  0.00    +0.000 A 
ATOM     18  C   UNL     1      47.145   0.958   7.640  0.00  0.00    +0.000 A 
ATOM     19  N   UNL     1      47.985   1.662   6.849  0.00  0.00    +0.000 NA
ATOM     20  C   UNL     1      47.743   2.975   6.645  0.00  0.00    +0.000 A 
ATOM     21  C   UNL     1      46.704   3.689   7.222  0.00  0.00    +0.000 A 
ATOM     22  C   UNL     1      45.836   2.969   8.056  0.00  0.00    +0.000 A 
ATOM     23  H   UNL     1      44.930   0.141   9.259  0.00  0.00    +0.000 HD
ENDBRANCH  13  14
ENDBRANCH   4  13
TORSDOF 6
ENDMDL
MODEL 7
REMARK VINA RESULT:    -6.502      3.503      7.238
REMARK INTER + INTRA:          -9.024
REMARK INTER:                  -8.589
REMARK INTRA:                  -0.435
REMARK UNBOUND:                -0.430
REMARK  Name = 
REMARK  6 active torsions:
REMARK  status: ('A' for Active; 'I' for Inactive)
REMARK    1  A    between atoms: N_1  and  C_2
REMARK    2  A    between atoms: C_2  and  C_3
REMARK    3  A    between atoms: C_3  and  O_4
REMARK    4  A    between atoms: O_4  and  C_5
REMARK    5  A    between atoms: C_8  and  C_9
REMARK    6  A    between atoms: C_9  and  C_10
REMARK                            x       y       z     vdW  Elec       q    Type
REMARK                         _______ _______ _______ _____ _____    ______ ____
ROOT
ATOM      1  C   UNL     1      45.627   3.477   8.046  0.00  0.00    +0.000 A 
ATOM      2  C   UNL     1      44.933   2.645   8.909  0.00  0.00    +0.000 A 
ATOM      3  C   UNL     1      44.607   3.128  10.175  0.00  0.00    +0.000 A 
ATOM      4  C   UNL     1      44.978   4.426  10.538  0.00  0.00    +0.000 A 
ATOM      5  C   UNL     1      45.607   5.198   9.563  0.00  0.00    +0.000 A 
ATOM      6  N   UNL     1      45.938   4.758   8.332  0.00  0.00    +0.000 NA
ENDROOT
BRANCH   1   7
ATOM      7  O   UNL     1      46.019   2.948   6.830  0.00  0.00    +0.000 OA
BRANCH   7   8
ATOM      8  C   UNL     1      46.829   1.776   7.018  0.00  0.00    +0.000 C 
BRANCH   8   9
ATOM      9  C   UNL     1      48.200   1.969   6.360  0.00  0.00    +0.000 C 
BRANCH   9  10
ATOM     10  N   UNL     1      48.153   2.841   5.184  0.00  0.00    +0.000 NA
ATOM     11  H   UNL     1      47.181   3.038   4.951  0.00  0.00    +0.000 HD
ATOM     12  H   UNL     1      48.540   2.329   4.391  0.00  0.00    +0.000 HD
ENDBRANCH   9  10
ENDBRANCH   8   9
ENDBRANCH   7   8
ENDBRANCH   1   7
BRANCH   4  13
ATOM     13  C   UNL     1      44.829   4.943  11.954  0.00  0.00    +0.000 C 
BRANCH  13  14
ATOM     14  C   UNL     1      44.203   6.291  11.762  0.00  0.00    +0.000 A 
ATOM     15  C   UNL     1      42.922   6.545  11.305  0.00  0.00    +0.000 A 
ATOM     16  N   UNL     1      42.832   7.878  11.006  0.00  0.00    +0.000 N 
ATOM     17  C   UNL     1      44.004   8.516  11.333  0.00  0.00    +0.000 A 
ATOM     18  C   UNL     1      44.395   9.835  11.150  0.00  0.00    +0.000 A 
ATOM     19  N   UNL     1      45.597  10.237  11.620  0.00  0.00    +0.000 NA
ATOM     20  C   UNL     1      46.388   9.337  12.243  0.00  0.00    +0.000 A 
ATOM     21  C   UNL     1      46.083   7.995  12.410  0.00  0.00    +0.000 A 
ATOM     22  C   UNL     1      44.844   7.567  11.913  0.00  0.00    +0.000 A 
ATOM     23  H   UNL     1      42.033   8.325  10.576  0.00  0.00    +0.000 HD
ENDBRANCH  13  14
ENDBRANCH   4  13
TORSDOF 6
ENDMDL
MODEL 8
REMARK VINA RESULT:    -6.181      3.391      4.949
REMARK INTER + INTRA:          -8.598
REMARK INTER:                  -7.976
REMARK INTRA:                  -0.622
REMARK UNBOUND:                -0.430
REMARK  Name = 
REMARK  6 active torsions:
REMARK  status: ('A' for Active; 'I' for Inactive)
REMARK    1  A    between atoms: N_1  and  C_2
REMARK    2  A    between atoms: C_2  and  C_3
REMARK    3  A    between atoms: C_3  and  O_4
REMARK    4  A    between atoms: O_4  and  C_5
REMARK    5  A    between atoms: C_8  and  C_9
REMARK    6  A    between atoms: C_9  and  C_10
REMARK                            x       y       z     vdW  Elec       q    Type
REMARK                         _______ _______ _______ _____ _____    ______ ____
ROOT
ATOM      1  C   UNL     1      48.079   5.081  16.410  0.00  0.00    +0.000 A 
ATOM      2  C   UNL     1      48.774   6.248  16.139  0.00  0.00    +0.000 A 
ATOM      3  C   UNL     1      48.693   6.784  14.856  0.00  0.00    +0.000 A 
ATOM      4  C   UNL     1      47.918   6.144  13.884  0.00  0.00    +0.000 A 
ATOM      5  C   UNL     1      47.203   5.018  14.290  0.00  0.00    +0.000 A 
ATOM      6  N   UNL     1      47.263   4.475  15.523  0.00  0.00    +0.000 NA
ENDROOT
BRANCH   1   7
ATOM      7  O   UNL     1      48.243   4.517  17.662  0.00  0.00    +0.000 OA
BRANCH   7   8
ATOM      8  C   UNL     1      48.204   3.082  17.585  0.00  0.00    +0.000 C 
BRANCH   8   9
ATOM      9  C   UNL     1      49.595   2.533  17.246  0.00  0.00    +0.000 C 
BRANCH   9  10
ATOM     10  N   UNL     1      49.614   1.742  16.013  0.00  0.00    +0.000 NA
ATOM     11  H   UNL     1      48.671   1.410  15.814  0.00  0.00    +0.000 HD
ATOM     12  H   UNL     1      50.183   0.911  16.176  0.00  0.00    +0.000 HD
ENDBRANCH   9  10
ENDBRANCH   8   9
ENDBRANCH   7   8
ENDBRANCH   1   7
BRANCH   4  13
ATOM     13  C   UNL     1      47.941   6.560  12.429  0.00  0.00    +0.000 C 
BRANCH  13  14
ATOM     14  C   UNL     1      46.516   6.937  12.157  0.00  0.00    +0.000 A 
ATOM     15  C   UNL     1      45.842   8.029  12.673  0.00  0.00    +0.000 A 
ATOM     16  N   UNL     1      44.507   7.866  12.418  0.00  0.00    +0.000 N 
ATOM     17  C   UNL     1      44.303   6.728  11.676  0.00  0.00    +0.000 A 
ATOM     18  C   UNL     1      43.127   6.131  11.244  0.00  0.00    +0.000 A 
ATOM     19  N   UNL     1      43.196   5.028  10.464  0.00  0.00    +0.000 NA
ATOM     20  C   UNL     1      44.410   4.533  10.139  0.00  0.00    +0.000 A 
ATOM     21  C   UNL     1      45.619   5.047  10.580  0.00  0.00    +0.000 A 
ATOM     22  C   UNL     1      45.556   6.182  11.402  0.00  0.00    +0.000 A 
ATOM     23  H   UNL     1      43.772   8.474  12.754  0.00  0.00    +0.000 HD
ENDBRANCH  13  14
ENDBRANCH   4  13
TORSDOF 6
ENDMDL
MODEL 9
REMARK VINA RESULT:    -5.919      3.475      4.646
REMARK INTER + INTRA:          -8.253
REMARK INTER:                  -7.584
REMARK INTRA:                  -0.668
REMARK UNBOUND:                -0.430
REMARK  Name = 
REMARK  6 active torsions:
REMARK  status: ('A' for Active; 'I' for Inactive)
REMARK    1  A    between atoms: N_1  and  C_2
REMARK    2  A    between atoms: C_2  and  C_3
REMARK    3  A    between atoms: C_3  and  O_4
REMARK    4  A    between atoms: O_4  and  C_5
REMARK    5  A    between atoms: C_8  and  C_9
REMARK    6  A    between atoms: C_9  and  C_10
REMARK                            x       y       z     vdW  Elec       q    Type
REMARK                         _______ _______ _______ _____ _____    ______ ____
ROOT
ATOM      1  C   UNL     1      48.523   6.611  15.471  0.00  0.00    +0.000 A 
ATOM      2  C   UNL     1      48.556   7.841  14.836  0.00  0.00    +0.000 A 
ATOM      3  C   UNL     1      48.107   7.918  13.518  0.00  0.00    +0.000 A 
ATOM      4  C   UNL     1      47.636   6.768  12.878  0.00  0.00    +0.000 A 
ATOM      5  C   UNL     1      47.580   5.601  13.639  0.00  0.00    +0.000 A 
ATOM      6  N   UNL     1      48.008   5.495  14.914  0.00  0.00    +0.000 NA
ENDROOT
BRANCH   1   7
ATOM      7  O   UNL     1      49.055   6.537  16.745  0.00  0.00    +0.000 OA
BRANCH   7   8
ATOM      8  C   UNL     1      48.754   5.270  17.353  0.00  0.00    +0.000 C 
BRANCH   8   9
ATOM      9  C   UNL     1      47.963   5.480  18.649  0.00  0.00    +0.000 C 
BRANCH   9  10
ATOM     10  N   UNL     1      46.528   5.228  18.492  0.00  0.00    +0.000 NA
ATOM     11  H   UNL     1      46.379   4.646  17.669  0.00  0.00    +0.000 HD
ATOM     12  H   UNL     1      46.066   6.118  18.302  0.00  0.00    +0.000 HD
ENDBRANCH   9  10
ENDBRANCH   8   9
ENDBRANCH   7   8
ENDBRANCH   1   7
BRANCH   4  13
ATOM     13  C   UNL     1      47.319   6.740  11.398  0.00  0.00    +0.000 C 
BRANCH  13  14
ATOM     14  C   UNL     1      45.821   6.696  11.370  0.00  0.00    +0.000 A 
ATOM     15  C   UNL     1      44.962   7.748  11.633  0.00  0.00    +0.000 A 
ATOM     16  N   UNL     1      43.699   7.242  11.780  0.00  0.00    +0.000 N 
ATOM     17  C   UNL     1      43.701   5.890  11.539  0.00  0.00    +0.000 A 
ATOM     18  C   UNL     1      42.679   4.954  11.633  0.00  0.00    +0.000 A 
ATOM     19  N   UNL     1      42.925   3.673  11.279  0.00  0.00    +0.000 NA
ATOM     20  C   UNL     1      44.163   3.338  10.857  0.00  0.00    +0.000 A 
ATOM     21  C   UNL     1      45.240   4.208  10.792  0.00  0.00    +0.000 A 
ATOM     22  C   UNL     1      44.998   5.536  11.170  0.00  0.00    +0.000 A 
ATOM     23  H   UNL     1      42.886   7.777  12.057  0.00  0.00    +0.000 HD
ENDBRANCH  13  14
ENDBRANCH   4  13
TORSDOF 6
ENDMDL
