MODEL 1
REMARK VINA RESULT:    -9.327      0.000      0.000
REMARK INTER + INTRA:         -12.894
REMARK INTER:                 -12.053
REMARK INTRA:                  -0.841
REMARK UNBOUND:                -0.841
REMARK  Name = 
REMARK  5 active torsions:
REMARK  status: ('A' for Active; 'I' for Inactive)
REMARK    1  A    between atoms: C_2  and  C_4
REMARK    2  A    between atoms: C_7  and  O_8
REMARK    3  A    between atoms: O_8  and  C_9
REMARK    4  A    between atoms: C_9  and  C_10
REMARK    5  A    between atoms: C_14  and  C_15
REMARK                            x       y       z     vdW  Elec       q    Type
REMARK                         _______ _______ _______ _____ _____    ______ ____
ROOT
ATOM      1  C   UNL     1      43.970   4.862  11.443  0.00  0.00    +0.000 C 
ATOM      2  C   UNL     1      42.707   5.003  12.284  0.00  0.00    +0.000 C 
ATOM      3  C   UNL     1      42.961   5.960  11.169  0.00  0.00    +0.000 C 
ENDROOT
BRANCH   1   4
ATOM      4  C   UNL     1      45.310   5.180  12.088  0.00  0.00    +0.000 A 
ATOM      5  C   UNL     1      46.085   6.252  11.621  0.00  0.00    +0.000 A 
ATOM      6  C   UNL     1      47.271   6.620  12.251  0.00  0.00    +0.000 A 
ATOM      7  C   UNL     1      47.699   5.933  13.387  0.00  0.00    +0.000 A 
ATOM      8  C   UNL     1      46.956   4.864  13.911  0.00  0.00    +0.000 A 
ATOM      9  C   UNL     1      45.789   4.484  13.216  0.00  0.00    +0.000 A 
BRANCH   8  10
ATOM     10  C   UNL     1      47.334   4.203  15.176  0.00  0.00    +0.000 A 
ATOM     11  C   UNL     1      47.096   4.779  16.426  0.00  0.00    +0.000 A 
ATOM     12  N   UNL     1      47.396   4.181  17.606  0.00  0.00    +0.000 NA
ATOM     13  C   UNL     1      47.952   2.959  17.496  0.00  0.00    +0.000 A 
ATOM     14  C   UNL     1      48.192   2.364  16.269  0.00  0.00    +0.000 A 
ATOM     15  N   UNL     1      47.883   2.964  15.090  0.00  0.00    +0.000 NA
ENDBRANCH   8  10
ENDBRANCH   1   4
BRANCH   1  16
ATOM     16  O   UNL     1      43.913   3.643  10.663  0.00  0.00    +0.000 OA
BRANCH  16  20
ATOM     17  C   UNL     1      46.494   2.738   7.518  0.00  0.00    +0.000 A 
ATOM     18  C   UNL     1      46.149   4.078   7.733  0.00  0.00    +0.000 A 
ATOM     19  C   UNL     1      45.302   4.427   8.791  0.00  0.00    +0.000 A 
ATOM     20  C   UNL     1      44.793   3.443   9.634  0.00  0.00    +0.000 A 
ATOM     21  C   UNL     1      45.155   2.108   9.431  0.00  0.00    +0.000 A 
ATOM     22  C   UNL     1      45.993   1.752   8.374  0.00  0.00    +0.000 A 
BRANCH  17  24
ATOM     23  N   UNL     1      47.234   3.048   5.218  0.00  0.00    +0.000 N 
ATOM     24  C   UNL     1      47.343   2.322   6.374  0.00  0.00    +0.000 C 
ATOM     25  O   UNL     1      48.131   1.391   6.460  0.00  0.00    +0.000 OA
ATOM     26  H   UNL     1      47.883   2.815   4.479  0.00  0.00    +0.000 HD
ATOM     27  H   UNL     1      46.793   3.957   5.188  0.00  0.00    +0.000 HD
ENDBRANCH  17  24
ENDBRANCH  16  20
ENDBRANCH   1  16
TORSDOF 5
ENDMDL
MODEL 2
REMARK VINA RESULT:    -7.928      2.044      2.808
REMARK INTER + INTRA:         -11.087
REMARK INTER:                 -10.962
REMARK INTRA:                  -0.125
REMARK UNBOUND:                -0.841
REMARK  Name = 
REMARK  5 active torsions:
REMARK  status: ('A' for Active; 'I' for Inactive)
REMARK    1  A    between atoms: C_2  and  C_4
REMARK    2  A    between atoms: C_7  and  O_8
REMARK    3  A    between atoms: O_8  and  C_9
REMARK    4  A    between atoms: C_9  and  C_10
REMARK    5  A    between atoms: C_14  and  C_15
REMARK                            x       y       z     vdW  Elec       q    Type
REMARK                         _______ _______ _______ _____ _____    ______ ____
ROOT
ATOM      1  C   UNL     1      44.207   4.283  11.623  0.00  0.00    +0.000 C 
ATOM      2  C   UNL     1      44.793   3.119  12.412  0.00  0.00    +0.000 C 
ATOM      3  C   UNL     1      43.471   3.687  12.807  0.00  0.00    +0.000 C 
ENDROOT
BRANCH   1   4
ATOM      4  C   UNL     1      44.879   5.642  11.728  0.00  0.00    +0.000 A 
ATOM      5  C   UNL     1      44.204   6.801  11.317  0.00  0.00    +0.000 A 
ATOM      6  C   UNL     1      44.761   8.066  11.487  0.00  0.00    +0.000 A 
ATOM      7  C   UNL     1      46.006   8.203  12.101  0.00  0.00    +0.000 A 
ATOM      8  C   UNL     1      46.720   7.081  12.550  0.00  0.00    +0.000 A 
ATOM      9  C   UNL     1      46.151   5.813  12.312  0.00  0.00    +0.000 A 
BRANCH   8  10
ATOM     10  C   UNL     1      47.982   7.216  13.303  0.00  0.00    +0.000 A 
ATOM     11  C   UNL     1      48.241   6.496  14.473  0.00  0.00    +0.000 A 
ATOM     12  N   UNL     1      49.404   6.568  15.166  0.00  0.00    +0.000 NA
ATOM     13  C   UNL     1      50.325   7.400  14.641  0.00  0.00    +0.000 A 
ATOM     14  C   UNL     1      50.095   8.119  13.481  0.00  0.00    +0.000 A 
ATOM     15  N   UNL     1      48.931   8.038  12.786  0.00  0.00    +0.000 NA
ENDBRANCH   8  10
ENDBRANCH   1   4
BRANCH   1  16
ATOM     16  O   UNL     1      43.856   3.849  10.287  0.00  0.00    +0.000 OA
BRANCH  16  20
ATOM     17  C   UNL     1      46.721   2.742   7.469  0.00  0.00    +0.000 A 
ATOM     18  C   UNL     1      46.469   4.106   7.663  0.00  0.00    +0.000 A 
ATOM     19  C   UNL     1      45.530   4.521   8.615  0.00  0.00    +0.000 A 
ATOM     20  C   UNL     1      44.836   3.579   9.371  0.00  0.00    +0.000 A 
ATOM     21  C   UNL     1      45.103   2.219   9.190  0.00  0.00    +0.000 A 
ATOM     22  C   UNL     1      46.034   1.798   8.238  0.00  0.00    +0.000 A 
BRANCH  17  24
ATOM     23  N   UNL     1      47.742   2.983   5.270  0.00  0.00    +0.000 N 
ATOM     24  C   UNL     1      47.667   2.261   6.431  0.00  0.00    +0.000 C 
ATOM     25  O   UNL     1      48.375   1.280   6.608  0.00  0.00    +0.000 OA
ATOM     26  H   UNL     1      48.455   2.701   4.612  0.00  0.00    +0.000 HD
ATOM     27  H   UNL     1      47.370   3.919   5.189  0.00  0.00    +0.000 HD
ENDBRANCH  17  24
ENDBRANCH  16  20
ENDBRANCH   1  16
TORSDOF 5
ENDMDL
MODEL 3
REMARK VINA RESULT:    -7.352      2.590      7.511
REMARK INTER + INTRA:         -10.343
REMARK INTER:                  -9.549
REMARK INTRA:                  -0.794
REMARK UNBOUND:                -0.841
REMARK  Name = 
REMARK  5 active torsions:
REMARK  status: ('A' for Active; 'I' for Inactive)
REMARK    1  A    between atoms: C_2  and  C_4
REMARK    2  A    between atoms: C_7  and  O_8
REMARK    3  A    between atoms: O_8  and  C_9
REMARK    4  A    between atoms: C_9  and  C_10
REMARK    5  A    between atoms: C_14  and  C_15
REMARK                            x       y       z     vdW  Elec       q    Type
REMARK                         _______ _______ _______ _____ _____    ______ ____
ROOT
ATOM      1  C   UNL     1      46.302   7.367  12.418  0.00  0.00    +0.000 C 
ATOM      2  C   UNL     1      46.469   8.767  11.841  0.00  0.00    +0.000 C 
ATOM      3  C   UNL     1      45.724   8.581  13.120  0.00  0.00    +0.000 C 
ENDROOT
BRANCH   1   4
ATOM      4  C   UNL     1      45.397   6.386  11.690  0.00  0.00    +0.000 A 
ATOM      5  C   UNL     1      44.005   6.446  11.856  0.00  0.00    +0.000 A 
ATOM      6  C   UNL     1      43.150   5.619  11.132  0.00  0.00    +0.000 A 
ATOM      7  C   UNL     1      43.672   4.722  10.199  0.00  0.00    +0.000 A 
ATOM      8  C   UNL     1      45.054   4.630   9.976  0.00  0.00    +0.000 A 
ATOM      9  C   UNL     1      45.893   5.443  10.766  0.00  0.00    +0.000 A 
BRANCH   8  10
ATOM     10  C   UNL     1      45.613   3.772   8.914  0.00  0.00    +0.000 A 
ATOM     11  C   UNL     1      45.587   2.376   8.983  0.00  0.00    +0.000 A 
ATOM     12  N   UNL     1      46.058   1.560   8.008  0.00  0.00    +0.000 NA
ATOM     13  C   UNL     1      46.564   2.195   6.933  0.00  0.00    +0.000 A 
ATOM     14  C   UNL     1      46.595   3.576   6.838  0.00  0.00    +0.000 A 
ATOM     15  N   UNL     1      46.116   4.390   7.815  0.00  0.00    +0.000 NA
ENDBRANCH   8  10
ENDBRANCH   1   4
BRANCH   1  16
ATOM     16  O   UNL     1      47.585   6.851  12.847  0.00  0.00    +0.000 OA
BRANCH  16  20
ATOM     17  C   UNL     1      47.845   4.594  16.341  0.00  0.00    +0.000 A 
ATOM     18  C   UNL     1      48.558   5.797  16.270  0.00  0.00    +0.000 A 
ATOM     19  C   UNL     1      48.480   6.595  15.122  0.00  0.00    +0.000 A 
ATOM     20  C   UNL     1      47.698   6.195  14.043  0.00  0.00    +0.000 A 
ATOM     21  C   UNL     1      46.972   5.003  14.123  0.00  0.00    +0.000 A 
ATOM     22  C   UNL     1      47.049   4.199  15.261  0.00  0.00    +0.000 A 
BRANCH  17  24
ATOM     23  N   UNL     1      46.941   2.777  17.690  0.00  0.00    +0.000 N 
ATOM     24  C   UNL     1      47.945   3.692  17.517  0.00  0.00    +0.000 C 
ATOM     25  O   UNL     1      48.895   3.737  18.285  0.00  0.00    +0.000 OA
ATOM     26  H   UNL     1      47.068   2.109  18.438  0.00  0.00    +0.000 HD
ATOM     27  H   UNL     1      46.287   2.545  16.956  0.00  0.00    +0.000 HD
ENDBRANCH  17  24
ENDBRANCH  16  20
ENDBRANCH   1  16
TORSDOF 5
ENDMDL
MODEL 4
REMARK VINA RESULT:    -6.787      2.780      4.482
REMARK INTER + INTRA:          -9.612
REMARK INTER:                  -8.875
REMARK INTRA:                  -0.737
REMARK UNBOUND:                -0.841
REMARK  Name = 
REMARK  5 active torsions:
REMARK  status: ('A' for Active; 'I' for Inactive)
REMARK    1  A    between atoms: C_2  and  C_4
REMARK    2  A    between atoms: C_7  and  O_8
REMARK    3  A    between atoms: O_8  and  C_9
REMARK    4  A    between atoms: C_9  and  C_10
REMARK    5  A    between atoms: C_14  and  C_15
REMARK                            x       y       z     vdW  Elec       q    Type
REMARK                         _______ _______ _______ _____ _____    ______ ____
ROOT
ATOM      1  C   UNL     1      47.990   7.948  12.542  0.00  0.00    +0.000 C 
ATOM      2  C   UNL     1      48.734   9.021  11.758  0.00  0.00    +0.000 C 
ATOM      3  C   UNL     1      48.998   7.581  11.472  0.00  0.00    +0.000 C 
ENDROOT
BRANCH   1   4
ATOM      4  C   UNL     1      48.318   7.767  14.016  0.00  0.00    +0.000 A 
ATOM      5  C   UNL     1      48.517   8.884  14.841  0.00  0.00    +0.000 A 
ATOM      6  C   UNL     1      48.728   8.747  16.211  0.00  0.00    +0.000 A 
ATOM      7  C   UNL     1      48.720   7.480  16.795  0.00  0.00    +0.000 A 
ATOM      8  C   UNL     1      48.508   6.327  16.023  0.00  0.00    +0.000 A 
ATOM      9  C   UNL     1      48.352   6.498  14.632  0.00  0.00    +0.000 A 
BRANCH   8  10
ATOM     10  C   UNL     1      48.382   4.993  16.640  0.00  0.00    +0.000 A 
ATOM     11  C   UNL     1      47.147   4.368  16.837  0.00  0.00    +0.000 A 
ATOM     12  N   UNL     1      47.000   3.128  17.366  0.00  0.00    +0.000 NA
ATOM     13  C   UNL     1      48.152   2.515  17.699  0.00  0.00    +0.000 A 
ATOM     14  C   UNL     1      49.388   3.109  17.508  0.00  0.00    +0.000 A 
ATOM     15  N   UNL     1      49.530   4.349  16.971  0.00  0.00    +0.000 NA
ENDBRANCH   8  10
ENDBRANCH   1   4
BRANCH   1  16
ATOM     16  O   UNL     1      46.582   7.973  12.204  0.00  0.00    +0.000 OA
BRANCH  16  20
ATOM     17  C   UNL     1      44.671   4.375  11.323  0.00  0.00    +0.000 A 
ATOM     18  C   UNL     1      44.683   4.815  12.653  0.00  0.00    +0.000 A 
ATOM     19  C   UNL     1      45.296   6.029  12.987  0.00  0.00    +0.000 A 
ATOM     20  C   UNL     1      45.901   6.803  12.001  0.00  0.00    +0.000 A 
ATOM     21  C   UNL     1      45.870   6.372  10.672  0.00  0.00    +0.000 A 
ATOM     22  C   UNL     1      45.267   5.160  10.332  0.00  0.00    +0.000 A 
BRANCH  17  24
ATOM     23  N   UNL     1      44.787   2.303  10.047  0.00  0.00    +0.000 N 
ATOM     24  C   UNL     1      44.082   3.068  10.937  0.00  0.00    +0.000 C 
ATOM     25  O   UNL     1      43.027   2.670  11.411  0.00  0.00    +0.000 OA
ATOM     26  H   UNL     1      44.424   1.378   9.864  0.00  0.00    +0.000 HD
ATOM     27  H   UNL     1      45.759   2.478   9.833  0.00  0.00    +0.000 HD
ENDBRANCH  17  24
ENDBRANCH  16  20
ENDBRANCH   1  16
TORSDOF 5
ENDMDL
