MODEL 1
REMARK VINA RESULT:    -7.846      0.000      0.000
REMARK INTER + INTRA:         -12.981
REMARK INTER:                 -11.515
REMARK INTRA:                  -1.466
REMARK UNBOUND:                -1.466
REMARK  Name = 
REMARK  8 active torsions:
REMARK  status: ('A' for Active; 'I' for Inactive)
REMARK    1  A    between atoms: C_2  and  C_20
REMARK    2  A    between atoms: N_3  and  C_4
REMARK    3  A    between atoms: C_4  and  C_5
REMARK    4  A    between atoms: C_8  and  C_9
REMARK    5  A    between atoms: C_9  and  N_10
REMARK    6  A    between atoms: C_23  and  C_24
REMARK    7  A    between atoms: C_24  and  N_25
REMARK    8  A    between atoms: C_26  and  C_28
REMARK                            x       y       z     vdW  Elec       q    Type
REMARK                         _______ _______ _______ _____ _____    ______ ____
ROOT
ATOM      1  O   UNL     1      49.783   6.242  15.291  0.00  0.00    +0.000 OA
ATOM      2  C   UNL     1      49.362   7.043  14.466  0.00  0.00    +0.000 C 
ATOM      3  N   UNL     1      49.908   8.302  14.270  0.00  0.00    +0.000 N 
ATOM      4  H   UNL     1      49.326   8.983  13.805  0.00  0.00    +0.000 HD
ENDROOT
BRANCH   2   5
ATOM      5  C   UNL     1      48.160   6.691  13.643  0.00  0.00    +0.000 A 
ATOM      6  C   UNL     1      47.861   7.490  12.535  0.00  0.00    +0.000 A 
ATOM      7  C   UNL     1      46.725   7.240  11.755  0.00  0.00    +0.000 A 
ATOM      8  C   UNL     1      45.852   6.194  12.089  0.00  0.00    +0.000 A 
ATOM      9  C   UNL     1      46.170   5.378  13.192  0.00  0.00    +0.000 A 
ATOM     10  C   UNL     1      47.313   5.626  13.964  0.00  0.00    +0.000 A 
BRANCH   8  11
ATOM     11  C   UNL     1      44.574   5.976  11.315  0.00  0.00    +0.000 C 
BRANCH  11  12
ATOM     12  N   UNL     1      44.752   5.154  10.143  0.00  0.00    +0.000 N 
ATOM     13  C   UNL     1      44.496   3.800  10.128  0.00  0.00    +0.000 C 
ATOM     14  O   UNL     1      44.086   3.177  11.098  0.00  0.00    +0.000 OA
ATOM     15  H   UNL     1      45.169   5.545   9.305  0.00  0.00    +0.000 HD
BRANCH  13  16
ATOM     16  C   UNL     1      44.642   3.174   8.738  0.00  0.00    +0.000 C 
ATOM     17  C   UNL     1      45.376   1.849   8.773  0.00  0.00    +0.000 C 
ATOM     18  O   UNL     1      46.517   2.042   7.943  0.00  0.00    +0.000 OA
ATOM     19  C   UNL     1      46.429   3.310   7.499  0.00  0.00    +0.000 C 
ATOM     20  N   UNL     1      45.448   4.062   7.857  0.00  0.00    +0.000 NA
ENDBRANCH  13  16
ENDBRANCH  11  12
ENDBRANCH   8  11
ENDBRANCH   2   5
BRANCH   3  21
ATOM     21  C   UNL     1      50.949   8.789  15.165  0.00  0.00    +0.000 C 
BRANCH  21  22
ATOM     22  C   UNL     1      50.463   9.872  16.149  0.00  0.00    +0.000 C 
ATOM     23  C   UNL     1      48.947  10.123  16.107  0.00  0.00    +0.000 C 
ATOM     24  C   UNL     1      48.138   8.936  16.631  0.00  0.00    +0.000 C 
ATOM     25  C   UNL     1      48.541   8.536  18.063  0.00  0.00    +0.000 C 
ATOM     26  C   UNL     1      50.071   8.363  18.181  0.00  0.00    +0.000 C 
ATOM     27  C   UNL     1      50.865   9.535  17.597  0.00  0.00    +0.000 C 
BRANCH  25  28
ATOM     28  C   UNL     1      47.835   7.236  18.509  0.00  0.00    +0.000 C 
BRANCH  28  29
ATOM     29  N   UNL     1      48.532   6.021  18.127  0.00  0.00    +0.000 N 
ATOM     30  C   UNL     1      47.837   4.846  17.955  0.00  0.00    +0.000 C 
ATOM     31  O   UNL     1      46.634   4.668  18.086  0.00  0.00    +0.000 OA
ATOM     32  N   UNL     1      48.640   3.817  17.458  0.00  0.00    +0.000 N 
ATOM     33  C   UNL     1      49.923   3.449  17.824  0.00  0.00    +0.000 A 
ATOM     34  C   UNL     1      50.224   2.350  17.053  0.00  0.00    +0.000 A 
ATOM     35  N   UNL     1      49.199   2.059  16.197  0.00  0.00    +0.000 NA
ATOM     36  C   UNL     1      48.254   2.924  16.485  0.00  0.00    +0.000 A 
ATOM     37  H   UNL     1      49.450   6.108  17.713  0.00  0.00    +0.000 HD
ENDBRANCH  28  29
ENDBRANCH  25  28
ENDBRANCH  21  22
ENDBRANCH   3  21
TORSDOF 8
ENDMDL
MODEL 2
REMARK VINA RESULT:    -7.779      2.619      3.872
REMARK INTER + INTRA:         -12.883
REMARK INTER:                 -11.880
REMARK INTRA:                  -1.003
REMARK UNBOUND:                -1.466
REMARK  Name = 
REMARK  8 active torsions:
REMARK  status: ('A' for Active; 'I' for Inactive)
REMARK    1  A    between atoms: C_2  and  C_20
REMARK    2  A    between atoms: N_3  and  C_4
REMARK    3  A    between atoms: C_4  and  C_5
REMARK    4  A    between atoms: C_8  and  C_9
REMARK    5  A    between atoms: C_9  and  N_10
REMARK    6  A    between atoms: C_23  and  C_24
REMARK    7  A    between atoms: C_24  and  N_25
REMARK    8  A    between atoms: C_26  and  C_28
REMARK                            x       y       z     vdW  Elec       q    Type
REMARK                         _______ _______ _______ _____ _____    ______ ____
ROOT
ATOM      1  O   UNL     1      47.748   3.034  14.823  0.00  0.00    +0.000 OA
ATOM      2  C   UNL     1      47.179   4.110  14.687  0.00  0.00    +0.000 C 
ATOM      3  N   UNL     1      47.268   5.146  15.603  0.00  0.00    +0.000 N 
ATOM      4  H   UNL     1      46.547   5.851  15.565  0.00  0.00    +0.000 HD
ENDROOT
BRANCH   2   5
ATOM      5  C   UNL     1      46.287   4.329  13.502  0.00  0.00    +0.000 A 
ATOM      6  C   UNL     1      45.735   3.208  12.874  0.00  0.00    +0.000 A 
ATOM      7  C   UNL     1      44.933   3.346  11.735  0.00  0.00    +0.000 A 
ATOM      8  C   UNL     1      44.689   4.614  11.189  0.00  0.00    +0.000 A 
ATOM      9  C   UNL     1      45.229   5.741  11.838  0.00  0.00    +0.000 A 
ATOM     10  C   UNL     1      46.023   5.600  12.984  0.00  0.00    +0.000 A 
BRANCH   8  11
ATOM     11  C   UNL     1      43.908   4.767   9.905  0.00  0.00    +0.000 C 
BRANCH  11  12
ATOM     12  N   UNL     1      44.322   3.847   8.874  0.00  0.00    +0.000 N 
ATOM     13  C   UNL     1      45.457   4.030   8.114  0.00  0.00    +0.000 C 
ATOM     14  O   UNL     1      46.219   4.979   8.251  0.00  0.00    +0.000 OA
ATOM     15  H   UNL     1      43.724   3.071   8.613  0.00  0.00    +0.000 HD
BRANCH  13  16
ATOM     16  C   UNL     1      45.748   2.859   7.173  0.00  0.00    +0.000 C 
ATOM     17  C   UNL     1      46.384   1.684   7.888  0.00  0.00    +0.000 C 
ATOM     18  O   UNL     1      47.636   1.494   7.236  0.00  0.00    +0.000 OA
ATOM     19  C   UNL     1      47.690   2.439   6.278  0.00  0.00    +0.000 C 
ATOM     20  N   UNL     1      46.720   3.271   6.124  0.00  0.00    +0.000 NA
ENDBRANCH  13  16
ENDBRANCH  11  12
ENDBRANCH   8  11
ENDBRANCH   2   5
BRANCH   3  21
ATOM     21  C   UNL     1      47.954   4.937  16.871  0.00  0.00    +0.000 C 
BRANCH  21  22
ATOM     22  C   UNL     1      47.706   6.058  17.901  0.00  0.00    +0.000 C 
ATOM     23  C   UNL     1      47.496   5.553  19.338  0.00  0.00    +0.000 C 
ATOM     24  C   UNL     1      48.763   4.943  19.940  0.00  0.00    +0.000 C 
ATOM     25  C   UNL     1      49.954   5.920  19.919  0.00  0.00    +0.000 C 
ATOM     26  C   UNL     1      50.149   6.528  18.513  0.00  0.00    +0.000 C 
ATOM     27  C   UNL     1      48.857   7.080  17.903  0.00  0.00    +0.000 C 
BRANCH  25  28
ATOM     28  C   UNL     1      51.260   5.232  20.374  0.00  0.00    +0.000 C 
BRANCH  28  29
ATOM     29  N   UNL     1      51.585   4.027  19.632  0.00  0.00    +0.000 N 
ATOM     30  C   UNL     1      52.795   3.912  18.986  0.00  0.00    +0.000 C 
ATOM     31  O   UNL     1      53.697   4.737  18.948  0.00  0.00    +0.000 OA
ATOM     32  N   UNL     1      52.992   2.642  18.441  0.00  0.00    +0.000 N 
ATOM     33  C   UNL     1      52.109   1.841  17.738  0.00  0.00    +0.000 A 
ATOM     34  C   UNL     1      52.826   0.716  17.398  0.00  0.00    +0.000 A 
ATOM     35  N   UNL     1      54.095   0.773  17.903  0.00  0.00    +0.000 NA
ATOM     36  C   UNL     1      54.179   1.947  18.488  0.00  0.00    +0.000 A 
ATOM     37  H   UNL     1      51.059   3.186  19.833  0.00  0.00    +0.000 HD
ENDBRANCH  28  29
ENDBRANCH  25  28
ENDBRANCH  21  22
ENDBRANCH   3  21
TORSDOF 8
ENDMDL
MODEL 3
REMARK VINA RESULT:    -7.185      2.968      9.768
REMARK INTER + INTRA:         -12.011
REMARK INTER:                 -11.379
REMARK INTRA:                  -0.632
REMARK UNBOUND:                -1.466
REMARK  Name = 
REMARK  8 active torsions:
REMARK  status: ('A' for Active; 'I' for Inactive)
REMARK    1  A    between atoms: C_2  and  C_20
REMARK    2  A    between atoms: N_3  and  C_4
REMARK    3  A    between atoms: C_4  and  C_5
REMARK    4  A    between atoms: C_8  and  C_9
REMARK    5  A    between atoms: C_9  and  N_10
REMARK    6  A    between atoms: C_23  and  C_24
REMARK    7  A    between atoms: C_24  and  N_25
REMARK    8  A    between atoms: C_26  and  C_28
REMARK                            x       y       z     vdW  Elec       q    Type
REMARK                         _______ _______ _______ _____ _____    ______ ____
ROOT
ATOM      1  O   UNL     1      47.230   3.246  14.467  0.00  0.00    +0.000 OA
ATOM      2  C   UNL     1      47.356   4.294  15.088  0.00  0.00    +0.000 C 
ATOM      3  N   UNL     1      47.253   5.548  14.505  0.00  0.00    +0.000 N 
ATOM      4  H   UNL     1      47.662   6.320  15.010  0.00  0.00    +0.000 HD
ENDROOT
BRANCH   2   5
ATOM      5  C   UNL     1      47.694   4.252  16.547  0.00  0.00    +0.000 A 
ATOM      6  C   UNL     1      47.559   5.429  17.291  0.00  0.00    +0.000 A 
ATOM      7  C   UNL     1      47.903   5.464  18.647  0.00  0.00    +0.000 A 
ATOM      8  C   UNL     1      48.414   4.321  19.279  0.00  0.00    +0.000 A 
ATOM      9  C   UNL     1      48.526   3.132  18.532  0.00  0.00    +0.000 A 
ATOM     10  C   UNL     1      48.171   3.099  17.177  0.00  0.00    +0.000 A 
BRANCH   8  11
ATOM     11  C   UNL     1      48.880   4.373  20.715  0.00  0.00    +0.000 C 
BRANCH  11  12
ATOM     12  N   UNL     1      50.313   4.455  20.845  0.00  0.00    +0.000 N 
ATOM     13  C   UNL     1      51.000   5.651  20.870  0.00  0.00    +0.000 C 
ATOM     14  O   UNL     1      50.457   6.745  20.795  0.00  0.00    +0.000 OA
ATOM     15  H   UNL     1      50.876   3.612  20.829  0.00  0.00    +0.000 HD
BRANCH  13  16
ATOM     16  C   UNL     1      52.497   5.481  21.139  0.00  0.00    +0.000 C 
ATOM     17  C   UNL     1      53.354   6.283  20.181  0.00  0.00    +0.000 C 
ATOM     18  O   UNL     1      54.164   5.317  19.519  0.00  0.00    +0.000 OA
ATOM     19  C   UNL     1      53.809   4.128  20.045  0.00  0.00    +0.000 C 
ATOM     20  N   UNL     1      52.896   4.060  20.949  0.00  0.00    +0.000 NA
ENDBRANCH  13  16
ENDBRANCH  11  12
ENDBRANCH   8  11
ENDBRANCH   2   5
BRANCH   3  21
ATOM     21  C   UNL     1      47.123   5.668  13.059  0.00  0.00    +0.000 C 
BRANCH  21  22
ATOM     22  C   UNL     1      45.846   6.407  12.611  0.00  0.00    +0.000 C 
ATOM     23  C   UNL     1      45.647   6.447  11.088  0.00  0.00    +0.000 C 
ATOM     24  C   UNL     1      45.351   5.068  10.495  0.00  0.00    +0.000 C 
ATOM     25  C   UNL     1      44.126   4.399  11.145  0.00  0.00    +0.000 C 
ATOM     26  C   UNL     1      44.234   4.418  12.686  0.00  0.00    +0.000 C 
ATOM     27  C   UNL     1      44.589   5.794  13.255  0.00  0.00    +0.000 C 
BRANCH  25  28
ATOM     28  C   UNL     1      43.946   2.945  10.654  0.00  0.00    +0.000 C 
BRANCH  28  29
ATOM     29  N   UNL     1      44.991   2.490   9.755  0.00  0.00    +0.000 N 
ATOM     30  C   UNL     1      44.976   2.859   8.429  0.00  0.00    +0.000 C 
ATOM     31  O   UNL     1      44.153   3.565   7.864  0.00  0.00    +0.000 OA
ATOM     32  N   UNL     1      46.123   2.447   7.746  0.00  0.00    +0.000 N 
ATOM     33  C   UNL     1      46.785   1.233   7.795  0.00  0.00    +0.000 A 
ATOM     34  C   UNL     1      47.822   1.345   6.898  0.00  0.00    +0.000 A 
ATOM     35  N   UNL     1      47.852   2.592   6.337  0.00  0.00    +0.000 NA
ATOM     36  C   UNL     1      46.807   3.215   6.832  0.00  0.00    +0.000 A 
ATOM     37  H   UNL     1      45.857   2.159  10.158  0.00  0.00    +0.000 HD
ENDBRANCH  28  29
ENDBRANCH  25  28
ENDBRANCH  21  22
ENDBRANCH   3  21
TORSDOF 8
ENDMDL
MODEL 4
REMARK VINA RESULT:    -7.138      1.748      2.644
REMARK INTER + INTRA:         -11.943
REMARK INTER:                 -10.808
REMARK INTRA:                  -1.135
REMARK UNBOUND:                -1.466
REMARK  Name = 
REMARK  8 active torsions:
REMARK  status: ('A' for Active; 'I' for Inactive)
REMARK    1  A    between atoms: C_2  and  C_20
REMARK    2  A    between atoms: N_3  and  C_4
REMARK    3  A    between atoms: C_4  and  C_5
REMARK    4  A    between atoms: C_8  and  C_9
REMARK    5  A    between atoms: C_9  and  N_10
REMARK    6  A    between atoms: C_23  and  C_24
REMARK    7  A    between atoms: C_24  and  N_25
REMARK    8  A    between atoms: C_26  and  C_28
REMARK                            x       y       z     vdW  Elec       q    Type
REMARK                         _______ _______ _______ _____ _____    ______ ____
ROOT
ATOM      1  O   UNL     1      47.613  10.390  11.909  0.00  0.00    +0.000 OA
ATOM      2  C   UNL     1      47.262   9.549  12.727  0.00  0.00    +0.000 C 
ATOM      3  N   UNL     1      47.818   9.428  13.991  0.00  0.00    +0.000 N 
ATOM      4  H   UNL     1      47.689   8.546  14.463  0.00  0.00    +0.000 HD
ENDROOT
BRANCH   2   5
ATOM      5  C   UNL     1      46.212   8.547  12.351  0.00  0.00    +0.000 A 
ATOM      6  C   UNL     1      46.450   7.200  12.640  0.00  0.00    +0.000 A 
ATOM      7  C   UNL     1      45.528   6.213  12.271  0.00  0.00    +0.000 A 
ATOM      8  C   UNL     1      44.357   6.559  11.581  0.00  0.00    +0.000 A 
ATOM      9  C   UNL     1      44.111   7.919  11.313  0.00  0.00    +0.000 A 
ATOM     10  C   UNL     1      45.032   8.905  11.692  0.00  0.00    +0.000 A 
BRANCH   8  11
ATOM     11  C   UNL     1      43.404   5.494  11.093  0.00  0.00    +0.000 C 
BRANCH  11  12
ATOM     12  N   UNL     1      43.865   4.820   9.904  0.00  0.00    +0.000 N 
ATOM     13  C   UNL     1      44.447   3.570   9.926  0.00  0.00    +0.000 C 
ATOM     14  O   UNL     1      44.615   2.918  10.948  0.00  0.00    +0.000 OA
ATOM     15  H   UNL     1      43.856   5.298   9.010  0.00  0.00    +0.000 HD
BRANCH  13  16
ATOM     16  C   UNL     1      44.739   3.017   8.529  0.00  0.00    +0.000 C 
ATOM     17  C   UNL     1      45.655   1.810   8.562  0.00  0.00    +0.000 C 
ATOM     18  O   UNL     1      46.789   2.192   7.789  0.00  0.00    +0.000 OA
ATOM     19  C   UNL     1      46.535   3.448   7.374  0.00  0.00    +0.000 C 
ATOM     20  N   UNL     1      45.442   4.039   7.708  0.00  0.00    +0.000 NA
ENDBRANCH  13  16
ENDBRANCH  11  12
ENDBRANCH   8  11
ENDBRANCH   2   5
BRANCH   3  21
ATOM     21  C   UNL     1      48.975  10.235  14.355  0.00  0.00    +0.000 C 
BRANCH  21  22
ATOM     22  C   UNL     1      50.306   9.702  13.786  0.00  0.00    +0.000 C 
ATOM     23  C   UNL     1      51.532  10.024  14.656  0.00  0.00    +0.000 C 
ATOM     24  C   UNL     1      51.520   9.278  15.992  0.00  0.00    +0.000 C 
ATOM     25  C   UNL     1      51.417   7.752  15.812  0.00  0.00    +0.000 C 
ATOM     26  C   UNL     1      50.253   7.380  14.868  0.00  0.00    +0.000 C 
ATOM     27  C   UNL     1      50.248   8.180  13.562  0.00  0.00    +0.000 C 
BRANCH  25  28
ATOM     28  C   UNL     1      51.237   7.032  17.168  0.00  0.00    +0.000 C 
BRANCH  28  29
ATOM     29  N   UNL     1      50.399   5.849  17.104  0.00  0.00    +0.000 N 
ATOM     30  C   UNL     1      49.302   5.730  17.927  0.00  0.00    +0.000 C 
ATOM     31  O   UNL     1      48.905   6.534  18.757  0.00  0.00    +0.000 OA
ATOM     32  N   UNL     1      48.537   4.597  17.637  0.00  0.00    +0.000 N 
ATOM     33  C   UNL     1      48.950   3.304  17.365  0.00  0.00    +0.000 A 
ATOM     34  C   UNL     1      47.794   2.578  17.194  0.00  0.00    +0.000 A 
ATOM     35  N   UNL     1      46.692   3.380  17.303  0.00  0.00    +0.000 NA
ATOM     36  C   UNL     1      47.162   4.569  17.604  0.00  0.00    +0.000 A 
ATOM     37  H   UNL     1      50.452   5.270  16.277  0.00  0.00    +0.000 HD
ENDBRANCH  28  29
ENDBRANCH  25  28
ENDBRANCH  21  22
ENDBRANCH   3  21
TORSDOF 8
ENDMDL
MODEL 5
REMARK VINA RESULT:    -6.804      2.325      3.099
REMARK INTER + INTRA:         -11.452
REMARK INTER:                 -10.264
REMARK INTRA:                  -1.187
REMARK UNBOUND:                -1.466
REMARK  Name = 
REMARK  8 active torsions:
REMARK  status: ('A' for Active; 'I' for Inactive)
REMARK    1  A    between atoms: C_2  and  C_20
REMARK    2  A    between atoms: N_3  and  C_4
REMARK    3  A    between atoms: C_4  and  C_5
REMARK    4  A    between atoms: C_8  and  C_9
REMARK    5  A    between atoms: C_9  and  N_10
REMARK    6  A    between atoms: C_23  and  C_24
REMARK    7  A    between atoms: C_24  and  N_25
REMARK    8  A    between atoms: C_26  and  C_28
REMARK                            x       y       z     vdW  Elec       q    Type
REMARK                         _______ _______ _______ _____ _____    ______ ____
ROOT
ATOM      1  O   UNL     1      49.663  10.071  15.432  0.00  0.00    +0.000 OA
ATOM      2  C   UNL     1      49.061   9.015  15.577  0.00  0.00    +0.000 C 
ATOM      3  N   UNL     1      48.942   8.360  16.792  0.00  0.00    +0.000 N 
ATOM      4  H   UNL     1      48.705   7.380  16.761  0.00  0.00    +0.000 HD
ENDROOT
BRANCH   2   5
ATOM      5  C   UNL     1      48.454   8.342  14.383  0.00  0.00    +0.000 A 
ATOM      6  C   UNL     1      47.341   8.940  13.783  0.00  0.00    +0.000 A 
ATOM      7  C   UNL     1      46.702   8.335  12.694  0.00  0.00    +0.000 A 
ATOM      8  C   UNL     1      47.153   7.102  12.202  0.00  0.00    +0.000 A 
ATOM      9  C   UNL     1      48.288   6.515  12.795  0.00  0.00    +0.000 A 
ATOM     10  C   UNL     1      48.931   7.129  13.879  0.00  0.00    +0.000 A 
BRANCH   8  11
ATOM     11  C   UNL     1      46.413   6.393  11.093  0.00  0.00    +0.000 C 
BRANCH  11  12
ATOM     12  N   UNL     1      45.325   5.574  11.568  0.00  0.00    +0.000 N 
ATOM     13  C   UNL     1      44.013   5.999  11.581  0.00  0.00    +0.000 C 
ATOM     14  O   UNL     1      43.654   7.099  11.184  0.00  0.00    +0.000 OA
ATOM     15  H   UNL     1      45.514   4.676  12.000  0.00  0.00    +0.000 HD
BRANCH  13  16
ATOM     16  C   UNL     1      43.031   4.908  12.015  0.00  0.00    +0.000 C 
ATOM     17  C   UNL     1      43.430   4.252  13.320  0.00  0.00    +0.000 C 
ATOM     18  O   UNL     1      43.598   2.874  13.000  0.00  0.00    +0.000 OA
ATOM     19  C   UNL     1      43.322   2.774  11.685  0.00  0.00    +0.000 C 
ATOM     20  N   UNL     1      42.997   3.816  11.005  0.00  0.00    +0.000 NA
ENDBRANCH  13  16
ENDBRANCH  11  12
ENDBRANCH   8  11
ENDBRANCH   2   5
BRANCH   3  21
ATOM     21  C   UNL     1      49.671   8.850  17.955  0.00  0.00    +0.000 C 
BRANCH  21  22
ATOM     22  C   UNL     1      48.759   9.266  19.127  0.00  0.00    +0.000 C 
ATOM     23  C   UNL     1      47.371   8.606  19.106  0.00  0.00    +0.000 C 
ATOM     24  C   UNL     1      47.431   7.099  19.366  0.00  0.00    +0.000 C 
ATOM     25  C   UNL     1      48.130   6.760  20.696  0.00  0.00    +0.000 C 
ATOM     26  C   UNL     1      49.493   7.477  20.806  0.00  0.00    +0.000 C 
ATOM     27  C   UNL     1      49.423   8.973  20.484  0.00  0.00    +0.000 C 
BRANCH  25  28
ATOM     28  C   UNL     1      48.330   5.236  20.859  0.00  0.00    +0.000 C 
BRANCH  28  29
ATOM     29  N   UNL     1      48.216   4.488  19.620  0.00  0.00    +0.000 N 
ATOM     30  C   UNL     1      49.321   4.290  18.823  0.00  0.00    +0.000 C 
ATOM     31  O   UNL     1      50.462   4.680  19.025  0.00  0.00    +0.000 OA
ATOM     32  N   UNL     1      49.058   3.439  17.747  0.00  0.00    +0.000 N 
ATOM     33  C   UNL     1      47.966   3.408  16.897  0.00  0.00    +0.000 A 
ATOM     34  C   UNL     1      48.234   2.407  15.992  0.00  0.00    +0.000 A 
ATOM     35  N   UNL     1      49.421   1.792  16.280  0.00  0.00    +0.000 NA
ATOM     36  C   UNL     1      49.908   2.450  17.307  0.00  0.00    +0.000 A 
ATOM     37  H   UNL     1      47.415   3.883  19.500  0.00  0.00    +0.000 HD
ENDBRANCH  28  29
ENDBRANCH  25  28
ENDBRANCH  21  22
ENDBRANCH   3  21
TORSDOF 8
ENDMDL
MODEL 6
REMARK VINA RESULT:    -6.429      2.710      7.392
REMARK INTER + INTRA:         -10.902
REMARK INTER:                  -9.535
REMARK INTRA:                  -1.368
REMARK UNBOUND:                -1.466
REMARK  Name = 
REMARK  8 active torsions:
REMARK  status: ('A' for Active; 'I' for Inactive)
REMARK    1  A    between atoms: C_2  and  C_20
REMARK    2  A    between atoms: N_3  and  C_4
REMARK    3  A    between atoms: C_4  and  C_5
REMARK    4  A    between atoms: C_8  and  C_9
REMARK    5  A    between atoms: C_9  and  N_10
REMARK    6  A    between atoms: C_23  and  C_24
REMARK    7  A    between atoms: C_24  and  N_25
REMARK    8  A    between atoms: C_26  and  C_28
REMARK                            x       y       z     vdW  Elec       q    Type
REMARK                         _______ _______ _______ _____ _____    ______ ____
ROOT
ATOM      1  O   UNL     1      44.294   8.769  11.718  0.00  0.00    +0.000 OA
ATOM      2  C   UNL     1      45.063   7.821  11.638  0.00  0.00    +0.000 C 
ATOM      3  N   UNL     1      44.686   6.562  11.197  0.00  0.00    +0.000 N 
ATOM      4  H   UNL     1      45.288   5.792  11.447  0.00  0.00    +0.000 HD
ENDROOT
BRANCH   2   5
ATOM      5  C   UNL     1      46.485   7.984  12.082  0.00  0.00    +0.000 A 
ATOM      6  C   UNL     1      47.426   7.048  11.643  0.00  0.00    +0.000 A 
ATOM      7  C   UNL     1      48.760   7.120  12.063  0.00  0.00    +0.000 A 
ATOM      8  C   UNL     1      49.170   8.124  12.953  0.00  0.00    +0.000 A 
ATOM      9  C   UNL     1      48.224   9.078  13.373  0.00  0.00    +0.000 A 
ATOM     10  C   UNL     1      46.892   9.007  12.944  0.00  0.00    +0.000 A 
BRANCH   8  11
ATOM     11  C   UNL     1      50.582   8.154  13.488  0.00  0.00    +0.000 C 
BRANCH  11  12
ATOM     12  N   UNL     1      50.738   7.426  14.723  0.00  0.00    +0.000 N 
ATOM     13  C   UNL     1      50.666   8.025  15.963  0.00  0.00    +0.000 C 
ATOM     14  O   UNL     1      50.454   9.219  16.128  0.00  0.00    +0.000 OA
ATOM     15  H   UNL     1      51.003   6.448  14.709  0.00  0.00    +0.000 HD
BRANCH  13  16
ATOM     16  C   UNL     1      50.740   7.026  17.120  0.00  0.00    +0.000 C 
ATOM     17  C   UNL     1      51.829   7.370  18.116  0.00  0.00    +0.000 C 
ATOM     18  O   UNL     1      52.693   6.237  18.119  0.00  0.00    +0.000 OA
ATOM     19  C   UNL     1      52.152   5.370  17.241  0.00  0.00    +0.000 C 
ATOM     20  N   UNL     1      51.072   5.669  16.607  0.00  0.00    +0.000 NA
ENDBRANCH  13  16
ENDBRANCH  11  12
ENDBRANCH   8  11
ENDBRANCH   2   5
BRANCH   3  21
ATOM     21  C   UNL     1      43.282   6.275  10.936  0.00  0.00    +0.000 C 
BRANCH  21  22
ATOM     22  C   UNL     1      42.777   4.986  11.614  0.00  0.00    +0.000 C 
ATOM     23  C   UNL     1      43.376   3.695  11.031  0.00  0.00    +0.000 C 
ATOM     24  C   UNL     1      44.871   3.555  11.322  0.00  0.00    +0.000 C 
ATOM     25  C   UNL     1      45.186   3.620  12.828  0.00  0.00    +0.000 C 
ATOM     26  C   UNL     1      44.526   4.854  13.481  0.00  0.00    +0.000 C 
ATOM     27  C   UNL     1      43.043   5.010  13.130  0.00  0.00    +0.000 C 
BRANCH  25  28
ATOM     28  C   UNL     1      46.709   3.646  13.089  0.00  0.00    +0.000 C 
BRANCH  28  29
ATOM     29  N   UNL     1      47.077   3.428  14.476  0.00  0.00    +0.000 N 
ATOM     30  C   UNL     1      47.691   4.426  15.197  0.00  0.00    +0.000 C 
ATOM     31  O   UNL     1      47.988   5.547  14.811  0.00  0.00    +0.000 OA
ATOM     32  N   UNL     1      47.849   4.092  16.545  0.00  0.00    +0.000 N 
ATOM     33  C   UNL     1      48.269   2.901  17.111  0.00  0.00    +0.000 A 
ATOM     34  C   UNL     1      48.285   3.127  18.468  0.00  0.00    +0.000 A 
ATOM     35  N   UNL     1      47.848   4.389  18.760  0.00  0.00    +0.000 NA
ATOM     36  C   UNL     1      47.631   4.954  17.594  0.00  0.00    +0.000 A 
ATOM     37  H   UNL     1      46.629   2.672  14.975  0.00  0.00    +0.000 HD
ENDBRANCH  28  29
ENDBRANCH  25  28
ENDBRANCH  21  22
ENDBRANCH   3  21
TORSDOF 8
ENDMDL
MODEL 7
REMARK VINA RESULT:    -6.279      2.425      3.626
REMARK INTER + INTRA:         -10.682
REMARK INTER:                  -9.191
REMARK INTRA:                  -1.491
REMARK UNBOUND:                -1.466
REMARK  Name = 
REMARK  8 active torsions:
REMARK  status: ('A' for Active; 'I' for Inactive)
REMARK    1  A    between atoms: C_2  and  C_20
REMARK    2  A    between atoms: N_3  and  C_4
REMARK    3  A    between atoms: C_4  and  C_5
REMARK    4  A    between atoms: C_8  and  C_9
REMARK    5  A    between atoms: C_9  and  N_10
REMARK    6  A    between atoms: C_23  and  C_24
REMARK    7  A    between atoms: C_24  and  N_25
REMARK    8  A    between atoms: C_26  and  C_28
REMARK                            x       y       z     vdW  Elec       q    Type
REMARK                         _______ _______ _______ _____ _____    ______ ____
ROOT
ATOM      1  O   UNL     1      49.761   7.720  17.069  0.00  0.00    +0.000 OA
ATOM      2  C   UNL     1      50.283   7.592  15.969  0.00  0.00    +0.000 C 
ATOM      3  N   UNL     1      51.636   7.783  15.735  0.00  0.00    +0.000 N 
ATOM      4  H   UNL     1      51.913   7.953  14.780  0.00  0.00    +0.000 HD
ENDROOT
BRANCH   2   5
ATOM      5  C   UNL     1      49.430   7.262  14.782  0.00  0.00    +0.000 A 
ATOM      6  C   UNL     1      49.751   7.851  13.554  0.00  0.00    +0.000 A 
ATOM      7  C   UNL     1      48.965   7.618  12.419  0.00  0.00    +0.000 A 
ATOM      8  C   UNL     1      47.823   6.807  12.502  0.00  0.00    +0.000 A 
ATOM      9  C   UNL     1      47.518   6.199  13.734  0.00  0.00    +0.000 A 
ATOM     10  C   UNL     1      48.313   6.426  14.866  0.00  0.00    +0.000 A 
BRANCH   8  11
ATOM     11  C   UNL     1      46.914   6.628  11.309  0.00  0.00    +0.000 C 
BRANCH  11  12
ATOM     12  N   UNL     1      45.636   6.052  11.650  0.00  0.00    +0.000 N 
ATOM     13  C   UNL     1      44.922   5.244  10.791  0.00  0.00    +0.000 C 
ATOM     14  O   UNL     1      45.309   4.936   9.672  0.00  0.00    +0.000 OA
ATOM     15  H   UNL     1      45.176   6.308  12.517  0.00  0.00    +0.000 HD
BRANCH  13  16
ATOM     16  C   UNL     1      43.658   4.658  11.426  0.00  0.00    +0.000 C 
ATOM     17  C   UNL     1      43.795   4.467  12.923  0.00  0.00    +0.000 C 
ATOM     18  O   UNL     1      43.598   3.072  13.132  0.00  0.00    +0.000 OA
ATOM     19  C   UNL     1      43.375   2.552  11.909  0.00  0.00    +0.000 C 
ATOM     20  N   UNL     1      43.381   3.307  10.867  0.00  0.00    +0.000 NA
ENDBRANCH  13  16
ENDBRANCH  11  12
ENDBRANCH   8  11
ENDBRANCH   2   5
BRANCH   3  21
ATOM     21  C   UNL     1      52.491   8.295  16.797  0.00  0.00    +0.000 C 
BRANCH  21  22
ATOM     22  C   UNL     1      53.803   7.505  16.971  0.00  0.00    +0.000 C 
ATOM     23  C   UNL     1      54.368   7.534  18.401  0.00  0.00    +0.000 C 
ATOM     24  C   UNL     1      53.490   6.775  19.397  0.00  0.00    +0.000 C 
ATOM     25  C   UNL     1      53.258   5.310  18.979  0.00  0.00    +0.000 C 
ATOM     26  C   UNL     1      52.777   5.221  17.514  0.00  0.00    +0.000 C 
ATOM     27  C   UNL     1      53.633   6.036  16.540  0.00  0.00    +0.000 C 
BRANCH  25  28
ATOM     28  C   UNL     1      52.236   4.612  19.904  0.00  0.00    +0.000 C 
BRANCH  28  29
ATOM     29  N   UNL     1      51.019   4.192  19.234  0.00  0.00    +0.000 N 
ATOM     30  C   UNL     1      49.798   4.676  19.645  0.00  0.00    +0.000 C 
ATOM     31  O   UNL     1      49.578   5.463  20.554  0.00  0.00    +0.000 OA
ATOM     32  N   UNL     1      48.755   4.275  18.806  0.00  0.00    +0.000 N 
ATOM     33  C   UNL     1      48.503   3.034  18.248  0.00  0.00    +0.000 A 
ATOM     34  C   UNL     1      47.330   3.179  17.545  0.00  0.00    +0.000 A 
ATOM     35  N   UNL     1      46.877   4.467  17.610  0.00  0.00    +0.000 NA
ATOM     36  C   UNL     1      47.724   5.089  18.398  0.00  0.00    +0.000 A 
ATOM     37  H   UNL     1      51.097   3.790  18.310  0.00  0.00    +0.000 HD
ENDBRANCH  28  29
ENDBRANCH  25  28
ENDBRANCH  21  22
ENDBRANCH   3  21
TORSDOF 8
ENDMDL
MODEL 8
REMARK VINA RESULT:    -6.238      2.719      9.901
REMARK INTER + INTRA:         -10.622
REMARK INTER:                 -10.032
REMARK INTRA:                  -0.590
REMARK UNBOUND:                -1.466
REMARK  Name = 
REMARK  8 active torsions:
REMARK  status: ('A' for Active; 'I' for Inactive)
REMARK    1  A    between atoms: C_2  and  C_20
REMARK    2  A    between atoms: N_3  and  C_4
REMARK    3  A    between atoms: C_4  and  C_5
REMARK    4  A    between atoms: C_8  and  C_9
REMARK    5  A    between atoms: C_9  and  N_10
REMARK    6  A    between atoms: C_23  and  C_24
REMARK    7  A    between atoms: C_24  and  N_25
REMARK    8  A    between atoms: C_26  and  C_28
REMARK                            x       y       z     vdW  Elec       q    Type
REMARK                         _______ _______ _______ _____ _____    ______ ____
ROOT
ATOM      1  O   UNL     1      47.124   3.539  15.422  0.00  0.00    +0.000 OA
ATOM      2  C   UNL     1      47.547   4.660  15.671  0.00  0.00    +0.000 C 
ATOM      3  N   UNL     1      47.572   5.694  14.749  0.00  0.00    +0.000 N 
ATOM      4  H   UNL     1      48.198   6.462  14.941  0.00  0.00    +0.000 HD
ENDROOT
BRANCH   2   5
ATOM      5  C   UNL     1      48.123   4.947  17.025  0.00  0.00    +0.000 A 
ATOM      6  C   UNL     1      47.244   5.064  18.106  0.00  0.00    +0.000 A 
ATOM      7  C   UNL     1      47.718   5.377  19.386  0.00  0.00    +0.000 A 
ATOM      8  C   UNL     1      49.086   5.604  19.600  0.00  0.00    +0.000 A 
ATOM      9  C   UNL     1      49.969   5.462  18.512  0.00  0.00    +0.000 A 
ATOM     10  C   UNL     1      49.492   5.139  17.235  0.00  0.00    +0.000 A 
BRANCH   8  11
ATOM     11  C   UNL     1      49.596   6.038  20.953  0.00  0.00    +0.000 C 
BRANCH  11  12
ATOM     12  N   UNL     1      50.734   6.920  20.876  0.00  0.00    +0.000 N 
ATOM     13  C   UNL     1      50.619   8.289  20.763  0.00  0.00    +0.000 C 
ATOM     14  O   UNL     1      49.547   8.878  20.728  0.00  0.00    +0.000 OA
ATOM     15  H   UNL     1      51.672   6.538  20.809  0.00  0.00    +0.000 HD
BRANCH  13  16
ATOM     16  C   UNL     1      51.966   9.014  20.823  0.00  0.00    +0.000 C 
ATOM     17  C   UNL     1      52.073  10.127  19.799  0.00  0.00    +0.000 C 
ATOM     18  O   UNL     1      53.190   9.772  18.991  0.00  0.00    +0.000 OA
ATOM     19  C   UNL     1      53.651   8.613  19.501  0.00  0.00    +0.000 C 
ATOM     20  N   UNL     1      53.073   8.069  20.514  0.00  0.00    +0.000 NA
ENDBRANCH  13  16
ENDBRANCH  11  12
ENDBRANCH   8  11
ENDBRANCH   2   5
BRANCH   3  21
ATOM     21  C   UNL     1      47.213   5.437  13.360  0.00  0.00    +0.000 C 
BRANCH  21  22
ATOM     22  C   UNL     1      46.264   6.494  12.760  0.00  0.00    +0.000 C 
ATOM     23  C   UNL     1      46.314   6.582  11.226  0.00  0.00    +0.000 C 
ATOM     24  C   UNL     1      45.752   5.334  10.545  0.00  0.00    +0.000 C 
ATOM     25  C   UNL     1      44.308   5.025  10.984  0.00  0.00    +0.000 C 
ATOM     26  C   UNL     1      44.185   5.017  12.523  0.00  0.00    +0.000 C 
ATOM     27  C   UNL     1      44.807   6.247  13.191  0.00  0.00    +0.000 C 
BRANCH  25  28
ATOM     28  C   UNL     1      43.820   3.672  10.417  0.00  0.00    +0.000 C 
BRANCH  28  29
ATOM     29  N   UNL     1      44.827   2.947   9.665  0.00  0.00    +0.000 N 
ATOM     30  C   UNL     1      45.048   3.238   8.338  0.00  0.00    +0.000 C 
ATOM     31  O   UNL     1      44.478   4.079   7.658  0.00  0.00    +0.000 OA
ATOM     32  N   UNL     1      46.139   2.543   7.812  0.00  0.00    +0.000 N 
ATOM     33  C   UNL     1      46.495   1.215   7.974  0.00  0.00    +0.000 A 
ATOM     34  C   UNL     1      47.625   1.043   7.208  0.00  0.00    +0.000 A 
ATOM     35  N   UNL     1      48.003   2.220   6.622  0.00  0.00    +0.000 NA
ATOM     36  C   UNL     1      47.080   3.087   6.968  0.00  0.00    +0.000 A 
ATOM     37  H   UNL     1      45.543   2.452  10.180  0.00  0.00    +0.000 HD
ENDBRANCH  28  29
ENDBRANCH  25  28
ENDBRANCH  21  22
ENDBRANCH   3  21
TORSDOF 8
ENDMDL
MODEL 9
REMARK VINA RESULT:    -6.045      2.303      7.178
REMARK INTER + INTRA:         -10.338
REMARK INTER:                  -9.205
REMARK INTRA:                  -1.133
REMARK UNBOUND:                -1.466
REMARK  Name = 
REMARK  8 active torsions:
REMARK  status: ('A' for Active; 'I' for Inactive)
REMARK    1  A    between atoms: C_2  and  C_20
REMARK    2  A    between atoms: N_3  and  C_4
REMARK    3  A    between atoms: C_4  and  C_5
REMARK    4  A    between atoms: C_8  and  C_9
REMARK    5  A    between atoms: C_9  and  N_10
REMARK    6  A    between atoms: C_23  and  C_24
REMARK    7  A    between atoms: C_24  and  N_25
REMARK    8  A    between atoms: C_26  and  C_28
REMARK                            x       y       z     vdW  Elec       q    Type
REMARK                         _______ _______ _______ _____ _____    ______ ____
ROOT
ATOM      1  O   UNL     1      49.048  11.264  16.167  0.00  0.00    +0.000 OA
ATOM      2  C   UNL     1      49.626  10.288  15.708  0.00  0.00    +0.000 C 
ATOM      3  N   UNL     1      49.883  10.112  14.357  0.00  0.00    +0.000 N 
ATOM      4  H   UNL     1      50.080   9.172  14.049  0.00  0.00    +0.000 HD
ENDROOT
BRANCH   2   5
ATOM      5  C   UNL     1      50.046   9.180  16.626  0.00  0.00    +0.000 A 
ATOM      6  C   UNL     1      50.312   7.925  16.069  0.00  0.00    +0.000 A 
ATOM      7  C   UNL     1      50.662   6.839  16.880  0.00  0.00    +0.000 A 
ATOM      8  C   UNL     1      50.728   6.987  18.274  0.00  0.00    +0.000 A 
ATOM      9  C   UNL     1      50.481   8.258  18.828  0.00  0.00    +0.000 A 
ATOM     10  C   UNL     1      50.140   9.345  18.011  0.00  0.00    +0.000 A 
BRANCH   8  11
ATOM     11  C   UNL     1      51.009   5.801  19.165  0.00  0.00    +0.000 C 
BRANCH  11  12
ATOM     12  N   UNL     1      50.402   4.580  18.696  0.00  0.00    +0.000 N 
ATOM     13  C   UNL     1      49.083   4.256  18.931  0.00  0.00    +0.000 C 
ATOM     14  O   UNL     1      48.308   4.976  19.548  0.00  0.00    +0.000 OA
ATOM     15  H   UNL     1      50.969   3.868  18.248  0.00  0.00    +0.000 HD
BRANCH  13  16
ATOM     16  C   UNL     1      48.643   2.970  18.228  0.00  0.00    +0.000 C 
ATOM     17  C   UNL     1      49.733   2.383  17.355  0.00  0.00    +0.000 C 
ATOM     18  O   UNL     1      49.177   2.358  16.043  0.00  0.00    +0.000 OA
ATOM     19  C   UNL     1      47.934   2.861  16.170  0.00  0.00    +0.000 C 
ATOM     20  N   UNL     1      47.498   3.247  17.318  0.00  0.00    +0.000 NA
ENDBRANCH  13  16
ENDBRANCH  11  12
ENDBRANCH   8  11
ENDBRANCH   2   5
BRANCH   3  21
ATOM     21  C   UNL     1      49.333  11.049  13.386  0.00  0.00    +0.000 C 
BRANCH  21  22
ATOM     22  C   UNL     1      49.252  10.481  11.955  0.00  0.00    +0.000 C 
ATOM     23  C   UNL     1      49.841   9.069  11.807  0.00  0.00    +0.000 C 
ATOM     24  C   UNL     1      49.020   8.006  12.540  0.00  0.00    +0.000 C 
ATOM     25  C   UNL     1      47.547   7.986  12.087  0.00  0.00    +0.000 C 
ATOM     26  C   UNL     1      46.934   9.403  12.128  0.00  0.00    +0.000 C 
ATOM     27  C   UNL     1      47.800  10.463  11.441  0.00  0.00    +0.000 C 
BRANCH  25  28
ATOM     28  C   UNL     1      46.700   7.028  12.954  0.00  0.00    +0.000 C 
BRANCH  28  29
ATOM     29  N   UNL     1      46.000   6.007  12.196  0.00  0.00    +0.000 N 
ATOM     30  C   UNL     1      45.612   4.834  12.804  0.00  0.00    +0.000 C 
ATOM     31  O   UNL     1      45.784   4.510  13.970  0.00  0.00    +0.000 OA
ATOM     32  N   UNL     1      44.835   4.030  11.967  0.00  0.00    +0.000 N 
ATOM     33  C   UNL     1      45.014   3.723  10.629  0.00  0.00    +0.000 A 
ATOM     34  C   UNL     1      43.991   2.860  10.311  0.00  0.00    +0.000 A 
ATOM     35  N   UNL     1      43.166   2.663  11.384  0.00  0.00    +0.000 NA
ATOM     36  C   UNL     1      43.713   3.341  12.366  0.00  0.00    +0.000 A 
ATOM     37  H   UNL     1      45.553   6.277  11.331  0.00  0.00    +0.000 HD
ENDBRANCH  28  29
ENDBRANCH  25  28
ENDBRANCH  21  22
ENDBRANCH   3  21
TORSDOF 8
ENDMDL
