MODEL 1
REMARK VINA RESULT:    -9.154      0.000      0.000
REMARK INTER + INTRA:         -13.759
REMARK INTER:                 -12.900
REMARK INTRA:                  -0.859
REMARK UNBOUND:                -0.859
REMARK  Name = 
REMARK  7 active torsions:
REMARK  status: ('A' for Active; 'I' for Inactive)
REMARK    1  A    between atoms: C_2  and  C_20
REMARK    2  A    between atoms: N_3  and  C_4
REMARK    3  A    between atoms: C_4  and  C_5
REMARK    4  A    between atoms: C_9  and  C_10
REMARK    5  A    between atoms: C_10  and  N_11
REMARK    6  A    between atoms: N_11  and  C_12
REMARK    7  A    between atoms: C_12  and  C_13
REMARK                            x       y       z     vdW  Elec       q    Type
REMARK                         _______ _______ _______ _____ _____    ______ ____
ROOT
ATOM      1  C   UNL     1      46.267   4.140  14.633  0.00  0.00    +0.000 C 
ENDROOT
BRANCH   1   2
ATOM      2  C   UNL     1      46.088   4.928  13.354  0.00  0.00    +0.000 A 
ATOM      3  C   UNL     1      47.036   5.883  12.989  0.00  0.00    +0.000 A 
ATOM      4  C   UNL     1      46.876   6.569  11.792  0.00  0.00    +0.000 A 
ATOM      5  C   UNL     1      45.781   6.284  10.988  0.00  0.00    +0.000 A 
ATOM      6  C   UNL     1      44.879   5.305  11.401  0.00  0.00    +0.000 A 
ATOM      7  N   UNL     1      45.014   4.634  12.576  0.00  0.00    +0.000 NA
BRANCH   6   8
ATOM      8  C   UNL     1      43.687   4.958  10.534  0.00  0.00    +0.000 C 
BRANCH   8   9
ATOM      9  N   UNL     1      44.027   4.287   9.275  0.00  0.00    +0.000 NA
ATOM     10  H   UNL     1      44.817   4.798   8.874  0.00  0.00    +0.000 HD
BRANCH   9  11
ATOM     11  C   UNL     1      44.477   2.897   9.466  0.00  0.00    +0.000 C 
BRANCH  11  12
ATOM     12  C   UNL     1      45.522   2.494   8.432  0.00  0.00    +0.000 A 
ATOM     13  C   UNL     1      45.993   3.418   7.495  0.00  0.00    +0.000 A 
ATOM     14  C   UNL     1      46.988   3.039   6.601  0.00  0.00    +0.000 A 
ATOM     15  C   UNL     1      47.461   1.735   6.631  0.00  0.00    +0.000 A 
ATOM     16  C   UNL     1      46.915   0.866   7.559  0.00  0.00    +0.000 A 
ATOM     17  N   UNL     1      45.973   1.213   8.463  0.00  0.00    +0.000 NA
ENDBRANCH  11  12
ENDBRANCH   9  11
ENDBRANCH   8   9
ENDBRANCH   6   8
ENDBRANCH   1   2
BRANCH   1  20
ATOM     18  O   UNL     1      46.773   3.304  17.247  0.00  0.00    +0.000 OA
ATOM     19  C   UNL     1      47.580   4.050  16.697  0.00  0.00    +0.000 C 
ATOM     20  N   UNL     1      47.385   4.552  15.444  0.00  0.00    +0.000 N 
ATOM     21  H   UNL     1      48.109   5.096  14.981  0.00  0.00    +0.000 HD
BRANCH  19  22
ATOM     22  C   UNL     1      48.792   4.481  17.382  0.00  0.00    +0.000 A 
ATOM     23  C   UNL     1      48.871   5.705  18.029  0.00  0.00    +0.000 A 
ATOM     24  S   UNL     1      50.379   5.952  18.797  0.00  0.00    +0.000 S 
ATOM     25  C   UNL     1      50.946   4.424  18.300  0.00  0.00    +0.000 A 
ATOM     26  N   UNL     1      52.186   3.980  18.638  0.00  0.00    +0.000 NA
ATOM     27  C   UNL     1      52.454   2.785  18.211  0.00  0.00    +0.000 A 
ATOM     28  N   UNL     1      51.603   2.005  17.477  0.00  0.00    +0.000 N 
ATOM     29  C   UNL     1      50.378   2.439  17.039  0.00  0.00    +0.000 A 
ATOM     30  O   UNL     1      49.730   1.779  16.245  0.00  0.00    +0.000 OA
ATOM     31  C   UNL     1      50.014   3.751  17.538  0.00  0.00    +0.000 A 
ATOM     32  H   UNL     1      51.885   1.100  17.124  0.00  0.00    +0.000 HD
ENDBRANCH  19  22
ENDBRANCH   1  20
TORSDOF 7
ENDMDL
MODEL 2
REMARK VINA RESULT:    -8.750      1.335      1.667
REMARK INTER + INTRA:         -13.190
REMARK INTER:                 -12.203
REMARK INTRA:                  -0.987
REMARK UNBOUND:                -0.859
REMARK  Name = 
REMARK  7 active torsions:
REMARK  status: ('A' for Active; 'I' for Inactive)
REMARK    1  A    between atoms: C_2  and  C_20
REMARK    2  A    between atoms: N_3  and  C_4
REMARK    3  A    between atoms: C_4  and  C_5
REMARK    4  A    between atoms: C_9  and  C_10
REMARK    5  A    between atoms: C_10  and  N_11
REMARK    6  A    between atoms: N_11  and  C_12
REMARK    7  A    between atoms: C_12  and  C_13
REMARK                            x       y       z     vdW  Elec       q    Type
REMARK                         _______ _______ _______ _____ _____    ______ ____
ROOT
ATOM      1  C   UNL     1      46.865   3.929  14.699  0.00  0.00    +0.000 C 
ENDROOT
BRANCH   1   2
ATOM      2  C   UNL     1      46.436   4.699  13.471  0.00  0.00    +0.000 A 
ATOM      3  C   UNL     1      47.198   5.779  13.027  0.00  0.00    +0.000 A 
ATOM      4  C   UNL     1      46.810   6.450  11.875  0.00  0.00    +0.000 A 
ATOM      5  C   UNL     1      45.678   6.028  11.192  0.00  0.00    +0.000 A 
ATOM      6  C   UNL     1      44.969   4.930  11.678  0.00  0.00    +0.000 A 
ATOM      7  N   UNL     1      45.328   4.270  12.811  0.00  0.00    +0.000 NA
BRANCH   6   8
ATOM      8  C   UNL     1      43.743   4.434  10.940  0.00  0.00    +0.000 C 
BRANCH   8   9
ATOM      9  N   UNL     1      44.007   3.947   9.583  0.00  0.00    +0.000 NA
ATOM     10  H   UNL     1      44.731   4.553   9.189  0.00  0.00    +0.000 HD
BRANCH   9  11
ATOM     11  C   UNL     1      44.545   2.575   9.556  0.00  0.00    +0.000 C 
BRANCH  11  12
ATOM     12  C   UNL     1      45.578   2.395   8.451  0.00  0.00    +0.000 A 
ATOM     13  C   UNL     1      45.870   3.439   7.568  0.00  0.00    +0.000 A 
ATOM     14  C   UNL     1      46.858   3.264   6.605  0.00  0.00    +0.000 A 
ATOM     15  C   UNL     1      47.503   2.040   6.515  0.00  0.00    +0.000 A 
ATOM     16  C   UNL     1      47.130   1.040   7.396  0.00  0.00    +0.000 A 
ATOM     17  N   UNL     1      46.199   1.189   8.363  0.00  0.00    +0.000 NA
ENDBRANCH  11  12
ENDBRANCH   9  11
ENDBRANCH   8   9
ENDBRANCH   6   8
ENDBRANCH   1   2
BRANCH   1  20
ATOM     18  O   UNL     1      46.631   3.262  17.400  0.00  0.00    +0.000 OA
ATOM     19  C   UNL     1      47.186   4.316  17.095  0.00  0.00    +0.000 C 
ATOM     20  N   UNL     1      47.294   4.747  15.805  0.00  0.00    +0.000 N 
ATOM     21  H   UNL     1      47.833   5.579  15.576  0.00  0.00    +0.000 HD
BRANCH  19  22
ATOM     22  C   UNL     1      47.732   5.199  18.117  0.00  0.00    +0.000 A 
ATOM     23  C   UNL     1      46.914   5.946  18.952  0.00  0.00    +0.000 A 
ATOM     24  S   UNL     1      47.795   6.862  20.097  0.00  0.00    +0.000 S 
ATOM     25  C   UNL     1      49.281   6.263  19.516  0.00  0.00    +0.000 A 
ATOM     26  N   UNL     1      50.465   6.633  20.073  0.00  0.00    +0.000 NA
ATOM     27  C   UNL     1      51.501   6.065  19.538  0.00  0.00    +0.000 A 
ATOM     28  N   UNL     1      51.459   5.173  18.502  0.00  0.00    +0.000 N 
ATOM     29  C   UNL     1      50.300   4.833  17.852  0.00  0.00    +0.000 A 
ATOM     30  O   UNL     1      50.331   4.173  16.827  0.00  0.00    +0.000 OA
ATOM     31  C   UNL     1      49.110   5.404  18.450  0.00  0.00    +0.000 A 
ATOM     32  H   UNL     1      52.305   4.801  18.088  0.00  0.00    +0.000 HD
ENDBRANCH  19  22
ENDBRANCH   1  20
TORSDOF 7
ENDMDL
MODEL 3
REMARK VINA RESULT:    -8.655      2.044      2.789
REMARK INTER + INTRA:         -13.056
REMARK INTER:                 -12.221
REMARK INTRA:                  -0.835
REMARK UNBOUND:                -0.859
REMARK  Name = 
REMARK  7 active torsions:
REMARK  status: ('A' for Active; 'I' for Inactive)
REMARK    1  A    between atoms: C_2  and  C_20
REMARK    2  A    between atoms: N_3  and  C_4
REMARK    3  A    between atoms: C_4  and  C_5
REMARK    4  A    between atoms: C_9  and  C_10
REMARK    5  A    between atoms: C_10  and  N_11
REMARK    6  A    between atoms: N_11  and  C_12
REMARK    7  A    between atoms: C_12  and  C_13
REMARK                            x       y       z     vdW  Elec       q    Type
REMARK                         _______ _______ _______ _____ _____    ______ ____
ROOT
ATOM      1  C   UNL     1      46.407   6.755  12.396  0.00  0.00    +0.000 C 
ENDROOT
BRANCH   1   2
ATOM      2  C   UNL     1      45.063   6.166  12.032  0.00  0.00    +0.000 A 
ATOM      3  C   UNL     1      43.994   7.007  11.728  0.00  0.00    +0.000 A 
ATOM      4  C   UNL     1      42.778   6.448  11.358  0.00  0.00    +0.000 A 
ATOM      5  C   UNL     1      42.658   5.066  11.295  0.00  0.00    +0.000 A 
ATOM      6  C   UNL     1      43.769   4.280  11.595  0.00  0.00    +0.000 A 
ATOM      7  N   UNL     1      44.962   4.811  11.972  0.00  0.00    +0.000 NA
BRANCH   6   8
ATOM      8  C   UNL     1      43.673   2.771  11.514  0.00  0.00    +0.000 C 
BRANCH   8   9
ATOM      9  N   UNL     1      44.435   2.172  10.414  0.00  0.00    +0.000 NA
ATOM     10  H   UNL     1      43.940   1.319  10.143  0.00  0.00    +0.000 HD
BRANCH   9  11
ATOM     11  C   UNL     1      44.487   3.029   9.216  0.00  0.00    +0.000 C 
BRANCH  11  12
ATOM     12  C   UNL     1      45.548   2.556   8.229  0.00  0.00    +0.000 A 
ATOM     13  C   UNL     1      45.982   3.387   7.193  0.00  0.00    +0.000 A 
ATOM     14  C   UNL     1      46.992   2.950   6.343  0.00  0.00    +0.000 A 
ATOM     15  C   UNL     1      47.517   1.678   6.516  0.00  0.00    +0.000 A 
ATOM     16  C   UNL     1      47.006   0.897   7.538  0.00  0.00    +0.000 A 
ATOM     17  N   UNL     1      46.050   1.305   8.401  0.00  0.00    +0.000 NA
ENDBRANCH  11  12
ENDBRANCH   9  11
ENDBRANCH   8   9
ENDBRANCH   6   8
ENDBRANCH   1   2
BRANCH   1  20
ATOM     18  O   UNL     1      49.034   6.312  13.228  0.00  0.00    +0.000 OA
ATOM     19  C   UNL     1      48.143   6.353  14.074  0.00  0.00    +0.000 C 
ATOM     20  N   UNL     1      46.827   6.508  13.753  0.00  0.00    +0.000 N 
ATOM     21  H   UNL     1      46.122   6.625  14.477  0.00  0.00    +0.000 HD
BRANCH  19  22
ATOM     22  C   UNL     1      48.446   6.193  15.491  0.00  0.00    +0.000 A 
ATOM     23  C   UNL     1      49.019   7.213  16.237  0.00  0.00    +0.000 A 
ATOM     24  S   UNL     1      49.226   6.794  17.882  0.00  0.00    +0.000 S 
ATOM     25  C   UNL     1      48.537   5.255  17.635  0.00  0.00    +0.000 A 
ATOM     26  N   UNL     1      48.390   4.369  18.656  0.00  0.00    +0.000 NA
ATOM     27  C   UNL     1      47.819   3.256  18.311  0.00  0.00    +0.000 A 
ATOM     28  N   UNL     1      47.394   2.951  17.047  0.00  0.00    +0.000 N 
ATOM     29  C   UNL     1      47.596   3.775  15.969  0.00  0.00    +0.000 A 
ATOM     30  O   UNL     1      47.359   3.389  14.838  0.00  0.00    +0.000 OA
ATOM     31  C   UNL     1      48.183   5.054  16.317  0.00  0.00    +0.000 A 
ATOM     32  H   UNL     1      47.003   2.045  16.824  0.00  0.00    +0.000 HD
ENDBRANCH  19  22
ENDBRANCH   1  20
TORSDOF 7
ENDMDL
MODEL 4
REMARK VINA RESULT:    -7.755      4.447      5.519
REMARK INTER + INTRA:         -11.788
REMARK INTER:                 -10.657
REMARK INTRA:                  -1.131
REMARK UNBOUND:                -0.859
REMARK  Name = 
REMARK  7 active torsions:
REMARK  status: ('A' for Active; 'I' for Inactive)
REMARK    1  A    between atoms: C_2  and  C_20
REMARK    2  A    between atoms: N_3  and  C_4
REMARK    3  A    between atoms: C_4  and  C_5
REMARK    4  A    between atoms: C_9  and  C_10
REMARK    5  A    between atoms: C_10  and  N_11
REMARK    6  A    between atoms: N_11  and  C_12
REMARK    7  A    between atoms: C_12  and  C_13
REMARK                            x       y       z     vdW  Elec       q    Type
REMARK                         _______ _______ _______ _____ _____    ______ ____
ROOT
ATOM      1  C   UNL     1      45.596   7.733  12.857  0.00  0.00    +0.000 C 
ENDROOT
BRANCH   1   2
ATOM      2  C   UNL     1      45.613   6.223  12.771  0.00  0.00    +0.000 A 
ATOM      3  C   UNL     1      46.574   5.498  13.473  0.00  0.00    +0.000 A 
ATOM      4  C   UNL     1      46.550   4.111  13.414  0.00  0.00    +0.000 A 
ATOM      5  C   UNL     1      45.568   3.481  12.662  0.00  0.00    +0.000 A 
ATOM      6  C   UNL     1      44.624   4.262  11.997  0.00  0.00    +0.000 A 
ATOM      7  N   UNL     1      44.642   5.621  12.035  0.00  0.00    +0.000 NA
BRANCH   6   8
ATOM      8  C   UNL     1      43.528   3.601  11.188  0.00  0.00    +0.000 C 
BRANCH   8   9
ATOM      9  N   UNL     1      43.855   3.401   9.772  0.00  0.00    +0.000 NA
ATOM     10  H   UNL     1      44.554   4.108   9.530  0.00  0.00    +0.000 HD
BRANCH   9  11
ATOM     11  C   UNL     1      44.470   2.089   9.503  0.00  0.00    +0.000 C 
BRANCH  11  12
ATOM     12  C   UNL     1      45.553   2.181   8.435  0.00  0.00    +0.000 A 
ATOM     13  C   UNL     1      45.758   3.369   7.726  0.00  0.00    +0.000 A 
ATOM     14  C   UNL     1      46.791   3.442   6.798  0.00  0.00    +0.000 A 
ATOM     15  C   UNL     1      47.569   2.317   6.565  0.00  0.00    +0.000 A 
ATOM     16  C   UNL     1      47.278   1.165   7.274  0.00  0.00    +0.000 A 
ATOM     17  N   UNL     1      46.305   1.072   8.206  0.00  0.00    +0.000 NA
ENDBRANCH  11  12
ENDBRANCH   9  11
ENDBRANCH   8   9
ENDBRANCH   6   8
ENDBRANCH   1   2
BRANCH   1  20
ATOM     18  O   UNL     1      47.447   9.474  14.010  0.00  0.00    +0.000 OA
ATOM     19  C   UNL     1      47.566   9.186  12.821  0.00  0.00    +0.000 C 
ATOM     20  N   UNL     1      46.675   8.388  12.164  0.00  0.00    +0.000 N 
ATOM     21  H   UNL     1      46.846   8.097  11.204  0.00  0.00    +0.000 HD
BRANCH  19  22
ATOM     22  C   UNL     1      48.661   9.723  12.024  0.00  0.00    +0.000 A 
ATOM     23  C   UNL     1      48.699  11.055  11.637  0.00  0.00    +0.000 A 
ATOM     24  S   UNL     1      50.110  11.447  10.754  0.00  0.00    +0.000 S 
ATOM     25  C   UNL     1      50.705   9.856  10.889  0.00  0.00    +0.000 A 
ATOM     26  N   UNL     1      51.904   9.497  10.358  0.00  0.00    +0.000 NA
ATOM     27  C   UNL     1      52.228   8.259  10.575  0.00  0.00    +0.000 A 
ATOM     28  N   UNL     1      51.464   7.357  11.262  0.00  0.00    +0.000 N 
ATOM     29  C   UNL     1      50.212   7.647  11.743  0.00  0.00    +0.000 A 
ATOM     30  O   UNL     1      49.499   6.767  12.193  0.00  0.00    +0.000 OA
ATOM     31  C   UNL     1      49.831   9.034  11.569  0.00  0.00    +0.000 A 
ATOM     32  H   UNL     1      51.742   6.388  11.355  0.00  0.00    +0.000 HD
ENDBRANCH  19  22
ENDBRANCH   1  20
TORSDOF 7
ENDMDL
MODEL 5
REMARK VINA RESULT:    -7.532      3.373      8.767
REMARK INTER + INTRA:         -11.474
REMARK INTER:                 -10.207
REMARK INTRA:                  -1.267
REMARK UNBOUND:                -0.859
REMARK  Name = 
REMARK  7 active torsions:
REMARK  status: ('A' for Active; 'I' for Inactive)
REMARK    1  A    between atoms: C_2  and  C_20
REMARK    2  A    between atoms: N_3  and  C_4
REMARK    3  A    between atoms: C_4  and  C_5
REMARK    4  A    between atoms: C_9  and  C_10
REMARK    5  A    between atoms: C_10  and  N_11
REMARK    6  A    between atoms: N_11  and  C_12
REMARK    7  A    between atoms: C_12  and  C_13
REMARK                            x       y       z     vdW  Elec       q    Type
REMARK                         _______ _______ _______ _____ _____    ______ ____
ROOT
ATOM      1  C   UNL     1      48.998   6.945  15.704  0.00  0.00    +0.000 C 
ENDROOT
BRANCH   1   2
ATOM      2  C   UNL     1      49.100   5.931  16.822  0.00  0.00    +0.000 A 
ATOM      3  C   UNL     1      49.131   6.361  18.148  0.00  0.00    +0.000 A 
ATOM      4  C   UNL     1      49.185   5.414  19.163  0.00  0.00    +0.000 A 
ATOM      5  C   UNL     1      49.201   4.066  18.833  0.00  0.00    +0.000 A 
ATOM      6  C   UNL     1      49.150   3.701  17.489  0.00  0.00    +0.000 A 
ATOM      7  N   UNL     1      49.110   4.615  16.483  0.00  0.00    +0.000 NA
BRANCH   6   8
ATOM      8  C   UNL     1      49.144   2.238  17.101  0.00  0.00    +0.000 C 
BRANCH   8   9
ATOM      9  N   UNL     1      50.416   1.748  16.559  0.00  0.00    +0.000 NA
ATOM     10  H   UNL     1      50.902   2.560  16.172  0.00  0.00    +0.000 HD
BRANCH   9  11
ATOM     11  C   UNL     1      51.300   1.178  17.591  0.00  0.00    +0.000 C 
BRANCH  11  12
ATOM     12  C   UNL     1      52.649   1.886  17.632  0.00  0.00    +0.000 A 
ATOM     13  C   UNL     1      52.743   3.225  18.025  0.00  0.00    +0.000 A 
ATOM     14  C   UNL     1      53.993   3.828  18.107  0.00  0.00    +0.000 A 
ATOM     15  C   UNL     1      55.118   3.098  17.756  0.00  0.00    +0.000 A 
ATOM     16  C   UNL     1      54.943   1.791  17.336  0.00  0.00    +0.000 A 
ATOM     17  N   UNL     1      53.746   1.166  17.277  0.00  0.00    +0.000 NA
ENDBRANCH  11  12
ENDBRANCH   9  11
ENDBRANCH   8   9
ENDBRANCH   6   8
ENDBRANCH   1   2
BRANCH   1  20
ATOM     18  O   UNL     1      48.946   6.207  13.012  0.00  0.00    +0.000 OA
ATOM     19  C   UNL     1      47.881   6.409  13.592  0.00  0.00    +0.000 C 
ATOM     20  N   UNL     1      47.815   6.827  14.889  0.00  0.00    +0.000 N 
ATOM     21  H   UNL     1      46.921   6.902  15.368  0.00  0.00    +0.000 HD
BRANCH  19  22
ATOM     22  C   UNL     1      46.608   6.250  12.901  0.00  0.00    +0.000 A 
ATOM     23  C   UNL     1      45.944   7.328  12.334  0.00  0.00    +0.000 A 
ATOM     24  S   UNL     1      44.500   6.873  11.538  0.00  0.00    +0.000 S 
ATOM     25  C   UNL     1      44.744   5.229  11.917  0.00  0.00    +0.000 A 
ATOM     26  N   UNL     1      43.871   4.268  11.513  0.00  0.00    +0.000 NA
ATOM     27  C   UNL     1      44.216   3.065  11.853  0.00  0.00    +0.000 A 
ATOM     28  N   UNL     1      45.341   2.741  12.559  0.00  0.00    +0.000 N 
ATOM     29  C   UNL     1      46.207   3.679  13.061  0.00  0.00    +0.000 A 
ATOM     30  O   UNL     1      47.097   3.357  13.830  0.00  0.00    +0.000 OA
ATOM     31  C   UNL     1      45.890   5.035  12.660  0.00  0.00    +0.000 A 
ATOM     32  H   UNL     1      45.533   1.789  12.844  0.00  0.00    +0.000 HD
ENDBRANCH  19  22
ENDBRANCH   1  20
TORSDOF 7
ENDMDL
MODEL 6
REMARK VINA RESULT:    -7.101      3.825      8.181
REMARK INTER + INTRA:         -10.866
REMARK INTER:                  -9.649
REMARK INTRA:                  -1.217
REMARK UNBOUND:                -0.859
REMARK  Name = 
REMARK  7 active torsions:
REMARK  status: ('A' for Active; 'I' for Inactive)
REMARK    1  A    between atoms: C_2  and  C_20
REMARK    2  A    between atoms: N_3  and  C_4
REMARK    3  A    between atoms: C_4  and  C_5
REMARK    4  A    between atoms: C_9  and  C_10
REMARK    5  A    between atoms: C_10  and  N_11
REMARK    6  A    between atoms: N_11  and  C_12
REMARK    7  A    between atoms: C_12  and  C_13
REMARK                            x       y       z     vdW  Elec       q    Type
REMARK                         _______ _______ _______ _____ _____    ______ ____
ROOT
ATOM      1  C   UNL     1      47.447   3.652  16.520  0.00  0.00    +0.000 C 
ENDROOT
BRANCH   1   2
ATOM      2  C   UNL     1      48.882   3.888  16.935  0.00  0.00    +0.000 A 
ATOM      3  C   UNL     1      49.634   2.840  17.463  0.00  0.00    +0.000 A 
ATOM      4  C   UNL     1      50.962   3.066  17.801  0.00  0.00    +0.000 A 
ATOM      5  C   UNL     1      51.508   4.326  17.602  0.00  0.00    +0.000 A 
ATOM      6  C   UNL     1      50.708   5.327  17.054  0.00  0.00    +0.000 A 
ATOM      7  N   UNL     1      49.404   5.126  16.729  0.00  0.00    +0.000 NA
BRANCH   6   8
ATOM      8  C   UNL     1      51.284   6.706  16.804  0.00  0.00    +0.000 C 
BRANCH   8   9
ATOM      9  N   UNL     1      50.512   7.525  15.865  0.00  0.00    +0.000 NA
ATOM     10  H   UNL     1      50.198   8.349  16.383  0.00  0.00    +0.000 HD
BRANCH   9  11
ATOM     11  C   UNL     1      51.319   8.020  14.734  0.00  0.00    +0.000 C 
BRANCH  11  12
ATOM     12  C   UNL     1      50.447   8.635  13.646  0.00  0.00    +0.000 A 
ATOM     13  C   UNL     1      50.298   8.005  12.407  0.00  0.00    +0.000 A 
ATOM     14  C   UNL     1      49.451   8.560  11.455  0.00  0.00    +0.000 A 
ATOM     15  C   UNL     1      48.805   9.754  11.740  0.00  0.00    +0.000 A 
ATOM     16  C   UNL     1      49.036  10.342  12.972  0.00  0.00    +0.000 A 
ATOM     17  N   UNL     1      49.825   9.810  13.931  0.00  0.00    +0.000 NA
ENDBRANCH  11  12
ENDBRANCH   9  11
ENDBRANCH   8   9
ENDBRANCH   6   8
ENDBRANCH   1   2
BRANCH   1  20
ATOM     18  O   UNL     1      47.100   3.286  13.774  0.00  0.00    +0.000 OA
ATOM     19  C   UNL     1      46.733   4.343  14.282  0.00  0.00    +0.000 C 
ATOM     20  N   UNL     1      46.915   4.629  15.604  0.00  0.00    +0.000 N 
ATOM     21  H   UNL     1      46.525   5.475  16.014  0.00  0.00    +0.000 HD
BRANCH  19  22
ATOM     22  C   UNL     1      46.110   5.386  13.478  0.00  0.00    +0.000 A 
ATOM     23  C   UNL     1      46.767   6.571  13.180  0.00  0.00    +0.000 A 
ATOM     24  S   UNL     1      45.842   7.607  12.180  0.00  0.00    +0.000 S 
ATOM     25  C   UNL     1      44.560   6.487  12.110  0.00  0.00    +0.000 A 
ATOM     26  N   UNL     1      43.434   6.739  11.391  0.00  0.00    +0.000 NA
ATOM     27  C   UNL     1      42.567   5.774  11.412  0.00  0.00    +0.000 A 
ATOM     28  N   UNL     1      42.722   4.595  12.087  0.00  0.00    +0.000 N 
ATOM     29  C   UNL     1      43.800   4.328  12.893  0.00  0.00    +0.000 A 
ATOM     30  O   UNL     1      43.813   3.342  13.609  0.00  0.00    +0.000 OA
ATOM     31  C   UNL     1      44.819   5.357  12.857  0.00  0.00    +0.000 A 
ATOM     32  H   UNL     1      41.988   3.898  12.112  0.00  0.00    +0.000 HD
ENDBRANCH  19  22
ENDBRANCH   1  20
TORSDOF 7
ENDMDL
MODEL 7
REMARK VINA RESULT:    -7.014      3.649      8.737
REMARK INTER + INTRA:         -10.744
REMARK INTER:                  -9.667
REMARK INTRA:                  -1.077
REMARK UNBOUND:                -0.859
REMARK  Name = 
REMARK  7 active torsions:
REMARK  status: ('A' for Active; 'I' for Inactive)
REMARK    1  A    between atoms: C_2  and  C_20
REMARK    2  A    between atoms: N_3  and  C_4
REMARK    3  A    between atoms: C_4  and  C_5
REMARK    4  A    between atoms: C_9  and  C_10
REMARK    5  A    between atoms: C_10  and  N_11
REMARK    6  A    between atoms: N_11  and  C_12
REMARK    7  A    between atoms: C_12  and  C_13
REMARK                            x       y       z     vdW  Elec       q    Type
REMARK                         _______ _______ _______ _____ _____    ______ ____
ROOT
ATOM      1  C   UNL     1      46.443   8.071  13.029  0.00  0.00    +0.000 C 
ENDROOT
BRANCH   1   2
ATOM      2  C   UNL     1      47.949   8.119  13.155  0.00  0.00    +0.000 A 
ATOM      3  C   UNL     1      48.742   8.120  12.009  0.00  0.00    +0.000 A 
ATOM      4  C   UNL     1      50.122   8.205  12.142  0.00  0.00    +0.000 A 
ATOM      5  C   UNL     1      50.677   8.291  13.412  0.00  0.00    +0.000 A 
ATOM      6  C   UNL     1      49.829   8.302  14.517  0.00  0.00    +0.000 A 
ATOM      7  N   UNL     1      48.477   8.208  14.404  0.00  0.00    +0.000 NA
BRANCH   6   8
ATOM      8  C   UNL     1      50.405   8.417  15.913  0.00  0.00    +0.000 C 
BRANCH   8   9
ATOM      9  N   UNL     1      49.799   7.514  16.896  0.00  0.00    +0.000 NA
ATOM     10  H   UNL     1      48.818   7.404  16.629  0.00  0.00    +0.000 HD
BRANCH   9  11
ATOM     11  C   UNL     1      50.394   6.165  16.883  0.00  0.00    +0.000 C 
BRANCH  11  12
ATOM     12  C   UNL     1      49.340   5.082  17.080  0.00  0.00    +0.000 A 
ATOM     13  C   UNL     1      49.421   4.194  18.157  0.00  0.00    +0.000 A 
ATOM     14  C   UNL     1      48.414   3.253  18.344  0.00  0.00    +0.000 A 
ATOM     15  C   UNL     1      47.373   3.188  17.430  0.00  0.00    +0.000 A 
ATOM     16  C   UNL     1      47.384   4.072  16.366  0.00  0.00    +0.000 A 
ATOM     17  N   UNL     1      48.328   5.019  16.175  0.00  0.00    +0.000 NA
ENDBRANCH  11  12
ENDBRANCH   9  11
ENDBRANCH   8   9
ENDBRANCH   6   8
ENDBRANCH   1   2
BRANCH   1  20
ATOM     18  O   UNL     1      44.409   7.509  11.202  0.00  0.00    +0.000 OA
ATOM     19  C   UNL     1      44.941   6.577  11.802  0.00  0.00    +0.000 C 
ATOM     20  N   UNL     1      45.902   6.765  12.752  0.00  0.00    +0.000 N 
ATOM     21  H   UNL     1      46.385   5.972  13.169  0.00  0.00    +0.000 HD
BRANCH  19  22
ATOM     22  C   UNL     1      44.538   5.199  11.557  0.00  0.00    +0.000 A 
ATOM     23  C   UNL     1      43.794   4.479  12.481  0.00  0.00    +0.000 A 
ATOM     24  S   UNL     1      43.406   2.905  11.935  0.00  0.00    +0.000 S 
ATOM     25  C   UNL     1      44.203   3.161  10.451  0.00  0.00    +0.000 A 
ATOM     26  N   UNL     1      44.241   2.202   9.488  0.00  0.00    +0.000 NA
ATOM     27  C   UNL     1      44.857   2.565   8.406  0.00  0.00    +0.000 A 
ATOM     28  N   UNL     1      45.439   3.786   8.206  0.00  0.00    +0.000 N 
ATOM     29  C   UNL     1      45.502   4.754   9.175  0.00  0.00    +0.000 A 
ATOM     30  O   UNL     1      46.179   5.755   9.013  0.00  0.00    +0.000 OA
ATOM     31  C   UNL     1      44.779   4.413  10.385  0.00  0.00    +0.000 A 
ATOM     32  H   UNL     1      45.955   3.996   7.360  0.00  0.00    +0.000 HD
ENDBRANCH  19  22
ENDBRANCH   1  20
TORSDOF 7
ENDMDL
MODEL 8
REMARK VINA RESULT:    -6.850      3.479      8.744
REMARK INTER + INTRA:         -10.513
REMARK INTER:                  -9.667
REMARK INTRA:                  -0.847
REMARK UNBOUND:                -0.859
REMARK  Name = 
REMARK  7 active torsions:
REMARK  status: ('A' for Active; 'I' for Inactive)
REMARK    1  A    between atoms: C_2  and  C_20
REMARK    2  A    between atoms: N_3  and  C_4
REMARK    3  A    between atoms: C_4  and  C_5
REMARK    4  A    between atoms: C_9  and  C_10
REMARK    5  A    between atoms: C_10  and  N_11
REMARK    6  A    between atoms: N_11  and  C_12
REMARK    7  A    between atoms: C_12  and  C_13
REMARK                            x       y       z     vdW  Elec       q    Type
REMARK                         _______ _______ _______ _____ _____    ______ ____
ROOT
ATOM      1  C   UNL     1      47.674   7.883  11.776  0.00  0.00    +0.000 C 
ENDROOT
BRANCH   1   2
ATOM      2  C   UNL     1      48.201   8.275  13.138  0.00  0.00    +0.000 A 
ATOM      3  C   UNL     1      48.379   9.621  13.453  0.00  0.00    +0.000 A 
ATOM      4  C   UNL     1      48.827   9.964  14.722  0.00  0.00    +0.000 A 
ATOM      5  C   UNL     1      49.082   8.960  15.646  0.00  0.00    +0.000 A 
ATOM      6  C   UNL     1      48.868   7.634  15.274  0.00  0.00    +0.000 A 
ATOM      7  N   UNL     1      48.442   7.281  14.033  0.00  0.00    +0.000 NA
BRANCH   6   8
ATOM      8  C   UNL     1      49.116   6.519  16.269  0.00  0.00    +0.000 C 
BRANCH   8   9
ATOM      9  N   UNL     1      48.036   5.531  16.356  0.00  0.00    +0.000 NA
ATOM     10  H   UNL     1      48.160   4.890  15.569  0.00  0.00    +0.000 HD
BRANCH   9  11
ATOM     11  C   UNL     1      48.101   4.714  17.581  0.00  0.00    +0.000 C 
BRANCH  11  12
ATOM     12  C   UNL     1      49.348   3.838  17.610  0.00  0.00    +0.000 A 
ATOM     13  C   UNL     1      49.341   2.565  17.032  0.00  0.00    +0.000 A 
ATOM     14  C   UNL     1      50.510   1.812  17.022  0.00  0.00    +0.000 A 
ATOM     15  C   UNL     1      51.647   2.324  17.628  0.00  0.00    +0.000 A 
ATOM     16  C   UNL     1      51.565   3.574  18.218  0.00  0.00    +0.000 A 
ATOM     17  N   UNL     1      50.455   4.344  18.213  0.00  0.00    +0.000 NA
ENDBRANCH  11  12
ENDBRANCH   9  11
ENDBRANCH   8   9
ENDBRANCH   6   8
ENDBRANCH   1   2
BRANCH   1  20
ATOM     18  O   UNL     1      44.898   7.594  11.731  0.00  0.00    +0.000 OA
ATOM     19  C   UNL     1      45.600   6.587  11.670  0.00  0.00    +0.000 C 
ATOM     20  N   UNL     1      46.961   6.631  11.743  0.00  0.00    +0.000 N 
ATOM     21  H   UNL     1      47.519   5.792  11.603  0.00  0.00    +0.000 HD
BRANCH  19  22
ATOM     22  C   UNL     1      45.003   5.262  11.557  0.00  0.00    +0.000 A 
ATOM     23  C   UNL     1      44.333   4.669  12.617  0.00  0.00    +0.000 A 
ATOM     24  S   UNL     1      43.682   3.138  12.216  0.00  0.00    +0.000 S 
ATOM     25  C   UNL     1      44.264   3.248  10.618  0.00  0.00    +0.000 A 
ATOM     26  N   UNL     1      44.039   2.262   9.709  0.00  0.00    +0.000 NA
ATOM     27  C   UNL     1      44.518   2.511   8.529  0.00  0.00    +0.000 A 
ATOM     28  N   UNL     1      45.201   3.644   8.184  0.00  0.00    +0.000 N 
ATOM     29  C   UNL     1      45.527   4.627   9.083  0.00  0.00    +0.000 A 
ATOM     30  O   UNL     1      46.284   5.531   8.772  0.00  0.00    +0.000 OA
ATOM     31  C   UNL     1      44.966   4.416  10.403  0.00  0.00    +0.000 A 
ATOM     32  H   UNL     1      45.600   3.762   7.261  0.00  0.00    +0.000 HD
ENDBRANCH  19  22
ENDBRANCH   1  20
TORSDOF 7
ENDMDL
MODEL 9
REMARK VINA RESULT:    -6.742      2.772      3.439
REMARK INTER + INTRA:         -10.360
REMARK INTER:                  -9.386
REMARK INTRA:                  -0.974
REMARK UNBOUND:                -0.859
REMARK  Name = 
REMARK  7 active torsions:
REMARK  status: ('A' for Active; 'I' for Inactive)
REMARK    1  A    between atoms: C_2  and  C_20
REMARK    2  A    between atoms: N_3  and  C_4
REMARK    3  A    between atoms: C_4  and  C_5
REMARK    4  A    between atoms: C_9  and  C_10
REMARK    5  A    between atoms: C_10  and  N_11
REMARK    6  A    between atoms: N_11  and  C_12
REMARK    7  A    between atoms: C_12  and  C_13
REMARK                            x       y       z     vdW  Elec       q    Type
REMARK                         _______ _______ _______ _____ _____    ______ ____
ROOT
ATOM      1  C   UNL     1      48.950   7.760  11.964  0.00  0.00    +0.000 C 
ENDROOT
BRANCH   1   2
ATOM      2  C   UNL     1      47.480   7.458  12.155  0.00  0.00    +0.000 A 
ATOM      3  C   UNL     1      46.564   8.503  12.255  0.00  0.00    +0.000 A 
ATOM      4  C   UNL     1      45.214   8.207  12.390  0.00  0.00    +0.000 A 
ATOM      5  C   UNL     1      44.810   6.879  12.419  0.00  0.00    +0.000 A 
ATOM      6  C   UNL     1      45.774   5.880  12.298  0.00  0.00    +0.000 A 
ATOM      7  N   UNL     1      47.101   6.153  12.177  0.00  0.00    +0.000 NA
BRANCH   6   8
ATOM      8  C   UNL     1      45.361   4.423  12.304  0.00  0.00    +0.000 C 
BRANCH   8   9
ATOM      9  N   UNL     1      44.325   4.082  11.325  0.00  0.00    +0.000 NA
ATOM     10  H   UNL     1      43.441   4.441  11.694  0.00  0.00    +0.000 HD
BRANCH   9  11
ATOM     11  C   UNL     1      44.531   4.731  10.017  0.00  0.00    +0.000 C 
BRANCH  11  12
ATOM     12  C   UNL     1      45.286   3.826   9.051  0.00  0.00    +0.000 A 
ATOM     13  C   UNL     1      45.293   2.439   9.228  0.00  0.00    +0.000 A 
ATOM     14  C   UNL     1      45.942   1.634   8.298  0.00  0.00    +0.000 A 
ATOM     15  C   UNL     1      46.606   2.231   7.237  0.00  0.00    +0.000 A 
ATOM     16  C   UNL     1      46.591   3.612   7.152  0.00  0.00    +0.000 A 
ATOM     17  N   UNL     1      45.942   4.419   8.019  0.00  0.00    +0.000 NA
ENDBRANCH  11  12
ENDBRANCH   9  11
ENDBRANCH   8   9
ENDBRANCH   6   8
ENDBRANCH   1   2
BRANCH   1  20
ATOM     18  O   UNL     1      49.699   9.325  14.150  0.00  0.00    +0.000 OA
ATOM     19  C   UNL     1      50.071   8.155  14.104  0.00  0.00    +0.000 C 
ATOM     20  N   UNL     1      49.799   7.335  13.048  0.00  0.00    +0.000 N 
ATOM     21  H   UNL     1      50.045   6.348  13.077  0.00  0.00    +0.000 HD
BRANCH  19  22
ATOM     22  C   UNL     1      50.873   7.579  15.176  0.00  0.00    +0.000 A 
ATOM     23  C   UNL     1      52.173   7.998  15.423  0.00  0.00    +0.000 A 
ATOM     24  S   UNL     1      52.880   7.206  16.764  0.00  0.00    +0.000 S 
ATOM     25  C   UNL     1      51.461   6.307  17.053  0.00  0.00    +0.000 A 
ATOM     26  N   UNL     1      51.373   5.427  18.086  0.00  0.00    +0.000 NA
ATOM     27  C   UNL     1      50.217   4.848  18.189  0.00  0.00    +0.000 A 
ATOM     28  N   UNL     1      49.155   5.062  17.355  0.00  0.00    +0.000 N 
ATOM     29  C   UNL     1      49.220   5.874  16.252  0.00  0.00    +0.000 A 
ATOM     30  O   UNL     1      48.308   5.899  15.443  0.00  0.00    +0.000 OA
ATOM     31  C   UNL     1      50.477   6.584  16.127  0.00  0.00    +0.000 A 
ATOM     32  H   UNL     1      48.292   4.541  17.451  0.00  0.00    +0.000 HD
ENDBRANCH  19  22
ENDBRANCH   1  20
TORSDOF 7
ENDMDL
