MODEL 1
REMARK VINA RESULT:    -7.254      0.000      0.000
REMARK INTER + INTRA:         -10.550
REMARK INTER:                  -9.799
REMARK INTRA:                  -0.752
REMARK UNBOUND:                -0.752
REMARK  Name = 
REMARK  7 active torsions:
REMARK  status: ('A' for Active; 'I' for Inactive)
REMARK    1  A    between atoms: C_1  and  C_2
REMARK    2  A    between atoms: C_2  and  O_3
REMARK    3  A    between atoms: O_3  and  C_4
REMARK    4  A    between atoms: C_6  and  N_7
REMARK    5  A    between atoms: N_7  and  C_8
REMARK    6  A    between atoms: C_8  and  C_9
REMARK    7  A    between atoms: C_17  and  C_18
REMARK                            x       y       z     vdW  Elec       q    Type
REMARK                         _______ _______ _______ _____ _____    ______ ____
ROOT
ATOM      1  C   UNL     1      46.702   5.755  12.693  0.00  0.00    +0.000 A 
ATOM      2  C   UNL     1      46.053   5.913  11.466  0.00  0.00    +0.000 A 
ATOM      3  C   UNL     1      45.313   4.872  10.914  0.00  0.00    +0.000 A 
ATOM      4  N   UNL     1      45.143   3.709  11.558  0.00  0.00    +0.000 NA
ATOM      5  C   UNL     1      45.731   3.582  12.781  0.00  0.00    +0.000 A 
ATOM      6  C   UNL     1      46.524   4.554  13.387  0.00  0.00    +0.000 A 
ENDROOT
BRANCH   6   7
ATOM      7  C   UNL     1      47.124   4.209  14.704  0.00  0.00    +0.000 C 
ATOM      8  N   UNL     1      47.171   5.175  15.668  0.00  0.00    +0.000 N 
ATOM      9  O   UNL     1      47.576   3.092  14.926  0.00  0.00    +0.000 OA
ATOM     10  H   UNL     1      46.814   6.109  15.502  0.00  0.00    +0.000 HD
ATOM     11  H   UNL     1      47.595   4.956  16.558  0.00  0.00    +0.000 HD
ENDBRANCH   6   7
BRANCH   3  12
ATOM     12  N   UNL     1      44.804   5.081   9.631  0.00  0.00    +0.000 N 
ATOM     13  H   UNL     1      44.191   5.891   9.624  0.00  0.00    +0.000 HD
BRANCH  12  14
ATOM     14  C   UNL     1      44.241   3.928   8.952  0.00  0.00    +0.000 C 
BRANCH  14  15
ATOM     15  C   UNL     1      45.366   3.136   8.359  0.00  0.00    +0.000 A 
ATOM     16  C   UNL     1      45.534   1.786   8.613  0.00  0.00    +0.000 A 
ATOM     17  N   UNL     1      46.521   1.034   8.085  0.00  0.00    +0.000 NA
ATOM     18  C   UNL     1      47.362   1.678   7.265  0.00  0.00    +0.000 A 
ATOM     19  N   UNL     1      47.302   2.979   6.936  0.00  0.00    +0.000 NA
ATOM     20  C   UNL     1      46.292   3.678   7.492  0.00  0.00    +0.000 A 
ENDBRANCH  14  15
ENDBRANCH  12  14
ENDBRANCH   3  12
BRANCH   1  21
ATOM     21  O   UNL     1      47.516   6.723  13.234  0.00  0.00    +0.000 OA
BRANCH  21  23
ATOM     22  C   UNL     1      48.953   8.007  11.807  0.00  0.00    +0.000 C 
ATOM     23  C   UNL     1      48.850   6.803  12.721  0.00  0.00    +0.000 C 
ENDBRANCH  21  23
ENDBRANCH   1  21
TORSDOF 6
ENDMDL
MODEL 2
REMARK VINA RESULT:    -6.931      1.442      1.870
REMARK INTER + INTRA:         -10.114
REMARK INTER:                  -9.415
REMARK INTRA:                  -0.699
REMARK UNBOUND:                -0.752
REMARK  Name = 
REMARK  7 active torsions:
REMARK  status: ('A' for Active; 'I' for Inactive)
REMARK    1  A    between atoms: C_1  and  C_2
REMARK    2  A    between atoms: C_2  and  O_3
REMARK    3  A    between atoms: O_3  and  C_4
REMARK    4  A    between atoms: C_6  and  N_7
REMARK    5  A    between atoms: N_7  and  C_8
REMARK    6  A    between atoms: C_8  and  C_9
REMARK    7  A    between atoms: C_17  and  C_18
REMARK                            x       y       z     vdW  Elec       q    Type
REMARK                         _______ _______ _______ _____ _____    ______ ____
ROOT
ATOM      1  C   UNL     1      45.450   5.605  12.504  0.00  0.00    +0.000 A 
ATOM      2  C   UNL     1      44.741   5.217  11.364  0.00  0.00    +0.000 A 
ATOM      3  C   UNL     1      44.664   3.877  10.996  0.00  0.00    +0.000 A 
ATOM      4  N   UNL     1      45.210   2.909  11.744  0.00  0.00    +0.000 NA
ATOM      5  C   UNL     1      45.852   3.289  12.885  0.00  0.00    +0.000 A 
ATOM      6  C   UNL     1      46.014   4.608  13.305  0.00  0.00    +0.000 A 
ENDROOT
BRANCH   6   7
ATOM      7  C   UNL     1      46.792   4.826  14.553  0.00  0.00    +0.000 C 
ATOM      8  N   UNL     1      47.546   5.959  14.658  0.00  0.00    +0.000 N 
ATOM      9  O   UNL     1      46.771   4.013  15.469  0.00  0.00    +0.000 OA
ATOM     10  H   UNL     1      47.588   6.641  13.909  0.00  0.00    +0.000 HD
ATOM     11  H   UNL     1      48.094   6.107  15.494  0.00  0.00    +0.000 HD
ENDBRANCH   6   7
BRANCH   3  12
ATOM     12  N   UNL     1      44.039   3.600   9.779  0.00  0.00    +0.000 N 
ATOM     13  H   UNL     1      43.816   2.610   9.716  0.00  0.00    +0.000 HD
BRANCH  12  14
ATOM     14  C   UNL     1      44.673   4.123   8.582  0.00  0.00    +0.000 C 
BRANCH  14  15
ATOM     15  C   UNL     1      45.659   3.107   8.091  0.00  0.00    +0.000 A 
ATOM     16  C   UNL     1      46.727   3.446   7.278  0.00  0.00    +0.000 A 
ATOM     17  N   UNL     1      47.646   2.567   6.831  0.00  0.00    +0.000 NA
ATOM     18  C   UNL     1      47.476   1.299   7.231  0.00  0.00    +0.000 A 
ATOM     19  N   UNL     1      46.488   0.848   8.022  0.00  0.00    +0.000 NA
ATOM     20  C   UNL     1      45.602   1.773   8.440  0.00  0.00    +0.000 A 
ENDBRANCH  14  15
ENDBRANCH  12  14
ENDBRANCH   3  12
BRANCH   1  21
ATOM     21  O   UNL     1      45.627   6.923  12.856  0.00  0.00    +0.000 OA
BRANCH  21  23
ATOM     22  C   UNL     1      45.317   9.275  12.505  0.00  0.00    +0.000 C 
ATOM     23  C   UNL     1      45.317   7.904  11.861  0.00  0.00    +0.000 C 
ENDBRANCH  21  23
ENDBRANCH   1  21
TORSDOF 6
ENDMDL
MODEL 3
REMARK VINA RESULT:    -6.391      1.432      2.711
REMARK INTER + INTRA:          -9.385
REMARK INTER:                  -8.665
REMARK INTRA:                  -0.720
REMARK UNBOUND:                -0.752
REMARK  Name = 
REMARK  7 active torsions:
REMARK  status: ('A' for Active; 'I' for Inactive)
REMARK    1  A    between atoms: C_1  and  C_2
REMARK    2  A    between atoms: C_2  and  O_3
REMARK    3  A    between atoms: O_3  and  C_4
REMARK    4  A    between atoms: C_6  and  N_7
REMARK    5  A    between atoms: N_7  and  C_8
REMARK    6  A    between atoms: C_8  and  C_9
REMARK    7  A    between atoms: C_17  and  C_18
REMARK                            x       y       z     vdW  Elec       q    Type
REMARK                         _______ _______ _______ _____ _____    ______ ____
ROOT
ATOM      1  C   UNL     1      47.012   4.543  13.808  0.00  0.00    +0.000 A 
ATOM      2  C   UNL     1      46.057   3.793  13.115  0.00  0.00    +0.000 A 
ATOM      3  C   UNL     1      45.272   4.381  12.128  0.00  0.00    +0.000 A 
ATOM      4  N   UNL     1      45.438   5.660  11.764  0.00  0.00    +0.000 NA
ATOM      5  C   UNL     1      46.409   6.369  12.404  0.00  0.00    +0.000 A 
ATOM      6  C   UNL     1      47.210   5.875  13.432  0.00  0.00    +0.000 A 
ENDROOT
BRANCH   6   7
ATOM      7  C   UNL     1      48.181   6.820  14.044  0.00  0.00    +0.000 C 
ATOM      8  N   UNL     1      47.696   7.860  14.783  0.00  0.00    +0.000 N 
ATOM      9  O   UNL     1      49.388   6.684  13.888  0.00  0.00    +0.000 OA
ATOM     10  H   UNL     1      46.701   7.999  14.916  0.00  0.00    +0.000 HD
ATOM     11  H   UNL     1      48.347   8.519  15.186  0.00  0.00    +0.000 HD
ENDBRANCH   6   7
BRANCH   3  12
ATOM     12  N   UNL     1      44.264   3.586  11.579  0.00  0.00    +0.000 N 
ATOM     13  H   UNL     1      44.494   2.602  11.688  0.00  0.00    +0.000 HD
BRANCH  12  14
ATOM     14  C   UNL     1      43.817   3.926  10.240  0.00  0.00    +0.000 C 
BRANCH  14  15
ATOM     15  C   UNL     1      44.842   3.433   9.264  0.00  0.00    +0.000 A 
ATOM     16  C   UNL     1      45.178   2.095   9.157  0.00  0.00    +0.000 A 
ATOM     17  N   UNL     1      46.080   1.609   8.280  0.00  0.00    +0.000 NA
ATOM     18  C   UNL     1      46.655   2.518   7.480  0.00  0.00    +0.000 A 
ATOM     19  N   UNL     1      46.410   3.838   7.483  0.00  0.00    +0.000 NA
ATOM     20  C   UNL     1      45.497   4.264   8.378  0.00  0.00    +0.000 A 
ENDBRANCH  14  15
ENDBRANCH  12  14
ENDBRANCH   3  12
BRANCH   1  21
ATOM     21  O   UNL     1      47.748   4.028  14.850  0.00  0.00    +0.000 OA
BRANCH  21  23
ATOM     22  C   UNL     1      48.038   4.776  17.110  0.00  0.00    +0.000 C 
ATOM     23  C   UNL     1      47.132   4.043  16.143  0.00  0.00    +0.000 C 
ENDBRANCH  21  23
ENDBRANCH   1  21
TORSDOF 6
ENDMDL
MODEL 4
REMARK VINA RESULT:    -6.292      2.164      3.025
REMARK INTER + INTRA:          -9.251
REMARK INTER:                  -8.487
REMARK INTRA:                  -0.764
REMARK UNBOUND:                -0.752
REMARK  Name = 
REMARK  7 active torsions:
REMARK  status: ('A' for Active; 'I' for Inactive)
REMARK    1  A    between atoms: C_1  and  C_2
REMARK    2  A    between atoms: C_2  and  O_3
REMARK    3  A    between atoms: O_3  and  C_4
REMARK    4  A    between atoms: C_6  and  N_7
REMARK    5  A    between atoms: N_7  and  C_8
REMARK    6  A    between atoms: C_8  and  C_9
REMARK    7  A    between atoms: C_17  and  C_18
REMARK                            x       y       z     vdW  Elec       q    Type
REMARK                         _______ _______ _______ _____ _____    ______ ____
ROOT
ATOM      1  C   UNL     1      46.000   6.438  11.517  0.00  0.00    +0.000 A 
ATOM      2  C   UNL     1      45.970   5.070  11.233  0.00  0.00    +0.000 A 
ATOM      3  C   UNL     1      44.760   4.413  11.031  0.00  0.00    +0.000 A 
ATOM      4  N   UNL     1      43.591   5.069  11.041  0.00  0.00    +0.000 NA
ATOM      5  C   UNL     1      43.633   6.412  11.261  0.00  0.00    +0.000 A 
ATOM      6  C   UNL     1      44.792   7.142  11.516  0.00  0.00    +0.000 A 
ENDROOT
BRANCH   6   7
ATOM      7  C   UNL     1      44.629   8.595  11.785  0.00  0.00    +0.000 C 
ATOM      8  N   UNL     1      45.157   9.105  12.936  0.00  0.00    +0.000 N 
ATOM      9  O   UNL     1      44.029   9.325  11.005  0.00  0.00    +0.000 OA
ATOM     10  H   UNL     1      45.647   8.519  13.601  0.00  0.00    +0.000 HD
ATOM     11  H   UNL     1      45.033  10.088  13.137  0.00  0.00    +0.000 HD
ENDBRANCH   6   7
BRANCH   3  12
ATOM     12  N   UNL     1      44.822   3.026  10.876  0.00  0.00    +0.000 N 
ATOM     13  H   UNL     1      45.757   2.690  11.093  0.00  0.00    +0.000 HD
BRANCH  12  14
ATOM     14  C   UNL     1      44.287   2.479   9.643  0.00  0.00    +0.000 C 
BRANCH  14  15
ATOM     15  C   UNL     1      45.345   2.580   8.587  0.00  0.00    +0.000 A 
ATOM     16  C   UNL     1      46.192   1.527   8.287  0.00  0.00    +0.000 A 
ATOM     17  N   UNL     1      47.144   1.571   7.332  0.00  0.00    +0.000 NA
ATOM     18  C   UNL     1      47.230   2.724   6.655  0.00  0.00    +0.000 A 
ATOM     19  N   UNL     1      46.465   3.811   6.847  0.00  0.00    +0.000 NA
ATOM     20  C   UNL     1      45.530   3.707   7.812  0.00  0.00    +0.000 A 
ENDBRANCH  14  15
ENDBRANCH  12  14
ENDBRANCH   3  12
BRANCH   1  21
ATOM     21  O   UNL     1      47.163   7.110  11.811  0.00  0.00    +0.000 OA
BRANCH  21  23
ATOM     22  C   UNL     1      49.159   7.467  13.092  0.00  0.00    +0.000 C 
ATOM     23  C   UNL     1      48.029   6.508  12.779  0.00  0.00    +0.000 C 
ENDBRANCH  21  23
ENDBRANCH   1  21
TORSDOF 6
ENDMDL
MODEL 5
REMARK VINA RESULT:    -6.085      1.755      2.149
REMARK INTER + INTRA:          -8.971
REMARK INTER:                  -8.475
REMARK INTRA:                  -0.496
REMARK UNBOUND:                -0.752
REMARK  Name = 
REMARK  7 active torsions:
REMARK  status: ('A' for Active; 'I' for Inactive)
REMARK    1  A    between atoms: C_1  and  C_2
REMARK    2  A    between atoms: C_2  and  O_3
REMARK    3  A    between atoms: O_3  and  C_4
REMARK    4  A    between atoms: C_6  and  N_7
REMARK    5  A    between atoms: N_7  and  C_8
REMARK    6  A    between atoms: C_8  and  C_9
REMARK    7  A    between atoms: C_17  and  C_18
REMARK                            x       y       z     vdW  Elec       q    Type
REMARK                         _______ _______ _______ _____ _____    ______ ____
ROOT
ATOM      1  C   UNL     1      46.181   6.773  12.914  0.00  0.00    +0.000 A 
ATOM      2  C   UNL     1      45.080   6.259  12.224  0.00  0.00    +0.000 A 
ATOM      3  C   UNL     1      44.817   4.892  12.222  0.00  0.00    +0.000 A 
ATOM      4  N   UNL     1      45.565   4.030  12.924  0.00  0.00    +0.000 NA
ATOM      5  C   UNL     1      46.603   4.545  13.642  0.00  0.00    +0.000 A 
ATOM      6  C   UNL     1      46.964   5.891  13.665  0.00  0.00    +0.000 A 
ENDROOT
BRANCH   6   7
ATOM      7  C   UNL     1      48.162   6.253  14.468  0.00  0.00    +0.000 C 
ATOM      8  N   UNL     1      48.061   6.234  15.829  0.00  0.00    +0.000 N 
ATOM      9  O   UNL     1      49.217   6.572  13.932  0.00  0.00    +0.000 OA
ATOM     10  H   UNL     1      47.196   5.984  16.294  0.00  0.00    +0.000 HD
ATOM     11  H   UNL     1      48.863   6.498  16.383  0.00  0.00    +0.000 HD
ENDBRANCH   6   7
BRANCH   3  12
ATOM     12  N   UNL     1      43.770   4.460  11.406  0.00  0.00    +0.000 N 
ATOM     13  H   UNL     1      42.876   4.649  11.852  0.00  0.00    +0.000 HD
BRANCH  12  14
ATOM     14  C   UNL     1      43.870   3.116  10.867  0.00  0.00    +0.000 C 
BRANCH  14  15
ATOM     15  C   UNL     1      44.744   3.163   9.650  0.00  0.00    +0.000 A 
ATOM     16  C   UNL     1      45.335   2.029   9.121  0.00  0.00    +0.000 A 
ATOM     17  N   UNL     1      46.112   2.025   8.019  0.00  0.00    +0.000 NA
ATOM     18  C   UNL     1      46.287   3.217   7.431  0.00  0.00    +0.000 A 
ATOM     19  N   UNL     1      45.764   4.383   7.843  0.00  0.00    +0.000 NA
ATOM     20  C   UNL     1      44.994   4.324   8.948  0.00  0.00    +0.000 A 
ENDBRANCH  14  15
ENDBRANCH  12  14
ENDBRANCH   3  12
BRANCH   1  21
ATOM     21  O   UNL     1      46.531   8.102  12.871  0.00  0.00    +0.000 OA
BRANCH  21  23
ATOM     22  C   UNL     1      46.143  10.262  11.903  0.00  0.00    +0.000 C 
ATOM     23  C   UNL     1      45.502   9.028  12.503  0.00  0.00    +0.000 C 
ENDBRANCH  21  23
ENDBRANCH   1  21
TORSDOF 6
ENDMDL
MODEL 6
REMARK VINA RESULT:    -5.958      2.915      6.684
REMARK INTER + INTRA:          -8.800
REMARK INTER:                  -8.002
REMARK INTRA:                  -0.798
REMARK UNBOUND:                -0.752
REMARK  Name = 
REMARK  7 active torsions:
REMARK  status: ('A' for Active; 'I' for Inactive)
REMARK    1  A    between atoms: C_1  and  C_2
REMARK    2  A    between atoms: C_2  and  O_3
REMARK    3  A    between atoms: O_3  and  C_4
REMARK    4  A    between atoms: C_6  and  N_7
REMARK    5  A    between atoms: N_7  and  C_8
REMARK    6  A    between atoms: C_8  and  C_9
REMARK    7  A    between atoms: C_17  and  C_18
REMARK                            x       y       z     vdW  Elec       q    Type
REMARK                         _______ _______ _______ _____ _____    ______ ____
ROOT
ATOM      1  C   UNL     1      46.136   6.213  12.374  0.00  0.00    +0.000 A 
ATOM      2  C   UNL     1      46.792   6.165  13.607  0.00  0.00    +0.000 A 
ATOM      3  C   UNL     1      46.806   4.994  14.359  0.00  0.00    +0.000 A 
ATOM      4  N   UNL     1      46.249   3.861  13.910  0.00  0.00    +0.000 NA
ATOM      5  C   UNL     1      45.661   3.900  12.682  0.00  0.00    +0.000 A 
ATOM      6  C   UNL     1      45.562   5.037  11.882  0.00  0.00    +0.000 A 
ENDROOT
BRANCH   6   7
ATOM      7  C   UNL     1      44.836   4.893  10.593  0.00  0.00    +0.000 C 
ATOM      8  N   UNL     1      45.421   5.381   9.460  0.00  0.00    +0.000 N 
ATOM      9  O   UNL     1      43.734   4.360  10.537  0.00  0.00    +0.000 OA
ATOM     10  H   UNL     1      46.326   5.835   9.483  0.00  0.00    +0.000 HD
ATOM     11  H   UNL     1      44.926   5.306   8.583  0.00  0.00    +0.000 HD
ENDBRANCH   6   7
BRANCH   3  12
ATOM     12  N   UNL     1      47.379   5.077  15.630  0.00  0.00    +0.000 N 
ATOM     13  H   UNL     1      48.331   5.428  15.564  0.00  0.00    +0.000 HD
BRANCH  12  14
ATOM     14  C   UNL     1      47.256   3.909  16.483  0.00  0.00    +0.000 C 
BRANCH  14  15
ATOM     15  C   UNL     1      48.633   3.398  16.780  0.00  0.00    +0.000 A 
ATOM     16  C   UNL     1      49.556   4.136  17.500  0.00  0.00    +0.000 A 
ATOM     17  N   UNL     1      50.797   3.705  17.805  0.00  0.00    +0.000 NA
ATOM     18  C   UNL     1      51.106   2.477  17.366  0.00  0.00    +0.000 A 
ATOM     19  N   UNL     1      50.299   1.664  16.666  0.00  0.00    +0.000 NA
ATOM     20  C   UNL     1      49.071   2.147  16.394  0.00  0.00    +0.000 A 
ENDBRANCH  14  15
ENDBRANCH  12  14
ENDBRANCH   3  12
BRANCH   1  21
ATOM     21  O   UNL     1      46.021   7.369  11.638  0.00  0.00    +0.000 OA
BRANCH  21  23
ATOM     22  C   UNL     1      44.541   9.224  11.289  0.00  0.00    +0.000 C 
ATOM     23  C   UNL     1      45.410   8.489  12.289  0.00  0.00    +0.000 C 
ENDBRANCH  21  23
ENDBRANCH   1  21
TORSDOF 6
ENDMDL
MODEL 7
REMARK VINA RESULT:    -5.923      2.282      3.864
REMARK INTER + INTRA:          -8.752
REMARK INTER:                  -7.840
REMARK INTRA:                  -0.913
REMARK UNBOUND:                -0.752
REMARK  Name = 
REMARK  7 active torsions:
REMARK  status: ('A' for Active; 'I' for Inactive)
REMARK    1  A    between atoms: C_1  and  C_2
REMARK    2  A    between atoms: C_2  and  O_3
REMARK    3  A    between atoms: O_3  and  C_4
REMARK    4  A    between atoms: C_6  and  N_7
REMARK    5  A    between atoms: N_7  and  C_8
REMARK    6  A    between atoms: C_8  and  C_9
REMARK    7  A    between atoms: C_17  and  C_18
REMARK                            x       y       z     vdW  Elec       q    Type
REMARK                         _______ _______ _______ _____ _____    ______ ____
ROOT
ATOM      1  C   UNL     1      46.957   5.739  13.627  0.00  0.00    +0.000 A 
ATOM      2  C   UNL     1      45.624   5.378  13.409  0.00  0.00    +0.000 A 
ATOM      3  C   UNL     1      44.719   6.291  12.879  0.00  0.00    +0.000 A 
ATOM      4  N   UNL     1      45.096   7.521  12.503  0.00  0.00    +0.000 NA
ATOM      5  C   UNL     1      46.408   7.847  12.665  0.00  0.00    +0.000 A 
ATOM      6  C   UNL     1      47.373   7.013  13.227  0.00  0.00    +0.000 A 
ENDROOT
BRANCH   6   7
ATOM      7  C   UNL     1      48.744   7.568  13.369  0.00  0.00    +0.000 C 
ATOM      8  N   UNL     1      49.762   6.965  12.687  0.00  0.00    +0.000 N 
ATOM      9  O   UNL     1      48.971   8.536  14.085  0.00  0.00    +0.000 OA
ATOM     10  H   UNL     1      49.601   6.156  12.098  0.00  0.00    +0.000 HD
ATOM     11  H   UNL     1      50.701   7.323  12.792  0.00  0.00    +0.000 HD
ENDBRANCH   6   7
BRANCH   3  12
ATOM     12  N   UNL     1      43.386   5.880  12.812  0.00  0.00    +0.000 N 
ATOM     13  H   UNL     1      43.248   5.043  13.372  0.00  0.00    +0.000 HD
BRANCH  12  14
ATOM     14  C   UNL     1      42.792   5.790  11.491  0.00  0.00    +0.000 C 
BRANCH  14  15
ATOM     15  C   UNL     1      43.372   4.596  10.795  0.00  0.00    +0.000 A 
ATOM     16  C   UNL     1      44.074   4.702   9.607  0.00  0.00    +0.000 A 
ATOM     17  N   UNL     1      44.628   3.656   8.960  0.00  0.00    +0.000 NA
ATOM     18  C   UNL     1      44.466   2.462   9.547  0.00  0.00    +0.000 A 
ATOM     19  N   UNL     1      43.813   2.231  10.698  0.00  0.00    +0.000 NA
ATOM     20  C   UNL     1      43.285   3.315  11.301  0.00  0.00    +0.000 A 
ENDBRANCH  14  15
ENDBRANCH  12  14
ENDBRANCH   3  12
BRANCH   1  21
ATOM     21  O   UNL     1      47.865   4.901  14.231  0.00  0.00    +0.000 OA
BRANCH  21  23
ATOM     22  C   UNL     1      47.894   4.809  16.627  0.00  0.00    +0.000 C 
ATOM     23  C   UNL     1      47.399   4.149  15.356  0.00  0.00    +0.000 C 
ENDBRANCH  21  23
ENDBRANCH   1  21
TORSDOF 6
ENDMDL
MODEL 8
REMARK VINA RESULT:    -5.493      3.112      7.367
REMARK INTER + INTRA:          -8.171
REMARK INTER:                  -7.423
REMARK INTRA:                  -0.748
REMARK UNBOUND:                -0.752
REMARK  Name = 
REMARK  7 active torsions:
REMARK  status: ('A' for Active; 'I' for Inactive)
REMARK    1  A    between atoms: C_1  and  C_2
REMARK    2  A    between atoms: C_2  and  O_3
REMARK    3  A    between atoms: O_3  and  C_4
REMARK    4  A    between atoms: C_6  and  N_7
REMARK    5  A    between atoms: N_7  and  C_8
REMARK    6  A    between atoms: C_8  and  C_9
REMARK    7  A    between atoms: C_17  and  C_18
REMARK                            x       y       z     vdW  Elec       q    Type
REMARK                         _______ _______ _______ _____ _____    ______ ____
ROOT
ATOM      1  C   UNL     1      45.911   5.966  12.103  0.00  0.00    +0.000 A 
ATOM      2  C   UNL     1      46.647   5.987  13.291  0.00  0.00    +0.000 A 
ATOM      3  C   UNL     1      46.734   4.854  14.093  0.00  0.00    +0.000 A 
ATOM      4  N   UNL     1      46.172   3.691  13.734  0.00  0.00    +0.000 NA
ATOM      5  C   UNL     1      45.505   3.661  12.547  0.00  0.00    +0.000 A 
ATOM      6  C   UNL     1      45.331   4.757  11.704  0.00  0.00    +0.000 A 
ENDROOT
BRANCH   6   7
ATOM      7  C   UNL     1      44.526   4.540  10.473  0.00  0.00    +0.000 C 
ATOM      8  N   UNL     1      43.445   5.344  10.255  0.00  0.00    +0.000 N 
ATOM      9  O   UNL     1      44.810   3.658   9.671  0.00  0.00    +0.000 OA
ATOM     10  H   UNL     1      43.184   6.073  10.910  0.00  0.00    +0.000 HD
ATOM     11  H   UNL     1      42.879   5.191   9.432  0.00  0.00    +0.000 HD
ENDBRANCH   6   7
BRANCH   3  12
ATOM     12  N   UNL     1      47.386   5.006  15.319  0.00  0.00    +0.000 N 
ATOM     13  H   UNL     1      48.348   5.300  15.170  0.00  0.00    +0.000 HD
BRANCH  12  14
ATOM     14  C   UNL     1      47.258   3.917  16.270  0.00  0.00    +0.000 C 
BRANCH  14  15
ATOM     15  C   UNL     1      47.826   4.370  17.581  0.00  0.00    +0.000 A 
ATOM     16  C   UNL     1      49.066   3.953  18.032  0.00  0.00    +0.000 A 
ATOM     17  N   UNL     1      49.621   4.351  19.195  0.00  0.00    +0.000 NA
ATOM     18  C   UNL     1      48.890   5.209  19.920  0.00  0.00    +0.000 A 
ATOM     19  N   UNL     1      47.681   5.691  19.589  0.00  0.00    +0.000 NA
ATOM     20  C   UNL     1      47.179   5.260  18.414  0.00  0.00    +0.000 A 
ENDBRANCH  14  15
ENDBRANCH  12  14
ENDBRANCH   3  12
BRANCH   1  21
ATOM     21  O   UNL     1      45.724   7.084  11.324  0.00  0.00    +0.000 OA
BRANCH  21  23
ATOM     22  C   UNL     1      44.278   8.988  11.140  0.00  0.00    +0.000 C 
ATOM     23  C   UNL     1      45.303   8.275  11.997  0.00  0.00    +0.000 C 
ENDBRANCH  21  23
ENDBRANCH   1  21
TORSDOF 6
ENDMDL
MODEL 9
REMARK VINA RESULT:    -5.339      3.249      5.042
REMARK INTER + INTRA:          -7.963
REMARK INTER:                  -7.223
REMARK INTRA:                  -0.740
REMARK UNBOUND:                -0.752
REMARK  Name = 
REMARK  7 active torsions:
REMARK  status: ('A' for Active; 'I' for Inactive)
REMARK    1  A    between atoms: C_1  and  C_2
REMARK    2  A    between atoms: C_2  and  O_3
REMARK    3  A    between atoms: O_3  and  C_4
REMARK    4  A    between atoms: C_6  and  N_7
REMARK    5  A    between atoms: N_7  and  C_8
REMARK    6  A    between atoms: C_8  and  C_9
REMARK    7  A    between atoms: C_17  and  C_18
REMARK                            x       y       z     vdW  Elec       q    Type
REMARK                         _______ _______ _______ _____ _____    ______ ____
ROOT
ATOM      1  C   UNL     1      48.120   5.118  16.764  0.00  0.00    +0.000 A 
ATOM      2  C   UNL     1      47.475   4.957  15.535  0.00  0.00    +0.000 A 
ATOM      3  C   UNL     1      47.396   3.706  14.932  0.00  0.00    +0.000 A 
ATOM      4  N   UNL     1      47.877   2.605  15.526  0.00  0.00    +0.000 NA
ATOM      5  C   UNL     1      48.453   2.760  16.751  0.00  0.00    +0.000 A 
ATOM      6  C   UNL     1      48.614   3.979  17.407  0.00  0.00    +0.000 A 
ENDROOT
BRANCH   6   7
ATOM      7  C   UNL     1      49.317   3.952  18.717  0.00  0.00    +0.000 C 
ATOM      8  N   UNL     1      48.613   3.571  19.823  0.00  0.00    +0.000 N 
ATOM      9  O   UNL     1      50.497   4.269  18.815  0.00  0.00    +0.000 OA
ATOM     10  H   UNL     1      47.634   3.315  19.768  0.00  0.00    +0.000 HD
ATOM     11  H   UNL     1      49.077   3.569  20.721  0.00  0.00    +0.000 HD
ENDBRANCH   6   7
BRANCH   3  12
ATOM     12  N   UNL     1      46.843   3.665  13.650  0.00  0.00    +0.000 N 
ATOM     13  H   UNL     1      47.341   2.992  13.074  0.00  0.00    +0.000 HD
BRANCH  12  14
ATOM     14  C   UNL     1      46.626   4.939  12.989  0.00  0.00    +0.000 C 
BRANCH  14  15
ATOM     15  C   UNL     1      45.242   4.939  12.413  0.00  0.00    +0.000 A 
ATOM     16  C   UNL     1      44.118   5.156  13.191  0.00  0.00    +0.000 A 
ATOM     17  N   UNL     1      42.859   5.183  12.709  0.00  0.00    +0.000 NA
ATOM     18  C   UNL     1      42.741   4.988  11.389  0.00  0.00    +0.000 A 
ATOM     19  N   UNL     1      43.751   4.773  10.530  0.00  0.00    +0.000 NA
ATOM     20  C   UNL     1      44.987   4.761  11.069  0.00  0.00    +0.000 A 
ENDBRANCH  14  15
ENDBRANCH  12  14
ENDBRANCH   3  12
BRANCH   1  21
ATOM     21  O   UNL     1      48.299   6.347  17.354  0.00  0.00    +0.000 OA
BRANCH  21  23
ATOM     22  C   UNL     1      50.402   7.499  17.309  0.00  0.00    +0.000 C 
ATOM     23  C   UNL     1      49.066   7.308  16.621  0.00  0.00    +0.000 C 
ENDBRANCH  21  23
ENDBRANCH   1  21
TORSDOF 6
ENDMDL
