MODEL 1
REMARK VINA RESULT:    -7.948      0.000      0.000
REMARK INTER + INTRA:         -10.868
REMARK INTER:                 -10.271
REMARK INTRA:                  -0.597
REMARK UNBOUND:                -0.597
REMARK  Name = 
REMARK  6 active torsions:
REMARK  status: ('A' for Active; 'I' for Inactive)
REMARK    1  A    between atoms: C_1  and  C_2
REMARK    2  A    between atoms: C_4  and  C_5
REMARK    3  A    between atoms: N_10  and  C_11
REMARK    4  A    between atoms: C_11  and  C_12
REMARK    5  A    between atoms: C_16  and  C_17
REMARK    6  A    between atoms: C_21  and  C_22
REMARK                            x       y       z     vdW  Elec       q    Type
REMARK                         _______ _______ _______ _____ _____    ______ ____
ROOT
ATOM      1  C   UNL     1      44.656   7.372  11.961  0.00  0.00    +0.000 C 
ENDROOT
BRANCH   1   8
ATOM      2  C   UNL     1      50.159   8.482  14.038  0.00  0.00    +0.000 C 
ATOM      3  C   UNL     1      48.936   7.625  13.933  0.00  0.00    +0.000 A 
ATOM      4  C   UNL     1      48.781   6.502  14.704  0.00  0.00    +0.000 A 
ATOM      5  C   UNL     1      47.620   5.797  14.482  0.00  0.00    +0.000 A 
ATOM      6  N   UNL     1      46.668   6.140  13.577  0.00  0.00    +0.000 NA
ATOM      7  C   UNL     1      46.919   7.242  12.867  0.00  0.00    +0.000 A 
ATOM      8  N   UNL     1      46.073   7.655  11.864  0.00  0.00    +0.000 N 
ATOM      9  N   UNL     1      48.011   8.000  13.026  0.00  0.00    +0.000 NA
ATOM     10  H   UNL     1      46.306   8.613  11.625  0.00  0.00    +0.000 HD
BRANCH   5  11
ATOM     11  C   UNL     1      47.364   4.565  15.295  0.00  0.00    +0.000 C 
ATOM     12  N   UNL     1      47.177   4.769  16.636  0.00  0.00    +0.000 N 
ATOM     13  O   UNL     1      47.328   3.450  14.800  0.00  0.00    +0.000 OA
ATOM     14  H   UNL     1      47.179   5.709  17.012  0.00  0.00    +0.000 HD
ATOM     15  H   UNL     1      46.980   3.978  17.231  0.00  0.00    +0.000 HD
ENDBRANCH   5  11
ENDBRANCH   1   8
BRANCH   1  16
ATOM     16  C   UNL     1      44.310   5.951  11.544  0.00  0.00    +0.000 A 
ATOM     17  C   UNL     1      43.290   5.260  12.193  0.00  0.00    +0.000 A 
ATOM     18  C   UNL     1      43.015   3.953  11.816  0.00  0.00    +0.000 A 
ATOM     19  C   UNL     1      43.743   3.378  10.786  0.00  0.00    +0.000 A 
ATOM     20  C   UNL     1      44.728   4.128  10.144  0.00  0.00    +0.000 A 
ATOM     21  N   UNL     1      45.026   5.398  10.524  0.00  0.00    +0.000 NA
BRANCH  20  22
ATOM     22  C   UNL     1      45.493   3.571   9.014  0.00  0.00    +0.000 A 
ATOM     23  C   UNL     1      46.003   4.408   8.003  0.00  0.00    +0.000 A 
ATOM     24  C   UNL     1      46.672   3.895   6.892  0.00  0.00    +0.000 A 
ATOM     25  C   UNL     1      46.861   2.522   6.776  0.00  0.00    +0.000 A 
ATOM     26  C   UNL     1      46.396   1.666   7.780  0.00  0.00    +0.000 A 
ATOM     27  C   UNL     1      45.720   2.189   8.892  0.00  0.00    +0.000 A 
BRANCH  26  28
ATOM     28  C   UNL     1      46.601   0.252   7.662  0.00  0.00    +0.000 C 
ATOM     29  N   UNL     1      46.763  -0.893   7.556  0.00  0.00    +0.000 NA
ENDBRANCH  26  28
ENDBRANCH  20  22
ENDBRANCH   1  16
TORSDOF 5
ENDMDL
MODEL 2
REMARK VINA RESULT:    -7.820      1.671      2.038
REMARK INTER + INTRA:         -10.702
REMARK INTER:                 -10.085
REMARK INTRA:                  -0.617
REMARK UNBOUND:                -0.597
REMARK  Name = 
REMARK  6 active torsions:
REMARK  status: ('A' for Active; 'I' for Inactive)
REMARK    1  A    between atoms: C_1  and  C_2
REMARK    2  A    between atoms: C_4  and  C_5
REMARK    3  A    between atoms: N_10  and  C_11
REMARK    4  A    between atoms: C_11  and  C_12
REMARK    5  A    between atoms: C_16  and  C_17
REMARK    6  A    between atoms: C_21  and  C_22
REMARK                            x       y       z     vdW  Elec       q    Type
REMARK                         _______ _______ _______ _____ _____    ______ ____
ROOT
ATOM      1  C   UNL     1      45.777   4.780  14.010  0.00  0.00    +0.000 C 
ENDROOT
BRANCH   1   8
ATOM      2  C   UNL     1      50.734   7.944  15.125  0.00  0.00    +0.000 C 
ATOM      3  C   UNL     1      49.745   6.874  15.471  0.00  0.00    +0.000 A 
ATOM      4  C   UNL     1      49.795   6.216  16.673  0.00  0.00    +0.000 A 
ATOM      5  C   UNL     1      48.840   5.239  16.843  0.00  0.00    +0.000 A 
ATOM      6  N   UNL     1      47.900   4.908  15.922  0.00  0.00    +0.000 NA
ATOM      7  C   UNL     1      47.943   5.598  14.780  0.00  0.00    +0.000 A 
ATOM      8  N   UNL     1      47.097   5.308  13.736  0.00  0.00    +0.000 N 
ATOM      9  N   UNL     1      48.824   6.576  14.532  0.00  0.00    +0.000 NA
ATOM     10  H   UNL     1      47.124   6.082  13.080  0.00  0.00    +0.000 HD
BRANCH   5  11
ATOM     11  C   UNL     1      48.813   4.483  18.135  0.00  0.00    +0.000 C 
ATOM     12  N   UNL     1      47.587   4.010  18.519  0.00  0.00    +0.000 N 
ATOM     13  O   UNL     1      49.815   4.301  18.809  0.00  0.00    +0.000 OA
ATOM     14  H   UNL     1      46.780   4.149  17.923  0.00  0.00    +0.000 HD
ATOM     15  H   UNL     1      47.510   3.475  19.372  0.00  0.00    +0.000 HD
ENDBRANCH   5  11
ENDBRANCH   1   8
BRANCH   1  16
ATOM     16  C   UNL     1      44.924   4.649  12.758  0.00  0.00    +0.000 A 
ATOM     17  C   UNL     1      43.581   5.017  12.785  0.00  0.00    +0.000 A 
ATOM     18  C   UNL     1      42.815   4.858  11.639  0.00  0.00    +0.000 A 
ATOM     19  C   UNL     1      43.411   4.361  10.490  0.00  0.00    +0.000 A 
ATOM     20  C   UNL     1      44.769   4.044  10.507  0.00  0.00    +0.000 A 
ATOM     21  N   UNL     1      45.521   4.168  11.631  0.00  0.00    +0.000 NA
BRANCH  20  22
ATOM     22  C   UNL     1      45.452   3.557   9.294  0.00  0.00    +0.000 A 
ATOM     23  C   UNL     1      45.841   4.450   8.277  0.00  0.00    +0.000 A 
ATOM     24  C   UNL     1      46.429   4.004   7.094  0.00  0.00    +0.000 A 
ATOM     25  C   UNL     1      46.657   2.644   6.909  0.00  0.00    +0.000 A 
ATOM     26  C   UNL     1      46.312   1.735   7.915  0.00  0.00    +0.000 A 
ATOM     27  C   UNL     1      45.718   2.191   9.100  0.00  0.00    +0.000 A 
BRANCH  26  28
ATOM     28  C   UNL     1      46.558   0.335   7.725  0.00  0.00    +0.000 C 
ATOM     29  N   UNL     1      46.761  -0.799   7.582  0.00  0.00    +0.000 NA
ENDBRANCH  26  28
ENDBRANCH  20  22
ENDBRANCH   1  16
TORSDOF 5
ENDMDL
MODEL 3
REMARK VINA RESULT:    -7.766      2.138      4.079
REMARK INTER + INTRA:         -10.633
REMARK INTER:                  -9.801
REMARK INTRA:                  -0.832
REMARK UNBOUND:                -0.597
REMARK  Name = 
REMARK  6 active torsions:
REMARK  status: ('A' for Active; 'I' for Inactive)
REMARK    1  A    between atoms: C_1  and  C_2
REMARK    2  A    between atoms: C_4  and  C_5
REMARK    3  A    between atoms: N_10  and  C_11
REMARK    4  A    between atoms: C_11  and  C_12
REMARK    5  A    between atoms: C_16  and  C_17
REMARK    6  A    between atoms: C_21  and  C_22
REMARK                            x       y       z     vdW  Elec       q    Type
REMARK                         _______ _______ _______ _____ _____    ______ ____
ROOT
ATOM      1  C   UNL     1      49.259   7.091  13.704  0.00  0.00    +0.000 C 
ENDROOT
BRANCH   1   8
ATOM      2  C   UNL     1      47.787   7.314  19.501  0.00  0.00    +0.000 C 
ATOM      3  C   UNL     1      48.050   6.560  18.234  0.00  0.00    +0.000 A 
ATOM      4  C   UNL     1      47.805   5.215  18.139  0.00  0.00    +0.000 A 
ATOM      5  C   UNL     1      48.119   4.650  16.923  0.00  0.00    +0.000 A 
ATOM      6  N   UNL     1      48.639   5.326  15.867  0.00  0.00    +0.000 NA
ATOM      7  C   UNL     1      48.852   6.629  16.066  0.00  0.00    +0.000 A 
ATOM      8  N   UNL     1      49.447   7.412  15.104  0.00  0.00    +0.000 N 
ATOM      9  N   UNL     1      48.562   7.268  17.206  0.00  0.00    +0.000 NA
ATOM     10  H   UNL     1      49.296   8.385  15.347  0.00  0.00    +0.000 HD
BRANCH   5  11
ATOM     11  C   UNL     1      47.867   3.187  16.728  0.00  0.00    +0.000 C 
ATOM     12  N   UNL     1      47.007   2.609  17.622  0.00  0.00    +0.000 N 
ATOM     13  O   UNL     1      48.397   2.545  15.834  0.00  0.00    +0.000 OA
ATOM     14  H   UNL     1      46.558   3.174  18.332  0.00  0.00    +0.000 HD
ATOM     15  H   UNL     1      46.783   1.629  17.527  0.00  0.00    +0.000 HD
ENDBRANCH   5  11
ENDBRANCH   1   8
BRANCH   1  16
ATOM     16  C   UNL     1      47.846   7.372  13.220  0.00  0.00    +0.000 A 
ATOM     17  C   UNL     1      47.232   8.586  13.519  0.00  0.00    +0.000 A 
ATOM     18  C   UNL     1      45.929   8.807  13.094  0.00  0.00    +0.000 A 
ATOM     19  C   UNL     1      45.282   7.824  12.361  0.00  0.00    +0.000 A 
ATOM     20  C   UNL     1      45.956   6.642  12.057  0.00  0.00    +0.000 A 
ATOM     21  N   UNL     1      47.220   6.404  12.493  0.00  0.00    +0.000 NA
BRANCH  20  22
ATOM     22  C   UNL     1      45.320   5.592  11.240  0.00  0.00    +0.000 A 
ATOM     23  C   UNL     1      44.240   4.840  11.742  0.00  0.00    +0.000 A 
ATOM     24  C   UNL     1      43.668   3.799  11.012  0.00  0.00    +0.000 A 
ATOM     25  C   UNL     1      44.157   3.496   9.746  0.00  0.00    +0.000 A 
ATOM     26  C   UNL     1      45.208   4.245   9.205  0.00  0.00    +0.000 A 
ATOM     27  C   UNL     1      45.781   5.288   9.947  0.00  0.00    +0.000 A 
BRANCH  26  28
ATOM     28  C   UNL     1      45.704   3.936   7.896  0.00  0.00    +0.000 C 
ATOM     29  N   UNL     1      46.105   3.698   6.834  0.00  0.00    +0.000 NA
ENDBRANCH  26  28
ENDBRANCH  20  22
ENDBRANCH   1  16
TORSDOF 5
ENDMDL
MODEL 4
REMARK VINA RESULT:    -6.935      2.476      5.121
REMARK INTER + INTRA:          -9.559
REMARK INTER:                  -8.742
REMARK INTRA:                  -0.817
REMARK UNBOUND:                -0.597
REMARK  Name = 
REMARK  6 active torsions:
REMARK  status: ('A' for Active; 'I' for Inactive)
REMARK    1  A    between atoms: C_1  and  C_2
REMARK    2  A    between atoms: C_4  and  C_5
REMARK    3  A    between atoms: N_10  and  C_11
REMARK    4  A    between atoms: C_11  and  C_12
REMARK    5  A    between atoms: C_16  and  C_17
REMARK    6  A    between atoms: C_21  and  C_22
REMARK                            x       y       z     vdW  Elec       q    Type
REMARK                         _______ _______ _______ _____ _____    ______ ____
ROOT
ATOM      1  C   UNL     1      48.982   8.046  15.552  0.00  0.00    +0.000 C 
ENDROOT
BRANCH   1   8
ATOM      2  C   UNL     1      52.010   4.348  19.154  0.00  0.00    +0.000 C 
ATOM      3  C   UNL     1      50.913   4.632  18.175  0.00  0.00    +0.000 A 
ATOM      4  C   UNL     1      49.953   3.697  17.885  0.00  0.00    +0.000 A 
ATOM      5  C   UNL     1      49.024   4.087  16.947  0.00  0.00    +0.000 A 
ATOM      6  N   UNL     1      49.014   5.292  16.322  0.00  0.00    +0.000 NA
ATOM      7  C   UNL     1      49.998   6.127  16.665  0.00  0.00    +0.000 A 
ATOM      8  N   UNL     1      50.148   7.348  16.050  0.00  0.00    +0.000 N 
ATOM      9  N   UNL     1      50.935   5.841  17.578  0.00  0.00    +0.000 NA
ATOM     10  H   UNL     1      50.783   7.910  16.608  0.00  0.00    +0.000 HD
BRANCH   5  11
ATOM     11  C   UNL     1      47.929   3.132  16.583  0.00  0.00    +0.000 C 
ATOM     12  N   UNL     1      46.977   2.928  17.546  0.00  0.00    +0.000 N 
ATOM     13  O   UNL     1      47.887   2.565  15.503  0.00  0.00    +0.000 OA
ATOM     14  H   UNL     1      47.022   3.437  18.420  0.00  0.00    +0.000 HD
ATOM     15  H   UNL     1      46.204   2.309  17.350  0.00  0.00    +0.000 HD
ENDBRANCH   5  11
ENDBRANCH   1   8
BRANCH   1  16
ATOM     16  C   UNL     1      48.756   7.829  14.064  0.00  0.00    +0.000 A 
ATOM     17  C   UNL     1      49.715   8.244  13.143  0.00  0.00    +0.000 A 
ATOM     18  C   UNL     1      49.472   8.064  11.788  0.00  0.00    +0.000 A 
ATOM     19  C   UNL     1      48.294   7.453  11.388  0.00  0.00    +0.000 A 
ATOM     20  C   UNL     1      47.385   7.021  12.354  0.00  0.00    +0.000 A 
ATOM     21  N   UNL     1      47.599   7.219  13.680  0.00  0.00    +0.000 NA
BRANCH  20  22
ATOM     22  C   UNL     1      46.143   6.324  11.973  0.00  0.00    +0.000 A 
ATOM     23  C   UNL     1      45.052   6.254  12.861  0.00  0.00    +0.000 A 
ATOM     24  C   UNL     1      43.894   5.544  12.546  0.00  0.00    +0.000 A 
ATOM     25  C   UNL     1      43.794   4.899  11.318  0.00  0.00    +0.000 A 
ATOM     26  C   UNL     1      44.847   4.978  10.400  0.00  0.00    +0.000 A 
ATOM     27  C   UNL     1      46.010   5.690  10.725  0.00  0.00    +0.000 A 
BRANCH  26  28
ATOM     28  C   UNL     1      44.738   4.319   9.131  0.00  0.00    +0.000 C 
ATOM     29  N   UNL     1      44.646   3.797   8.099  0.00  0.00    +0.000 NA
ENDBRANCH  26  28
ENDBRANCH  20  22
ENDBRANCH   1  16
TORSDOF 5
ENDMDL
MODEL 5
REMARK VINA RESULT:    -6.888      2.730      4.279
REMARK INTER + INTRA:          -9.498
REMARK INTER:                  -8.891
REMARK INTRA:                  -0.607
REMARK UNBOUND:                -0.597
REMARK  Name = 
REMARK  6 active torsions:
REMARK  status: ('A' for Active; 'I' for Inactive)
REMARK    1  A    between atoms: C_1  and  C_2
REMARK    2  A    between atoms: C_4  and  C_5
REMARK    3  A    between atoms: N_10  and  C_11
REMARK    4  A    between atoms: C_11  and  C_12
REMARK    5  A    between atoms: C_16  and  C_17
REMARK    6  A    between atoms: C_21  and  C_22
REMARK                            x       y       z     vdW  Elec       q    Type
REMARK                         _______ _______ _______ _____ _____    ______ ____
ROOT
ATOM      1  C   UNL     1      48.155   7.300  13.797  0.00  0.00    +0.000 C 
ENDROOT
BRANCH   1   8
ATOM      2  C   UNL     1      48.797   3.719  18.550  0.00  0.00    +0.000 C 
ATOM      3  C   UNL     1      49.328   4.718  17.569  0.00  0.00    +0.000 A 
ATOM      4  C   UNL     1      50.656   5.057  17.541  0.00  0.00    +0.000 A 
ATOM      5  C   UNL     1      50.995   6.008  16.605  0.00  0.00    +0.000 A 
ATOM      6  N   UNL     1      50.121   6.601  15.753  0.00  0.00    +0.000 NA
ATOM      7  C   UNL     1      48.849   6.212  15.868  0.00  0.00    +0.000 A 
ATOM      8  N   UNL     1      47.852   6.791  15.118  0.00  0.00    +0.000 N 
ATOM      9  N   UNL     1      48.429   5.283  16.736  0.00  0.00    +0.000 NA
ATOM     10  H   UNL     1      47.028   6.202  15.176  0.00  0.00    +0.000 HD
BRANCH   5  11
ATOM     11  C   UNL     1      52.430   6.425  16.496  0.00  0.00    +0.000 C 
ATOM     12  N   UNL     1      52.655   7.609  15.848  0.00  0.00    +0.000 N 
ATOM     13  O   UNL     1      53.343   5.752  16.948  0.00  0.00    +0.000 OA
ATOM     14  H   UNL     1      51.875   8.161  15.513  0.00  0.00    +0.000 HD
ATOM     15  H   UNL     1      53.600   7.952  15.762  0.00  0.00    +0.000 HD
ENDBRANCH   5  11
ENDBRANCH   1   8
BRANCH   1  16
ATOM     16  C   UNL     1      46.926   7.389  12.905  0.00  0.00    +0.000 A 
ATOM     17  C   UNL     1      46.184   8.567  12.853  0.00  0.00    +0.000 A 
ATOM     18  C   UNL     1      45.048   8.613  12.056  0.00  0.00    +0.000 A 
ATOM     19  C   UNL     1      44.697   7.497  11.314  0.00  0.00    +0.000 A 
ATOM     20  C   UNL     1      45.497   6.356  11.374  0.00  0.00    +0.000 A 
ATOM     21  N   UNL     1      46.593   6.290  12.173  0.00  0.00    +0.000 NA
BRANCH  20  22
ATOM     22  C   UNL     1      45.185   5.164  10.564  0.00  0.00    +0.000 A 
ATOM     23  C   UNL     1      44.356   4.144  11.070  0.00  0.00    +0.000 A 
ATOM     24  C   UNL     1      44.102   2.979  10.347  0.00  0.00    +0.000 A 
ATOM     25  C   UNL     1      44.663   2.816   9.084  0.00  0.00    +0.000 A 
ATOM     26  C   UNL     1      45.463   3.826   8.540  0.00  0.00    +0.000 A 
ATOM     27  C   UNL     1      45.717   4.993   9.275  0.00  0.00    +0.000 A 
BRANCH  26  28
ATOM     28  C   UNL     1      46.031   3.659   7.234  0.00  0.00    +0.000 C 
ATOM     29  N   UNL     1      46.496   3.536   6.178  0.00  0.00    +0.000 NA
ENDBRANCH  26  28
ENDBRANCH  20  22
ENDBRANCH   1  16
TORSDOF 5
ENDMDL
MODEL 6
REMARK VINA RESULT:    -6.689      2.654      4.696
REMARK INTER + INTRA:          -9.240
REMARK INTER:                  -8.353
REMARK INTRA:                  -0.887
REMARK UNBOUND:                -0.597
REMARK  Name = 
REMARK  6 active torsions:
REMARK  status: ('A' for Active; 'I' for Inactive)
REMARK    1  A    between atoms: C_1  and  C_2
REMARK    2  A    between atoms: C_4  and  C_5
REMARK    3  A    between atoms: N_10  and  C_11
REMARK    4  A    between atoms: C_11  and  C_12
REMARK    5  A    between atoms: C_16  and  C_17
REMARK    6  A    between atoms: C_21  and  C_22
REMARK                            x       y       z     vdW  Elec       q    Type
REMARK                         _______ _______ _______ _____ _____    ______ ____
ROOT
ATOM      1  C   UNL     1      49.876   7.107  14.411  0.00  0.00    +0.000 C 
ENDROOT
BRANCH   1   8
ATOM      2  C   UNL     1      47.553   7.370  19.921  0.00  0.00    +0.000 C 
ATOM      3  C   UNL     1      47.904   6.625  18.671  0.00  0.00    +0.000 A 
ATOM      4  C   UNL     1      47.489   5.334  18.468  0.00  0.00    +0.000 A 
ATOM      5  C   UNL     1      47.908   4.766  17.286  0.00  0.00    +0.000 A 
ATOM      6  N   UNL     1      48.678   5.389  16.358  0.00  0.00    +0.000 NA
ATOM      7  C   UNL     1      49.040   6.639  16.656  0.00  0.00    +0.000 A 
ATOM      8  N   UNL     1      49.884   7.354  15.838  0.00  0.00    +0.000 N 
ATOM      9  N   UNL     1      48.667   7.279  17.771  0.00  0.00    +0.000 NA
ATOM     10  H   UNL     1      49.836   8.331  16.107  0.00  0.00    +0.000 HD
BRANCH   5  11
ATOM     11  C   UNL     1      47.485   3.362  16.977  0.00  0.00    +0.000 C 
ATOM     12  N   UNL     1      48.259   2.698  16.064  0.00  0.00    +0.000 N 
ATOM     13  O   UNL     1      46.511   2.843  17.498  0.00  0.00    +0.000 OA
ATOM     14  H   UNL     1      49.080   3.144  15.674  0.00  0.00    +0.000 HD
ATOM     15  H   UNL     1      48.035   1.742  15.831  0.00  0.00    +0.000 HD
ENDBRANCH   5  11
ENDBRANCH   1   8
BRANCH   1  16
ATOM     16  C   UNL     1      48.572   7.523  13.749  0.00  0.00    +0.000 A 
ATOM     17  C   UNL     1      48.103   8.827  13.885  0.00  0.00    +0.000 A 
ATOM     18  C   UNL     1      46.894   9.174  13.298  0.00  0.00    +0.000 A 
ATOM     19  C   UNL     1      46.198   8.222  12.570  0.00  0.00    +0.000 A 
ATOM     20  C   UNL     1      46.731   6.941  12.433  0.00  0.00    +0.000 A 
ATOM     21  N   UNL     1      47.899   6.582  13.028  0.00  0.00    +0.000 NA
BRANCH  20  22
ATOM     22  C   UNL     1      46.047   5.913  11.628  0.00  0.00    +0.000 A 
ATOM     23  C   UNL     1      46.091   5.948  10.221  0.00  0.00    +0.000 A 
ATOM     24  C   UNL     1      45.397   5.024   9.441  0.00  0.00    +0.000 A 
ATOM     25  C   UNL     1      44.649   4.026  10.058  0.00  0.00    +0.000 A 
ATOM     26  C   UNL     1      44.612   3.944  11.455  0.00  0.00    +0.000 A 
ATOM     27  C   UNL     1      45.309   4.879  12.232  0.00  0.00    +0.000 A 
BRANCH  26  28
ATOM     28  C   UNL     1      43.848   2.908  12.087  0.00  0.00    +0.000 C 
ATOM     29  N   UNL     1      43.229   2.064  12.589  0.00  0.00    +0.000 NA
ENDBRANCH  26  28
ENDBRANCH  20  22
ENDBRANCH   1  16
TORSDOF 5
ENDMDL
MODEL 7
REMARK VINA RESULT:    -6.673      2.755      5.537
REMARK INTER + INTRA:          -9.221
REMARK INTER:                  -8.376
REMARK INTRA:                  -0.845
REMARK UNBOUND:                -0.597
REMARK  Name = 
REMARK  6 active torsions:
REMARK  status: ('A' for Active; 'I' for Inactive)
REMARK    1  A    between atoms: C_1  and  C_2
REMARK    2  A    between atoms: C_4  and  C_5
REMARK    3  A    between atoms: N_10  and  C_11
REMARK    4  A    between atoms: C_11  and  C_12
REMARK    5  A    between atoms: C_16  and  C_17
REMARK    6  A    between atoms: C_21  and  C_22
REMARK                            x       y       z     vdW  Elec       q    Type
REMARK                         _______ _______ _______ _____ _____    ______ ____
ROOT
ATOM      1  C   UNL     1      49.242   7.767  15.614  0.00  0.00    +0.000 C 
ENDROOT
BRANCH   1   8
ATOM      2  C   UNL     1      47.145   2.576  17.728  0.00  0.00    +0.000 C 
ATOM      3  C   UNL     1      48.256   3.551  17.489  0.00  0.00    +0.000 A 
ATOM      4  C   UNL     1      49.560   3.231  17.763  0.00  0.00    +0.000 A 
ATOM      5  C   UNL     1      50.470   4.234  17.519  0.00  0.00    +0.000 A 
ATOM      6  N   UNL     1      50.155   5.467  17.048  0.00  0.00    +0.000 NA
ATOM      7  C   UNL     1      48.856   5.684  16.825  0.00  0.00    +0.000 A 
ATOM      8  N   UNL     1      48.395   6.915  16.421  0.00  0.00    +0.000 N 
ATOM      9  N   UNL     1      47.902   4.764  17.017  0.00  0.00    +0.000 NA
ATOM     10  H   UNL     1      47.445   6.803  16.081  0.00  0.00    +0.000 HD
BRANCH   5  11
ATOM     11  C   UNL     1      51.921   3.963  17.776  0.00  0.00    +0.000 C 
ATOM     12  N   UNL     1      52.202   2.765  18.375  0.00  0.00    +0.000 N 
ATOM     13  O   UNL     1      52.798   4.757  17.477  0.00  0.00    +0.000 OA
ATOM     14  H   UNL     1      51.456   2.113  18.581  0.00  0.00    +0.000 HD
ATOM     15  H   UNL     1      53.165   2.518  18.555  0.00  0.00    +0.000 HD
ENDBRANCH   5  11
ENDBRANCH   1   8
BRANCH   1  16
ATOM     16  C   UNL     1      48.920   7.681  14.130  0.00  0.00    +0.000 A 
ATOM     17  C   UNL     1      49.795   8.222  13.192  0.00  0.00    +0.000 A 
ATOM     18  C   UNL     1      49.464   8.160  11.845  0.00  0.00    +0.000 A 
ATOM     19  C   UNL     1      48.284   7.537  11.467  0.00  0.00    +0.000 A 
ATOM     20  C   UNL     1      47.462   6.978  12.445  0.00  0.00    +0.000 A 
ATOM     21  N   UNL     1      47.762   7.059  13.767  0.00  0.00    +0.000 NA
BRANCH  20  22
ATOM     22  C   UNL     1      46.223   6.266  12.082  0.00  0.00    +0.000 A 
ATOM     23  C   UNL     1      45.195   6.078  13.026  0.00  0.00    +0.000 A 
ATOM     24  C   UNL     1      44.044   5.351  12.723  0.00  0.00    +0.000 A 
ATOM     25  C   UNL     1      43.888   4.807  11.452  0.00  0.00    +0.000 A 
ATOM     26  C   UNL     1      44.877   5.005  10.482  0.00  0.00    +0.000 A 
ATOM     27  C   UNL     1      46.033   5.733  10.796  0.00  0.00    +0.000 A 
BRANCH  26  28
ATOM     28  C   UNL     1      44.708   4.451   9.170  0.00  0.00    +0.000 C 
ATOM     29  N   UNL     1      44.568   4.013   8.104  0.00  0.00    +0.000 NA
ENDBRANCH  26  28
ENDBRANCH  20  22
ENDBRANCH   1  16
TORSDOF 5
ENDMDL
MODEL 8
REMARK VINA RESULT:    -6.464      3.744      6.653
REMARK INTER + INTRA:          -8.950
REMARK INTER:                  -7.982
REMARK INTRA:                  -0.968
REMARK UNBOUND:                -0.597
REMARK  Name = 
REMARK  6 active torsions:
REMARK  status: ('A' for Active; 'I' for Inactive)
REMARK    1  A    between atoms: C_1  and  C_2
REMARK    2  A    between atoms: C_4  and  C_5
REMARK    3  A    between atoms: N_10  and  C_11
REMARK    4  A    between atoms: C_11  and  C_12
REMARK    5  A    between atoms: C_16  and  C_17
REMARK    6  A    between atoms: C_21  and  C_22
REMARK                            x       y       z     vdW  Elec       q    Type
REMARK                         _______ _______ _______ _____ _____    ______ ____
ROOT
ATOM      1  C   UNL     1      50.619   7.368  17.233  0.00  0.00    +0.000 C 
ENDROOT
BRANCH   1   8
ATOM      2  C   UNL     1      52.015   1.565  17.680  0.00  0.00    +0.000 C 
ATOM      3  C   UNL     1      51.034   2.673  17.449  0.00  0.00    +0.000 A 
ATOM      4  C   UNL     1      49.690   2.426  17.337  0.00  0.00    +0.000 A 
ATOM      5  C   UNL     1      48.911   3.536  17.100  0.00  0.00    +0.000 A 
ATOM      6  N   UNL     1      49.385   4.801  16.972  0.00  0.00    +0.000 NA
ATOM      7  C   UNL     1      50.709   4.934  17.084  0.00  0.00    +0.000 A 
ATOM      8  N   UNL     1      51.325   6.150  16.898  0.00  0.00    +0.000 N 
ATOM      9  N   UNL     1      51.543   3.916  17.331  0.00  0.00    +0.000 NA
ATOM     10  H   UNL     1      52.271   6.086  17.259  0.00  0.00    +0.000 HD
BRANCH   5  11
ATOM     11  C   UNL     1      47.428   3.358  16.981  0.00  0.00    +0.000 C 
ATOM     12  N   UNL     1      46.860   2.505  17.888  0.00  0.00    +0.000 N 
ATOM     13  O   UNL     1      46.767   3.930  16.129  0.00  0.00    +0.000 OA
ATOM     14  H   UNL     1      47.430   2.071  18.603  0.00  0.00    +0.000 HD
ATOM     15  H   UNL     1      45.861   2.361  17.869  0.00  0.00    +0.000 HD
ENDBRANCH   5  11
ENDBRANCH   1   8
BRANCH   1  16
ATOM     16  C   UNL     1      50.131   8.122  16.005  0.00  0.00    +0.000 A 
ATOM     17  C   UNL     1      50.807   9.258  15.568  0.00  0.00    +0.000 A 
ATOM     18  C   UNL     1      50.323   9.948  14.464  0.00  0.00    +0.000 A 
ATOM     19  C   UNL     1      49.196   9.473  13.811  0.00  0.00    +0.000 A 
ATOM     20  C   UNL     1      48.580   8.309  14.268  0.00  0.00    +0.000 A 
ATOM     21  N   UNL     1      49.027   7.643  15.364  0.00  0.00    +0.000 NA
BRANCH  20  22
ATOM     22  C   UNL     1      47.408   7.745  13.574  0.00  0.00    +0.000 A 
ATOM     23  C   UNL     1      46.446   8.585  12.980  0.00  0.00    +0.000 A 
ATOM     24  C   UNL     1      45.297   8.074  12.377  0.00  0.00    +0.000 A 
ATOM     25  C   UNL     1      45.093   6.699  12.339  0.00  0.00    +0.000 A 
ATOM     26  C   UNL     1      46.046   5.836  12.891  0.00  0.00    +0.000 A 
ATOM     27  C   UNL     1      47.196   6.357  13.500  0.00  0.00    +0.000 A 
BRANCH  26  28
ATOM     28  C   UNL     1      45.837   4.418  12.842  0.00  0.00    +0.000 C 
ATOM     29  N   UNL     1      45.664   3.271  12.813  0.00  0.00    +0.000 NA
ENDBRANCH  26  28
ENDBRANCH  20  22
ENDBRANCH   1  16
TORSDOF 5
ENDMDL
MODEL 9
REMARK VINA RESULT:    -6.399      4.241      8.794
REMARK INTER + INTRA:          -8.867
REMARK INTER:                  -8.227
REMARK INTRA:                  -0.640
REMARK UNBOUND:                -0.597
REMARK  Name = 
REMARK  6 active torsions:
REMARK  status: ('A' for Active; 'I' for Inactive)
REMARK    1  A    between atoms: C_1  and  C_2
REMARK    2  A    between atoms: C_4  and  C_5
REMARK    3  A    between atoms: N_10  and  C_11
REMARK    4  A    between atoms: C_11  and  C_12
REMARK    5  A    between atoms: C_16  and  C_17
REMARK    6  A    between atoms: C_21  and  C_22
REMARK                            x       y       z     vdW  Elec       q    Type
REMARK                         _______ _______ _______ _____ _____    ______ ____
ROOT
ATOM      1  C   UNL     1      47.145   4.349  16.071  0.00  0.00    +0.000 C 
ENDROOT
BRANCH   1   8
ATOM      2  C   UNL     1      44.657   2.888  10.827  0.00  0.00    +0.000 C 
ATOM      3  C   UNL     1      45.136   3.896  11.825  0.00  0.00    +0.000 A 
ATOM      4  C   UNL     1      44.900   5.236  11.658  0.00  0.00    +0.000 A 
ATOM      5  C   UNL     1      45.422   6.047  12.641  0.00  0.00    +0.000 A 
ATOM      6  N   UNL     1      46.129   5.607  13.712  0.00  0.00    +0.000 NA
ATOM      7  C   UNL     1      46.316   4.287  13.776  0.00  0.00    +0.000 A 
ATOM      8  N   UNL     1      47.081   3.719  14.769  0.00  0.00    +0.000 N 
ATOM      9  N   UNL     1      45.832   3.420  12.878  0.00  0.00    +0.000 NA
ATOM     10  H   UNL     1      46.898   2.721  14.780  0.00  0.00    +0.000 HD
BRANCH   5  11
ATOM     11  C   UNL     1      45.195   7.525  12.545  0.00  0.00    +0.000 C 
ATOM     12  N   UNL     1      44.249   7.921  11.638  0.00  0.00    +0.000 N 
ATOM     13  O   UNL     1      45.815   8.328  13.224  0.00  0.00    +0.000 OA
ATOM     14  H   UNL     1      43.728   7.230  11.113  0.00  0.00    +0.000 HD
ATOM     15  H   UNL     1      44.038   8.904  11.544  0.00  0.00    +0.000 HD
ENDBRANCH   5  11
ENDBRANCH   1   8
BRANCH   1  16
ATOM     16  C   UNL     1      48.476   5.039  16.326  0.00  0.00    +0.000 A 
ATOM     17  C   UNL     1      48.695   6.332  15.857  0.00  0.00    +0.000 A 
ATOM     18  C   UNL     1      49.929   6.929  16.074  0.00  0.00    +0.000 A 
ATOM     19  C   UNL     1      50.903   6.233  16.774  0.00  0.00    +0.000 A 
ATOM     20  C   UNL     1      50.619   4.955  17.254  0.00  0.00    +0.000 A 
ATOM     21  N   UNL     1      49.425   4.350  17.021  0.00  0.00    +0.000 NA
BRANCH  20  22
ATOM     22  C   UNL     1      51.610   4.200  18.042  0.00  0.00    +0.000 A 
ATOM     23  C   UNL     1      52.149   4.734  19.228  0.00  0.00    +0.000 A 
ATOM     24  C   UNL     1      53.135   4.066  19.953  0.00  0.00    +0.000 A 
ATOM     25  C   UNL     1      53.594   2.829  19.511  0.00  0.00    +0.000 A 
ATOM     26  C   UNL     1      53.055   2.256  18.354  0.00  0.00    +0.000 A 
ATOM     27  C   UNL     1      52.067   2.936  17.629  0.00  0.00    +0.000 A 
BRANCH  26  28
ATOM     28  C   UNL     1      53.524   0.977  17.908  0.00  0.00    +0.000 C 
ATOM     29  N   UNL     1      53.906  -0.054  17.536  0.00  0.00    +0.000 NA
ENDBRANCH  26  28
ENDBRANCH  20  22
ENDBRANCH   1  16
TORSDOF 5
ENDMDL
