MODEL 1
REMARK VINA RESULT:    -8.869      0.000      0.000
REMARK INTER + INTRA:         -11.773
REMARK INTER:                 -10.942
REMARK INTRA:                  -0.831
REMARK UNBOUND:                -0.831
REMARK  Name = 
REMARK  4 active torsions:
REMARK  status: ('A' for Active; 'I' for Inactive)
REMARK    1  A    between atoms: C_2  and  C_4
REMARK    2  A    between atoms: N_8  and  C_9
REMARK    3  A    between atoms: C_9  and  C_10
REMARK    4  A    between atoms: C_14  and  C_15
REMARK                            x       y       z     vdW  Elec       q    Type
REMARK                         _______ _______ _______ _____ _____    ______ ____
ROOT
ATOM      1  C   UNL     1      46.560   2.703   7.496  0.00  0.00    +0.000 A 
ATOM      2  C   UNL     1      46.278   4.055   7.673  0.00  0.00    +0.000 A 
ATOM      3  C   UNL     1      45.413   4.443   8.698  0.00  0.00    +0.000 A 
ATOM      4  C   UNL     1      44.834   3.475   9.512  0.00  0.00    +0.000 A 
ATOM      5  N   UNL     1      43.893   3.766  10.504  0.00  0.00    +0.000 N 
ATOM      6  N   UNL     1      45.094   2.161   9.341  0.00  0.00    +0.000 NA
ATOM      7  C   UNL     1      45.937   1.799   8.341  0.00  0.00    +0.000 A 
ATOM      8  H   UNL     1      43.702   2.878  10.963  0.00  0.00    +0.000 HD
ENDROOT
BRANCH   1  10
ATOM      9  N   UNL     1      47.747   3.043   5.403  0.00  0.00    +0.000 N 
ATOM     10  C   UNL     1      47.453   2.195   6.435  0.00  0.00    +0.000 C 
ATOM     11  O   UNL     1      47.940   1.074   6.491  0.00  0.00    +0.000 OA
ATOM     12  H   UNL     1      48.444   2.720   4.745  0.00  0.00    +0.000 HD
ATOM     13  H   UNL     1      47.571   4.036   5.444  0.00  0.00    +0.000 HD
ENDBRANCH   1  10
BRANCH   5  14
ATOM     14  C   UNL     1      43.933   4.951  11.376  0.00  0.00    +0.000 C 
ATOM     15  C   UNL     1      42.622   5.243  12.101  0.00  0.00    +0.000 C 
ATOM     16  C   UNL     1      43.140   6.213  11.094  0.00  0.00    +0.000 C 
BRANCH  14  17
ATOM     17  C   UNL     1      45.232   5.084  12.167  0.00  0.00    +0.000 A 
ATOM     18  C   UNL     1      45.592   4.155  13.153  0.00  0.00    +0.000 A 
ATOM     19  C   UNL     1      46.794   4.299  13.825  0.00  0.00    +0.000 A 
ATOM     20  N   UNL     1      47.671   5.294  13.586  0.00  0.00    +0.000 NA
ATOM     21  C   UNL     1      47.348   6.199  12.623  0.00  0.00    +0.000 A 
ATOM     22  C   UNL     1      46.144   6.121  11.914  0.00  0.00    +0.000 A 
BRANCH  21  23
ATOM     23  C   UNL     1      48.317   7.328  12.295  0.00  0.00    +0.000 C 
ATOM     24  F   UNL     1      47.894   8.568  12.671  0.00  0.00    +0.000 F 
ATOM     25  F   UNL     1      49.535   7.156  12.892  0.00  0.00    +0.000 F 
ATOM     26  F   UNL     1      48.582   7.414  10.959  0.00  0.00    +0.000 F 
ENDBRANCH  21  23
ENDBRANCH  14  17
ENDBRANCH   5  14
TORSDOF 4
ENDMDL
MODEL 2
REMARK VINA RESULT:    -8.560      1.812      2.450
REMARK INTER + INTRA:         -11.392
REMARK INTER:                 -10.788
REMARK INTRA:                  -0.604
REMARK UNBOUND:                -0.831
REMARK  Name = 
REMARK  4 active torsions:
REMARK  status: ('A' for Active; 'I' for Inactive)
REMARK    1  A    between atoms: C_2  and  C_4
REMARK    2  A    between atoms: N_8  and  C_9
REMARK    3  A    between atoms: C_9  and  C_10
REMARK    4  A    between atoms: C_14  and  C_15
REMARK                            x       y       z     vdW  Elec       q    Type
REMARK                         _______ _______ _______ _____ _____    ______ ____
ROOT
ATOM      1  C   UNL     1      46.455   2.708   7.501  0.00  0.00    +0.000 A 
ATOM      2  C   UNL     1      46.043   4.031   7.636  0.00  0.00    +0.000 A 
ATOM      3  C   UNL     1      45.231   4.386   8.715  0.00  0.00    +0.000 A 
ATOM      4  C   UNL     1      44.834   3.412   9.626  0.00  0.00    +0.000 A 
ATOM      5  N   UNL     1      43.955   3.660  10.684  0.00  0.00    +0.000 N 
ATOM      6  N   UNL     1      45.221   2.124   9.496  0.00  0.00    +0.000 NA
ATOM      7  C   UNL     1      46.010   1.795   8.442  0.00  0.00    +0.000 A 
ATOM      8  H   UNL     1      43.904   2.785  11.202  0.00  0.00    +0.000 HD
ENDROOT
BRANCH   1  10
ATOM      9  N   UNL     1      47.419   3.050   5.297  0.00  0.00    +0.000 N 
ATOM     10  C   UNL     1      47.304   2.235   6.389  0.00  0.00    +0.000 C 
ATOM     11  O   UNL     1      47.910   1.174   6.453  0.00  0.00    +0.000 OA
ATOM     12  H   UNL     1      48.090   2.764   4.594  0.00  0.00    +0.000 HD
ATOM     13  H   UNL     1      47.144   4.022   5.308  0.00  0.00    +0.000 HD
ENDBRANCH   1  10
BRANCH   5  14
ATOM     14  C   UNL     1      43.940   4.892  11.490  0.00  0.00    +0.000 C 
ATOM     15  C   UNL     1      42.676   5.082  12.324  0.00  0.00    +0.000 C 
ATOM     16  C   UNL     1      42.985   6.041  11.225  0.00  0.00    +0.000 C 
BRANCH  14  17
ATOM     17  C   UNL     1      45.282   5.213  12.142  0.00  0.00    +0.000 A 
ATOM     18  C   UNL     1      46.149   6.176  11.608  0.00  0.00    +0.000 A 
ATOM     19  C   UNL     1      47.344   6.455  12.250  0.00  0.00    +0.000 A 
ATOM     20  N   UNL     1      47.740   5.854  13.389  0.00  0.00    +0.000 NA
ATOM     21  C   UNL     1      46.907   4.925  13.932  0.00  0.00    +0.000 A 
ATOM     22  C   UNL     1      45.691   4.585  13.330  0.00  0.00    +0.000 A 
BRANCH  21  23
ATOM     23  C   UNL     1      47.295   4.234  15.234  0.00  0.00    +0.000 C 
ATOM     24  F   UNL     1      47.666   2.930  15.097  0.00  0.00    +0.000 F 
ATOM     25  F   UNL     1      48.344   4.853  15.857  0.00  0.00    +0.000 F 
ATOM     26  F   UNL     1      46.282   4.240  16.148  0.00  0.00    +0.000 F 
ENDBRANCH  21  23
ENDBRANCH  14  17
ENDBRANCH   5  14
TORSDOF 4
ENDMDL
MODEL 3
REMARK VINA RESULT:    -6.719      3.507      6.093
REMARK INTER + INTRA:          -9.121
REMARK INTER:                  -8.604
REMARK INTRA:                  -0.517
REMARK UNBOUND:                -0.831
REMARK  Name = 
REMARK  4 active torsions:
REMARK  status: ('A' for Active; 'I' for Inactive)
REMARK    1  A    between atoms: C_2  and  C_4
REMARK    2  A    between atoms: N_8  and  C_9
REMARK    3  A    between atoms: C_9  and  C_10
REMARK    4  A    between atoms: C_14  and  C_15
REMARK                            x       y       z     vdW  Elec       q    Type
REMARK                         _______ _______ _______ _____ _____    ______ ____
ROOT
ATOM      1  C   UNL     1      48.617   7.084  13.182  0.00  0.00    +0.000 A 
ATOM      2  C   UNL     1      47.583   6.460  13.875  0.00  0.00    +0.000 A 
ATOM      3  C   UNL     1      46.370   6.224  13.224  0.00  0.00    +0.000 A 
ATOM      4  C   UNL     1      46.209   6.630  11.903  0.00  0.00    +0.000 A 
ATOM      5  N   UNL     1      45.005   6.511  11.202  0.00  0.00    +0.000 N 
ATOM      6  N   UNL     1      47.204   7.244  11.226  0.00  0.00    +0.000 NA
ATOM      7  C   UNL     1      48.377   7.466  11.873  0.00  0.00    +0.000 A 
ATOM      8  H   UNL     1      45.211   6.830  10.258  0.00  0.00    +0.000 HD
ENDROOT
BRANCH   1  10
ATOM      9  N   UNL     1      50.916   7.835  12.954  0.00  0.00    +0.000 N 
ATOM     10  C   UNL     1      49.930   7.386  13.787  0.00  0.00    +0.000 C 
ATOM     11  O   UNL     1      50.120   7.273  14.990  0.00  0.00    +0.000 OA
ATOM     12  H   UNL     1      51.772   8.141  13.399  0.00  0.00    +0.000 HD
ATOM     13  H   UNL     1      50.732   8.172  12.020  0.00  0.00    +0.000 HD
ENDBRANCH   1  10
BRANCH   5  14
ATOM     14  C   UNL     1      44.079   5.372  11.314  0.00  0.00    +0.000 C 
ATOM     15  C   UNL     1      42.607   5.765  11.392  0.00  0.00    +0.000 C 
ATOM     16  C   UNL     1      43.255   5.096  12.557  0.00  0.00    +0.000 C 
BRANCH  14  17
ATOM     17  C   UNL     1      44.457   4.187  10.428  0.00  0.00    +0.000 A 
ATOM     18  C   UNL     1      43.910   2.913  10.630  0.00  0.00    +0.000 A 
ATOM     19  C   UNL     1      44.259   1.874   9.784  0.00  0.00    +0.000 A 
ATOM     20  N   UNL     1      45.107   2.007   8.746  0.00  0.00    +0.000 NA
ATOM     21  C   UNL     1      45.640   3.240   8.523  0.00  0.00    +0.000 A 
ATOM     22  C   UNL     1      45.340   4.331   9.347  0.00  0.00    +0.000 A 
BRANCH  21  23
ATOM     23  C   UNL     1      46.584   3.451   7.346  0.00  0.00    +0.000 C 
ATOM     24  F   UNL     1      45.998   3.350   6.121  0.00  0.00    +0.000 F 
ATOM     25  F   UNL     1      47.178   4.683   7.372  0.00  0.00    +0.000 F 
ATOM     26  F   UNL     1      47.616   2.557   7.342  0.00  0.00    +0.000 F 
ENDBRANCH  21  23
ENDBRANCH  14  17
ENDBRANCH   5  14
TORSDOF 4
ENDMDL
MODEL 4
REMARK VINA RESULT:    -6.137      3.609      5.472
REMARK INTER + INTRA:          -8.403
REMARK INTER:                  -8.206
REMARK INTRA:                  -0.196
REMARK UNBOUND:                -0.831
REMARK  Name = 
REMARK  4 active torsions:
REMARK  status: ('A' for Active; 'I' for Inactive)
REMARK    1  A    between atoms: C_2  and  C_4
REMARK    2  A    between atoms: N_8  and  C_9
REMARK    3  A    between atoms: C_9  and  C_10
REMARK    4  A    between atoms: C_14  and  C_15
REMARK                            x       y       z     vdW  Elec       q    Type
REMARK                         _______ _______ _______ _____ _____    ______ ____
ROOT
ATOM      1  C   UNL     1      44.777   5.081  10.990  0.00  0.00    +0.000 A 
ATOM      2  C   UNL     1      45.912   5.764  10.558  0.00  0.00    +0.000 A 
ATOM      3  C   UNL     1      46.563   6.630  11.438  0.00  0.00    +0.000 A 
ATOM      4  C   UNL     1      46.061   6.810  12.723  0.00  0.00    +0.000 A 
ATOM      5  N   UNL     1      46.598   7.720  13.639  0.00  0.00    +0.000 N 
ATOM      6  N   UNL     1      44.956   6.160  13.147  0.00  0.00    +0.000 NA
ATOM      7  C   UNL     1      44.333   5.321  12.280  0.00  0.00    +0.000 A 
ATOM      8  H   UNL     1      46.066   7.584  14.496  0.00  0.00    +0.000 HD
ENDROOT
BRANCH   1  10
ATOM      9  N   UNL     1      44.069   4.362   8.780  0.00  0.00    +0.000 N 
ATOM     10  C   UNL     1      44.015   4.153  10.130  0.00  0.00    +0.000 C 
ATOM     11  O   UNL     1      43.388   3.214  10.601  0.00  0.00    +0.000 OA
ATOM     12  H   UNL     1      43.633   3.655   8.201  0.00  0.00    +0.000 HD
ATOM     13  H   UNL     1      44.758   4.959   8.346  0.00  0.00    +0.000 HD
ENDBRANCH   1  10
BRANCH   5  14
ATOM     14  C   UNL     1      48.035   7.993  13.804  0.00  0.00    +0.000 C 
ATOM     15  C   UNL     1      48.396   9.476  13.807  0.00  0.00    +0.000 C 
ATOM     16  C   UNL     1      48.892   8.598  12.708  0.00  0.00    +0.000 C 
BRANCH  14  17
ATOM     17  C   UNL     1      48.716   7.090  14.829  0.00  0.00    +0.000 A 
ATOM     18  C   UNL     1      49.996   7.372  15.324  0.00  0.00    +0.000 A 
ATOM     19  C   UNL     1      50.563   6.541  16.275  0.00  0.00    +0.000 A 
ATOM     20  N   UNL     1      49.950   5.452  16.779  0.00  0.00    +0.000 NA
ATOM     21  C   UNL     1      48.700   5.168  16.323  0.00  0.00    +0.000 A 
ATOM     22  C   UNL     1      48.072   5.958  15.353  0.00  0.00    +0.000 A 
BRANCH  21  23
ATOM     23  C   UNL     1      47.951   3.963  16.879  0.00  0.00    +0.000 C 
ATOM     24  F   UNL     1      47.588   3.039  15.947  0.00  0.00    +0.000 F 
ATOM     25  F   UNL     1      48.685   3.281  17.810  0.00  0.00    +0.000 F 
ATOM     26  F   UNL     1      46.800   4.317  17.521  0.00  0.00    +0.000 F 
ENDBRANCH  21  23
ENDBRANCH  14  17
ENDBRANCH   5  14
TORSDOF 4
ENDMDL
MODEL 5
REMARK VINA RESULT:    -6.058      4.534      7.735
REMARK INTER + INTRA:          -8.305
REMARK INTER:                  -8.577
REMARK INTRA:                   0.271
REMARK UNBOUND:                -0.831
REMARK  Name = 
REMARK  4 active torsions:
REMARK  status: ('A' for Active; 'I' for Inactive)
REMARK    1  A    between atoms: C_2  and  C_4
REMARK    2  A    between atoms: N_8  and  C_9
REMARK    3  A    between atoms: C_9  and  C_10
REMARK    4  A    between atoms: C_14  and  C_15
REMARK                            x       y       z     vdW  Elec       q    Type
REMARK                         _______ _______ _______ _____ _____    ______ ____
ROOT
ATOM      1  C   UNL     1      48.231   4.574  17.826  0.00  0.00    +0.000 A 
ATOM      2  C   UNL     1      48.584   5.687  17.067  0.00  0.00    +0.000 A 
ATOM      3  C   UNL     1      48.186   5.755  15.730  0.00  0.00    +0.000 A 
ATOM      4  C   UNL     1      47.460   4.706  15.175  0.00  0.00    +0.000 A 
ATOM      5  N   UNL     1      47.095   4.651  13.827  0.00  0.00    +0.000 N 
ATOM      6  N   UNL     1      47.122   3.618  15.902  0.00  0.00    +0.000 NA
ATOM      7  C   UNL     1      47.516   3.567  17.200  0.00  0.00    +0.000 A 
ATOM      8  H   UNL     1      46.530   3.809  13.735  0.00  0.00    +0.000 HD
ENDROOT
BRANCH   1  10
ATOM      9  N   UNL     1      48.314   3.212  19.836  0.00  0.00    +0.000 N 
ATOM     10  C   UNL     1      48.614   4.407  19.242  0.00  0.00    +0.000 C 
ATOM     11  O   UNL     1      49.208   5.285  19.852  0.00  0.00    +0.000 OA
ATOM     12  H   UNL     1      48.680   3.073  20.770  0.00  0.00    +0.000 HD
ATOM     13  H   UNL     1      48.055   2.390  19.311  0.00  0.00    +0.000 HD
ENDBRANCH   1  10
BRANCH   5  14
ATOM     14  C   UNL     1      46.666   5.810  13.026  0.00  0.00    +0.000 C 
ATOM     15  C   UNL     1      47.813   6.620  12.429  0.00  0.00    +0.000 C 
ATOM     16  C   UNL     1      46.920   7.245  13.448  0.00  0.00    +0.000 C 
BRANCH  14  17
ATOM     17  C   UNL     1      45.454   5.527  12.142  0.00  0.00    +0.000 A 
ATOM     18  C   UNL     1      44.210   6.127  12.384  0.00  0.00    +0.000 A 
ATOM     19  C   UNL     1      43.146   5.865  11.539  0.00  0.00    +0.000 A 
ATOM     20  N   UNL     1      43.225   5.055  10.464  0.00  0.00    +0.000 NA
ATOM     21  C   UNL     1      44.427   4.474  10.203  0.00  0.00    +0.000 A 
ATOM     22  C   UNL     1      45.541   4.685  11.023  0.00  0.00    +0.000 A 
BRANCH  21  23
ATOM     23  C   UNL     1      44.578   3.570   8.985  0.00  0.00    +0.000 C 
ATOM     24  F   UNL     1      45.866   3.309   8.626  0.00  0.00    +0.000 F 
ATOM     25  F   UNL     1      43.991   2.349   9.169  0.00  0.00    +0.000 F 
ATOM     26  F   UNL     1      43.979   4.091   7.874  0.00  0.00    +0.000 F 
ENDBRANCH  21  23
ENDBRANCH  14  17
ENDBRANCH   5  14
TORSDOF 4
ENDMDL
