MODEL 1
REMARK VINA RESULT:    -4.107      0.000      0.000
REMARK INTER + INTRA:          -4.353
REMARK INTER:                  -4.348
REMARK INTRA:                  -0.005
REMARK UNBOUND:                -0.005
REMARK  Name = 
REMARK  1 active torsions:
REMARK  status: ('A' for Active; 'I' for Inactive)
REMARK    1  A    between atoms: C_2  and  C_3
REMARK                            x       y       z     vdW  Elec       q    Type
REMARK                         _______ _______ _______ _____ _____    ______ ____
ROOT
ATOM      1  C   UNL     1      46.397   2.614   7.668  0.00  0.00    +0.000 A 
ATOM      2  C   UNL     1      46.046   3.949   7.681  0.00  0.00    +0.000 A 
ATOM      3  C   UNL     1      44.958   4.213   8.565  0.00  0.00    +0.000 A 
ATOM      4  C   UNL     1      44.518   3.072   9.196  0.00  0.00    +0.000 A 
ATOM      5  S   UNL     1      45.415   1.692   8.724  0.00  0.00    +0.000 S 
ENDROOT
BRANCH   1   7
ATOM      6  N   UNL     1      48.306   1.583   6.255  0.00  0.00    +0.000 NA
ATOM      7  C   UNL     1      47.444   2.047   6.879  0.00  0.00    +0.000 C 
ENDBRANCH   1   7
TORSDOF 1
ENDMDL
MODEL 2
REMARK VINA RESULT:    -3.959      2.656      3.725
REMARK INTER + INTRA:          -4.195
REMARK INTER:                  -4.190
REMARK INTRA:                  -0.005
REMARK UNBOUND:                -0.005
REMARK  Name = 
REMARK  1 active torsions:
REMARK  status: ('A' for Active; 'I' for Inactive)
REMARK    1  A    between atoms: C_2  and  C_3
REMARK                            x       y       z     vdW  Elec       q    Type
REMARK                         _______ _______ _______ _____ _____    ______ ____
ROOT
ATOM      1  C   UNL     1      45.806   2.372   8.323  0.00  0.00    +0.000 A 
ATOM      2  C   UNL     1      46.407   1.158   8.059  0.00  0.00    +0.000 A 
ATOM      3  C   UNL     1      47.399   1.256   7.038  0.00  0.00    +0.000 A 
ATOM      4  C   UNL     1      47.521   2.542   6.560  0.00  0.00    +0.000 A 
ATOM      5  S   UNL     1      46.445   3.620   7.341  0.00  0.00    +0.000 S 
ENDROOT
BRANCH   1   7
ATOM      6  N   UNL     1      43.938   2.780  10.068  0.00  0.00    +0.000 NA
ATOM      7  C   UNL     1      44.776   2.586   9.288  0.00  0.00    +0.000 C 
ENDBRANCH   1   7
TORSDOF 1
ENDMDL
MODEL 3
REMARK VINA RESULT:    -3.776      2.495      3.371
REMARK INTER + INTRA:          -4.002
REMARK INTER:                  -3.997
REMARK INTRA:                  -0.005
REMARK UNBOUND:                -0.005
REMARK  Name = 
REMARK  1 active torsions:
REMARK  status: ('A' for Active; 'I' for Inactive)
REMARK    1  A    between atoms: C_2  and  C_3
REMARK                            x       y       z     vdW  Elec       q    Type
REMARK                         _______ _______ _______ _____ _____    ______ ____
ROOT
ATOM      1  C   UNL     1      45.545   2.457   8.307  0.00  0.00    +0.000 A 
ATOM      2  C   UNL     1      45.781   3.475   7.405  0.00  0.00    +0.000 A 
ATOM      3  C   UNL     1      46.753   3.114   6.424  0.00  0.00    +0.000 A 
ATOM      4  C   UNL     1      47.222   1.833   6.611  0.00  0.00    +0.000 A 
ATOM      5  S   UNL     1      46.492   1.074   7.960  0.00  0.00    +0.000 S 
ENDROOT
BRANCH   1   7
ATOM      6  N   UNL     1      43.892   2.600  10.293  0.00  0.00    +0.000 NA
ATOM      7  C   UNL     1      44.630   2.525   9.401  0.00  0.00    +0.000 C 
ENDBRANCH   1   7
TORSDOF 1
ENDMDL
MODEL 4
REMARK VINA RESULT:    -3.597      3.065      3.890
REMARK INTER + INTRA:          -3.813
REMARK INTER:                  -3.808
REMARK INTRA:                  -0.005
REMARK UNBOUND:                -0.005
REMARK  Name = 
REMARK  1 active torsions:
REMARK  status: ('A' for Active; 'I' for Inactive)
REMARK    1  A    between atoms: C_2  and  C_3
REMARK                            x       y       z     vdW  Elec       q    Type
REMARK                         _______ _______ _______ _____ _____    ______ ____
ROOT
ATOM      1  C   UNL     1      44.784   3.844   9.276  0.00  0.00    +0.000 A 
ATOM      2  C   UNL     1      45.640   4.485   8.404  0.00  0.00    +0.000 A 
ATOM      3  C   UNL     1      46.400   3.566   7.619  0.00  0.00    +0.000 A 
ATOM      4  C   UNL     1      46.096   2.258   7.920  0.00  0.00    +0.000 A 
ATOM      5  S   UNL     1      44.900   2.142   9.139  0.00  0.00    +0.000 S 
ENDROOT
BRANCH   1   7
ATOM      6  N   UNL     1      43.193   5.047  10.926  0.00  0.00    +0.000 NA
ATOM      7  C   UNL     1      43.902   4.498  10.189  0.00  0.00    +0.000 C 
ENDBRANCH   1   7
TORSDOF 1
ENDMDL
MODEL 5
REMARK VINA RESULT:    -3.412      3.453      4.235
REMARK INTER + INTRA:          -3.616
REMARK INTER:                  -3.611
REMARK INTRA:                  -0.005
REMARK UNBOUND:                -0.005
REMARK  Name = 
REMARK  1 active torsions:
REMARK  status: ('A' for Active; 'I' for Inactive)
REMARK    1  A    between atoms: C_2  and  C_3
REMARK                            x       y       z     vdW  Elec       q    Type
REMARK                         _______ _______ _______ _____ _____    ______ ____
ROOT
ATOM      1  C   UNL     1      43.873   3.655  10.817  0.00  0.00    +0.000 A 
ATOM      2  C   UNL     1      43.444   4.937  10.538  0.00  0.00    +0.000 A 
ATOM      3  C   UNL     1      42.949   5.606  11.697  0.00  0.00    +0.000 A 
ATOM      4  C   UNL     1      43.018   4.812  12.819  0.00  0.00    +0.000 A 
ATOM      5  S   UNL     1      43.679   3.271  12.474  0.00  0.00    +0.000 S 
ENDROOT
BRANCH   1   7
ATOM      6  N   UNL     1      44.867   2.018   9.076  0.00  0.00    +0.000 NA
ATOM      7  C   UNL     1      44.414   2.743   9.861  0.00  0.00    +0.000 C 
ENDBRANCH   1   7
TORSDOF 1
ENDMDL
MODEL 6
REMARK VINA RESULT:    -3.398      4.818      5.304
REMARK INTER + INTRA:          -3.602
REMARK INTER:                  -3.597
REMARK INTRA:                  -0.005
REMARK UNBOUND:                -0.005
REMARK  Name = 
REMARK  1 active torsions:
REMARK  status: ('A' for Active; 'I' for Inactive)
REMARK    1  A    between atoms: C_2  and  C_3
REMARK                            x       y       z     vdW  Elec       q    Type
REMARK                         _______ _______ _______ _____ _____    ______ ____
ROOT
ATOM      1  C   UNL     1      45.204   4.039  12.443  0.00  0.00    +0.000 A 
ATOM      2  C   UNL     1      44.863   3.409  11.264  0.00  0.00    +0.000 A 
ATOM      3  C   UNL     1      43.704   3.983  10.660  0.00  0.00    +0.000 A 
ATOM      4  C   UNL     1      43.204   5.032  11.399  0.00  0.00    +0.000 A 
ATOM      5  S   UNL     1      44.130   5.320  12.810  0.00  0.00    +0.000 S 
ENDROOT
BRANCH   1   7
ATOM      6  N   UNL     1      47.218   3.385  13.931  0.00  0.00    +0.000 NA
ATOM      7  C   UNL     1      46.311   3.685  13.273  0.00  0.00    +0.000 C 
ENDBRANCH   1   7
TORSDOF 1
ENDMDL
MODEL 7
REMARK VINA RESULT:    -3.296      4.757      5.274
REMARK INTER + INTRA:          -3.493
REMARK INTER:                  -3.488
REMARK INTRA:                  -0.005
REMARK UNBOUND:                -0.005
REMARK  Name = 
REMARK  1 active torsions:
REMARK  status: ('A' for Active; 'I' for Inactive)
REMARK    1  A    between atoms: C_2  and  C_3
REMARK                            x       y       z     vdW  Elec       q    Type
REMARK                         _______ _______ _______ _____ _____    ______ ____
ROOT
ATOM      1  C   UNL     1      44.772   4.364  11.800  0.00  0.00    +0.000 A 
ATOM      2  C   UNL     1      45.190   5.161  10.753  0.00  0.00    +0.000 A 
ATOM      3  C   UNL     1      46.141   6.142  11.166  0.00  0.00    +0.000 A 
ATOM      4  C   UNL     1      46.416   6.057  12.513  0.00  0.00    +0.000 A 
ATOM      5  S   UNL     1      45.532   4.801  13.269  0.00  0.00    +0.000 S 
ENDROOT
BRANCH   1   7
ATOM      6  N   UNL     1      43.064   2.431  11.592  0.00  0.00    +0.000 NA
ATOM      7  C   UNL     1      43.824   3.301  11.695  0.00  0.00    +0.000 C 
ENDBRANCH   1   7
TORSDOF 1
ENDMDL
MODEL 8
REMARK VINA RESULT:    -3.289      3.714      4.593
REMARK INTER + INTRA:          -3.486
REMARK INTER:                  -3.481
REMARK INTRA:                  -0.005
REMARK UNBOUND:                -0.005
REMARK  Name = 
REMARK  1 active torsions:
REMARK  status: ('A' for Active; 'I' for Inactive)
REMARK    1  A    between atoms: C_2  and  C_3
REMARK                            x       y       z     vdW  Elec       q    Type
REMARK                         _______ _______ _______ _____ _____    ______ ____
ROOT
ATOM      1  C   UNL     1      44.606   3.951  10.878  0.00  0.00    +0.000 A 
ATOM      2  C   UNL     1      45.251   5.105  10.482  0.00  0.00    +0.000 A 
ATOM      3  C   UNL     1      45.659   5.055   9.115  0.00  0.00    +0.000 A 
ATOM      4  C   UNL     1      45.310   3.866   8.517  0.00  0.00    +0.000 A 
ATOM      5  S   UNL     1      44.494   2.820   9.599  0.00  0.00    +0.000 S 
ENDROOT
BRANCH   1   7
ATOM      6  N   UNL     1      43.674   3.528  13.255  0.00  0.00    +0.000 NA
ATOM      7  C   UNL     1      44.088   3.707  12.186  0.00  0.00    +0.000 C 
ENDBRANCH   1   7
TORSDOF 1
ENDMDL
MODEL 9
REMARK VINA RESULT:    -3.172      3.210      3.900
REMARK INTER + INTRA:          -3.362
REMARK INTER:                  -3.357
REMARK INTRA:                  -0.005
REMARK UNBOUND:                -0.005
REMARK  Name = 
REMARK  1 active torsions:
REMARK  status: ('A' for Active; 'I' for Inactive)
REMARK    1  A    between atoms: C_2  and  C_3
REMARK                            x       y       z     vdW  Elec       q    Type
REMARK                         _______ _______ _______ _____ _____    ______ ____
ROOT
ATOM      1  C   UNL     1      44.760   4.504  10.447  0.00  0.00    +0.000 A 
ATOM      2  C   UNL     1      44.950   5.521  11.360  0.00  0.00    +0.000 A 
ATOM      3  C   UNL     1      44.273   5.275  12.592  0.00  0.00    +0.000 A 
ATOM      4  C   UNL     1      43.592   4.078  12.576  0.00  0.00    +0.000 A 
ATOM      5  S   UNL     1      43.773   3.259  11.083  0.00  0.00    +0.000 S 
ENDROOT
BRANCH   1   7
ATOM      6  N   UNL     1      45.735   4.439   8.050  0.00  0.00    +0.000 NA
ATOM      7  C   UNL     1      45.309   4.471   9.129  0.00  0.00    +0.000 C 
ENDBRANCH   1   7
TORSDOF 1
ENDMDL
