MODEL 1
REMARK VINA RESULT:    -8.807      0.000      0.000
REMARK INTER + INTRA:         -13.128
REMARK INTER:                 -12.153
REMARK INTRA:                  -0.975
REMARK UNBOUND:                -0.975
REMARK  Name = 
REMARK  7 active torsions:
REMARK  status: ('A' for Active; 'I' for Inactive)
REMARK    1  A    between atoms: N_1  and  C_2
REMARK    2  A    between atoms: C_2  and  N_3
REMARK    3  A    between atoms: C_2  and  C_16
REMARK    4  A    between atoms: C_4  and  C_6
REMARK    5  A    between atoms: C_19  and  C_20
REMARK    6  A    between atoms: C_20  and  N_21
REMARK    7  A    between atoms: C_22  and  C_24
REMARK                            x       y       z     vdW  Elec       q    Type
REMARK                         _______ _______ _______ _____ _____    ______ ____
ROOT
ATOM      1  C   UNL     1      46.723   4.380  14.943  0.00  0.00    +0.000 C 
ENDROOT
BRANCH   1   2
ATOM      2  C   UNL     1      45.874   4.483  13.691  0.00  0.00    +0.000 A 
ATOM      3  C   UNL     1      45.690   3.320  12.931  0.00  0.00    +0.000 A 
ATOM      4  C   UNL     1      44.977   3.329  11.724  0.00  0.00    +0.000 A 
ATOM      5  C   UNL     1      44.441   4.523  11.223  0.00  0.00    +0.000 A 
ATOM      6  C   UNL     1      44.589   5.680  11.997  0.00  0.00    +0.000 A 
ATOM      7  C   UNL     1      45.298   5.669  13.209  0.00  0.00    +0.000 A 
BRANCH   5   8
ATOM      8  C   UNL     1      43.761   4.604   9.876  0.00  0.00    +0.000 C 
BRANCH   8   9
ATOM      9  N   UNL     1      44.327   3.723   8.874  0.00  0.00    +0.000 N 
ATOM     10  C   UNL     1      45.490   4.067   8.209  0.00  0.00    +0.000 C 
ATOM     11  O   UNL     1      46.074   5.124   8.374  0.00  0.00    +0.000 OA
ATOM     12  H   UNL     1      43.925   2.811   8.737  0.00  0.00    +0.000 HD
BRANCH  10  13
ATOM     13  C   UNL     1      45.945   2.989   7.219  0.00  0.00    +0.000 C 
ATOM     14  C   UNL     1      46.422   1.735   7.965  0.00  0.00    +0.000 C 
ATOM     15  C   UNL     1      47.053   0.734   7.013  0.00  0.00    +0.000 C 
ATOM     16  O   UNL     1      48.096   1.340   6.256  0.00  0.00    +0.000 OA
ATOM     17  C   UNL     1      47.625   2.413   5.444  0.00  0.00    +0.000 C 
ATOM     18  C   UNL     1      47.055   3.524   6.311  0.00  0.00    +0.000 C 
ENDBRANCH  10  13
ENDBRANCH   8   9
ENDBRANCH   5   8
ENDBRANCH   1   2
BRANCH   1  19
ATOM     19  N   UNL     1      47.545   5.505  15.219  0.00  0.00    +0.000 N 
ATOM     20  C   UNL     1      48.408   5.523  16.284  0.00  0.00    +0.000 C 
ATOM     21  O   UNL     1      48.510   4.596  17.080  0.00  0.00    +0.000 OA
ATOM     22  H   UNL     1      47.218   6.406  14.883  0.00  0.00    +0.000 HD
BRANCH  20  23
ATOM     23  C   UNL     1      49.280   6.698  16.380  0.00  0.00    +0.000 A 
ATOM     24  C   UNL     1      49.641   7.195  17.623  0.00  0.00    +0.000 A 
ATOM     25  S   UNL     1      50.667   8.558  17.534  0.00  0.00    +0.000 S 
ATOM     26  C   UNL     1      50.627   8.546  15.832  0.00  0.00    +0.000 A 
ATOM     27  N   UNL     1      51.275   9.490  15.105  0.00  0.00    +0.000 NA
ATOM     28  C   UNL     1      51.116   9.381  13.824  0.00  0.00    +0.000 A 
ATOM     29  N   UNL     1      50.378   8.401  13.211  0.00  0.00    +0.000 N 
ATOM     30  C   UNL     1      49.765   7.383  13.897  0.00  0.00    +0.000 A 
ATOM     31  O   UNL     1      49.192   6.466  13.325  0.00  0.00    +0.000 OA
ATOM     32  C   UNL     1      49.870   7.497  15.341  0.00  0.00    +0.000 A 
ATOM     33  H   UNL     1      50.316   8.360  12.202  0.00  0.00    +0.000 HD
ENDBRANCH  20  23
ENDBRANCH   1  19
BRANCH   1  34
ATOM     34  N   UNL     1      47.647   3.272  14.849  0.00  0.00    +0.000 NA
ATOM     35  H   UNL     1      47.336   2.662  14.100  0.00  0.00    +0.000 HD
ATOM     36  H   UNL     1      47.583   2.731  15.709  0.00  0.00    +0.000 HD
ENDBRANCH   1  34
TORSDOF 7
ENDMDL
MODEL 2
REMARK VINA RESULT:    -8.739      1.463      1.839
REMARK INTER + INTRA:         -13.035
REMARK INTER:                 -11.957
REMARK INTRA:                  -1.078
REMARK UNBOUND:                -0.975
REMARK  Name = 
REMARK  7 active torsions:
REMARK  status: ('A' for Active; 'I' for Inactive)
REMARK    1  A    between atoms: N_1  and  C_2
REMARK    2  A    between atoms: C_2  and  N_3
REMARK    3  A    between atoms: C_2  and  C_16
REMARK    4  A    between atoms: C_4  and  C_6
REMARK    5  A    between atoms: C_19  and  C_20
REMARK    6  A    between atoms: C_20  and  N_21
REMARK    7  A    between atoms: C_22  and  C_24
REMARK                            x       y       z     vdW  Elec       q    Type
REMARK                         _______ _______ _______ _____ _____    ______ ____
ROOT
ATOM      1  C   UNL     1      46.817   4.466  14.912  0.00  0.00    +0.000 C 
ENDROOT
BRANCH   1   2
ATOM      2  C   UNL     1      45.950   4.560  13.672  0.00  0.00    +0.000 A 
ATOM      3  C   UNL     1      45.689   3.376  12.969  0.00  0.00    +0.000 A 
ATOM      4  C   UNL     1      44.954   3.370  11.776  0.00  0.00    +0.000 A 
ATOM      5  C   UNL     1      44.474   4.568  11.230  0.00  0.00    +0.000 A 
ATOM      6  C   UNL     1      44.700   5.749  11.948  0.00  0.00    +0.000 A 
ATOM      7  C   UNL     1      45.430   5.753  13.147  0.00  0.00    +0.000 A 
BRANCH   5   8
ATOM      8  C   UNL     1      43.773   4.627   9.892  0.00  0.00    +0.000 C 
BRANCH   8   9
ATOM      9  N   UNL     1      44.335   3.743   8.891  0.00  0.00    +0.000 N 
ATOM     10  C   UNL     1      45.501   4.078   8.228  0.00  0.00    +0.000 C 
ATOM     11  O   UNL     1      46.092   5.132   8.396  0.00  0.00    +0.000 OA
ATOM     12  H   UNL     1      43.927   2.833   8.753  0.00  0.00    +0.000 HD
BRANCH  10  13
ATOM     13  C   UNL     1      45.951   2.998   7.240  0.00  0.00    +0.000 C 
ATOM     14  C   UNL     1      46.451   1.754   7.986  0.00  0.00    +0.000 C 
ATOM     15  C   UNL     1      47.076   0.752   7.032  0.00  0.00    +0.000 C 
ATOM     16  O   UNL     1      48.102   1.362   6.255  0.00  0.00    +0.000 OA
ATOM     17  C   UNL     1      47.609   2.425   5.442  0.00  0.00    +0.000 C 
ATOM     18  C   UNL     1      47.042   3.537   6.311  0.00  0.00    +0.000 C 
ENDBRANCH  10  13
ENDBRANCH   8   9
ENDBRANCH   5   8
ENDBRANCH   1   2
BRANCH   1  19
ATOM     19  N   UNL     1      47.768   5.509  15.075  0.00  0.00    +0.000 N 
ATOM     20  C   UNL     1      48.316   5.800  16.298  0.00  0.00    +0.000 C 
ATOM     21  O   UNL     1      48.007   5.212  17.328  0.00  0.00    +0.000 OA
ATOM     22  H   UNL     1      47.742   6.264  14.396  0.00  0.00    +0.000 HD
BRANCH  20  23
ATOM     23  C   UNL     1      49.369   6.820  16.298  0.00  0.00    +0.000 A 
ATOM     24  C   UNL     1      49.062   8.136  15.989  0.00  0.00    +0.000 A 
ATOM     25  S   UNL     1      50.414   9.179  16.052  0.00  0.00    +0.000 S 
ATOM     26  C   UNL     1      51.455   7.895  16.458  0.00  0.00    +0.000 A 
ATOM     27  N   UNL     1      52.787   8.092  16.622  0.00  0.00    +0.000 NA
ATOM     28  C   UNL     1      53.459   7.016  16.882  0.00  0.00    +0.000 A 
ATOM     29  N   UNL     1      52.910   5.765  17.008  0.00  0.00    +0.000 N 
ATOM     30  C   UNL     1      51.562   5.526  16.924  0.00  0.00    +0.000 A 
ATOM     31  O   UNL     1      51.083   4.420  17.134  0.00  0.00    +0.000 OA
ATOM     32  C   UNL     1      50.775   6.696  16.577  0.00  0.00    +0.000 A 
ATOM     33  H   UNL     1      53.491   4.970  17.237  0.00  0.00    +0.000 HD
ENDBRANCH  20  23
ENDBRANCH   1  19
BRANCH   1  34
ATOM     34  N   UNL     1      47.608   3.255  14.898  0.00  0.00    +0.000 NA
ATOM     35  H   UNL     1      48.227   3.271  15.701  0.00  0.00    +0.000 HD
ATOM     36  H   UNL     1      48.204   3.275  14.072  0.00  0.00    +0.000 HD
ENDBRANCH   1  34
TORSDOF 7
ENDMDL
MODEL 3
REMARK VINA RESULT:    -8.713      2.404      3.050
REMARK INTER + INTRA:         -12.999
REMARK INTER:                 -11.739
REMARK INTRA:                  -1.260
REMARK UNBOUND:                -0.975
REMARK  Name = 
REMARK  7 active torsions:
REMARK  status: ('A' for Active; 'I' for Inactive)
REMARK    1  A    between atoms: N_1  and  C_2
REMARK    2  A    between atoms: C_2  and  N_3
REMARK    3  A    between atoms: C_2  and  C_16
REMARK    4  A    between atoms: C_4  and  C_6
REMARK    5  A    between atoms: C_19  and  C_20
REMARK    6  A    between atoms: C_20  and  N_21
REMARK    7  A    between atoms: C_22  and  C_24
REMARK                            x       y       z     vdW  Elec       q    Type
REMARK                         _______ _______ _______ _____ _____    ______ ____
ROOT
ATOM      1  C   UNL     1      48.264   5.785  14.464  0.00  0.00    +0.000 C 
ENDROOT
BRANCH   1   2
ATOM      2  C   UNL     1      47.111   5.518  13.515  0.00  0.00    +0.000 A 
ATOM      3  C   UNL     1      46.606   4.212  13.456  0.00  0.00    +0.000 A 
ATOM      4  C   UNL     1      45.587   3.853  12.563  0.00  0.00    +0.000 A 
ATOM      5  C   UNL     1      45.054   4.797  11.674  0.00  0.00    +0.000 A 
ATOM      6  C   UNL     1      45.528   6.111  11.756  0.00  0.00    +0.000 A 
ATOM      7  C   UNL     1      46.545   6.472  12.655  0.00  0.00    +0.000 A 
BRANCH   5   8
ATOM      8  C   UNL     1      44.034   4.432  10.621  0.00  0.00    +0.000 C 
BRANCH   8   9
ATOM      9  N   UNL     1      44.540   3.553   9.586  0.00  0.00    +0.000 N 
ATOM     10  C   UNL     1      45.371   4.039   8.592  0.00  0.00    +0.000 C 
ATOM     11  O   UNL     1      45.683   5.213   8.489  0.00  0.00    +0.000 OA
ATOM     12  H   UNL     1      44.367   2.564   9.652  0.00  0.00    +0.000 HD
BRANCH  10  13
ATOM     13  C   UNL     1      45.828   2.948   7.619  0.00  0.00    +0.000 C 
ATOM     14  C   UNL     1      46.161   1.653   8.373  0.00  0.00    +0.000 C 
ATOM     15  C   UNL     1      46.796   0.626   7.453  0.00  0.00    +0.000 C 
ATOM     16  O   UNL     1      47.933   1.171   6.789  0.00  0.00    +0.000 OA
ATOM     17  C   UNL     1      47.599   2.285   5.965  0.00  0.00    +0.000 C 
ATOM     18  C   UNL     1      47.038   3.419   6.809  0.00  0.00    +0.000 C 
ENDBRANCH  10  13
ENDBRANCH   8   9
ENDBRANCH   5   8
ENDBRANCH   1   2
BRANCH   1  19
ATOM     19  N   UNL     1      47.897   6.142  15.789  0.00  0.00    +0.000 N 
ATOM     20  C   UNL     1      48.694   5.840  16.863  0.00  0.00    +0.000 C 
ATOM     21  O   UNL     1      49.749   5.225  16.763  0.00  0.00    +0.000 OA
ATOM     22  H   UNL     1      46.905   6.255  15.975  0.00  0.00    +0.000 HD
BRANCH  20  23
ATOM     23  C   UNL     1      48.250   6.371  18.156  0.00  0.00    +0.000 A 
ATOM     24  C   UNL     1      48.020   5.510  19.218  0.00  0.00    +0.000 A 
ATOM     25  S   UNL     1      47.520   6.310  20.642  0.00  0.00    +0.000 S 
ATOM     26  C   UNL     1      47.560   7.827  19.869  0.00  0.00    +0.000 A 
ATOM     27  N   UNL     1      47.198   8.961  20.520  0.00  0.00    +0.000 NA
ATOM     28  C   UNL     1      47.234  10.030  19.792  0.00  0.00    +0.000 A 
ATOM     29  N   UNL     1      47.614  10.065  18.474  0.00  0.00    +0.000 N 
ATOM     30  C   UNL     1      48.057   8.960  17.793  0.00  0.00    +0.000 A 
ATOM     31  O   UNL     1      48.482   9.029  16.648  0.00  0.00    +0.000 OA
ATOM     32  C   UNL     1      47.981   7.726  18.555  0.00  0.00    +0.000 A 
ATOM     33  H   UNL     1      47.642  10.942  17.971  0.00  0.00    +0.000 HD
ENDBRANCH  20  23
ENDBRANCH   1  19
BRANCH   1  34
ATOM     34  N   UNL     1      49.065   6.897  14.000  0.00  0.00    +0.000 NA
ATOM     35  H   UNL     1      49.428   7.386  14.811  0.00  0.00    +0.000 HD
ATOM     36  H   UNL     1      48.452   7.550  13.517  0.00  0.00    +0.000 HD
ENDBRANCH   1  34
TORSDOF 7
ENDMDL
MODEL 4
REMARK VINA RESULT:    -8.591      1.964      3.416
REMARK INTER + INTRA:         -12.831
REMARK INTER:                 -11.708
REMARK INTRA:                  -1.123
REMARK UNBOUND:                -0.975
REMARK  Name = 
REMARK  7 active torsions:
REMARK  status: ('A' for Active; 'I' for Inactive)
REMARK    1  A    between atoms: N_1  and  C_2
REMARK    2  A    between atoms: C_2  and  N_3
REMARK    3  A    between atoms: C_2  and  C_16
REMARK    4  A    between atoms: C_4  and  C_6
REMARK    5  A    between atoms: C_19  and  C_20
REMARK    6  A    between atoms: C_20  and  N_21
REMARK    7  A    between atoms: C_22  and  C_24
REMARK                            x       y       z     vdW  Elec       q    Type
REMARK                         _______ _______ _______ _____ _____    ______ ____
ROOT
ATOM      1  C   UNL     1      47.585   7.585  13.854  0.00  0.00    +0.000 C 
ENDROOT
BRANCH   1   2
ATOM      2  C   UNL     1      46.836   6.497  13.111  0.00  0.00    +0.000 A 
ATOM      3  C   UNL     1      46.277   6.823  11.868  0.00  0.00    +0.000 A 
ATOM      4  C   UNL     1      45.512   5.905  11.136  0.00  0.00    +0.000 A 
ATOM      5  C   UNL     1      45.258   4.625  11.646  0.00  0.00    +0.000 A 
ATOM      6  C   UNL     1      45.845   4.281  12.869  0.00  0.00    +0.000 A 
ATOM      7  C   UNL     1      46.617   5.199  13.598  0.00  0.00    +0.000 A 
BRANCH   5   8
ATOM      8  C   UNL     1      44.349   3.639  10.948  0.00  0.00    +0.000 C 
BRANCH   8   9
ATOM      9  N   UNL     1      44.974   2.938   9.844  0.00  0.00    +0.000 N 
ATOM     10  C   UNL     1      44.901   3.439   8.558  0.00  0.00    +0.000 C 
ATOM     11  O   UNL     1      44.281   4.447   8.261  0.00  0.00    +0.000 OA
ATOM     12  H   UNL     1      45.549   2.135  10.035  0.00  0.00    +0.000 HD
BRANCH  10  13
ATOM     13  C   UNL     1      45.656   2.574   7.543  0.00  0.00    +0.000 C 
ATOM     14  C   UNL     1      46.213   1.312   8.215  0.00  0.00    +0.000 C 
ATOM     15  C   UNL     1      47.122   0.542   7.274  0.00  0.00    +0.000 C 
ATOM     16  O   UNL     1      48.154   1.381   6.764  0.00  0.00    +0.000 OA
ATOM     17  C   UNL     1      47.641   2.475   6.007  0.00  0.00    +0.000 C 
ATOM     18  C   UNL     1      46.786   3.372   6.887  0.00  0.00    +0.000 C 
ENDBRANCH  10  13
ENDBRANCH   8   9
ENDBRANCH   5   8
ENDBRANCH   1   2
BRANCH   1  19
ATOM     19  N   UNL     1      47.959   7.270  15.188  0.00  0.00    +0.000 N 
ATOM     20  C   UNL     1      49.257   6.981  15.524  0.00  0.00    +0.000 C 
ATOM     21  O   UNL     1      50.169   6.945  14.705  0.00  0.00    +0.000 OA
ATOM     22  H   UNL     1      47.236   6.883  15.787  0.00  0.00    +0.000 HD
BRANCH  20  23
ATOM     23  C   UNL     1      49.518   6.791  16.954  0.00  0.00    +0.000 A 
ATOM     24  C   UNL     1      50.328   7.685  17.637  0.00  0.00    +0.000 A 
ATOM     25  S   UNL     1      50.507   7.307  19.293  0.00  0.00    +0.000 S 
ATOM     26  C   UNL     1      49.539   5.916  19.137  0.00  0.00    +0.000 A 
ATOM     27  N   UNL     1      49.313   5.091  20.190  0.00  0.00    +0.000 NA
ATOM     28  C   UNL     1      48.598   4.049  19.910  0.00  0.00    +0.000 A 
ATOM     29  N   UNL     1      48.078   3.770  18.671  0.00  0.00    +0.000 N 
ATOM     30  C   UNL     1      48.216   4.607  17.594  0.00  0.00    +0.000 A 
ATOM     31  O   UNL     1      47.665   4.388  16.524  0.00  0.00    +0.000 OA
ATOM     32  C   UNL     1      49.059   5.762  17.848  0.00  0.00    +0.000 A 
ATOM     33  H   UNL     1      47.506   2.948  18.528  0.00  0.00    +0.000 HD
ENDBRANCH  20  23
ENDBRANCH   1  19
BRANCH   1  34
ATOM     34  N   UNL     1      46.774   8.776  13.979  0.00  0.00    +0.000 NA
ATOM     35  H   UNL     1      46.494   9.068  13.048  0.00  0.00    +0.000 HD
ATOM     36  H   UNL     1      47.358   9.521  14.353  0.00  0.00    +0.000 HD
ENDBRANCH   1  34
TORSDOF 7
ENDMDL
MODEL 5
REMARK VINA RESULT:    -8.450      1.505      2.293
REMARK INTER + INTRA:         -12.636
REMARK INTER:                 -11.549
REMARK INTRA:                  -1.088
REMARK UNBOUND:                -0.975
REMARK  Name = 
REMARK  7 active torsions:
REMARK  status: ('A' for Active; 'I' for Inactive)
REMARK    1  A    between atoms: N_1  and  C_2
REMARK    2  A    between atoms: C_2  and  N_3
REMARK    3  A    between atoms: C_2  and  C_16
REMARK    4  A    between atoms: C_4  and  C_6
REMARK    5  A    between atoms: C_19  and  C_20
REMARK    6  A    between atoms: C_20  and  N_21
REMARK    7  A    between atoms: C_22  and  C_24
REMARK                            x       y       z     vdW  Elec       q    Type
REMARK                         _______ _______ _______ _____ _____    ______ ____
ROOT
ATOM      1  C   UNL     1      46.788   4.395  14.908  0.00  0.00    +0.000 C 
ENDROOT
BRANCH   1   2
ATOM      2  C   UNL     1      45.953   4.551  13.652  0.00  0.00    +0.000 A 
ATOM      3  C   UNL     1      45.379   3.396  13.104  0.00  0.00    +0.000 A 
ATOM      4  C   UNL     1      44.646   3.428  11.909  0.00  0.00    +0.000 A 
ATOM      5  C   UNL     1      44.486   4.630  11.206  0.00  0.00    +0.000 A 
ATOM      6  C   UNL     1      45.024   5.793  11.769  0.00  0.00    +0.000 A 
ATOM      7  C   UNL     1      45.752   5.760  12.969  0.00  0.00    +0.000 A 
BRANCH   5   8
ATOM      8  C   UNL     1      43.799   4.696   9.861  0.00  0.00    +0.000 C 
BRANCH   8   9
ATOM      9  N   UNL     1      44.352   3.794   8.870  0.00  0.00    +0.000 N 
ATOM     10  C   UNL     1      45.524   4.108   8.207  0.00  0.00    +0.000 C 
ATOM     11  O   UNL     1      46.128   5.156   8.364  0.00  0.00    +0.000 OA
ATOM     12  H   UNL     1      43.932   2.889   8.741  0.00  0.00    +0.000 HD
BRANCH  10  13
ATOM     13  C   UNL     1      45.961   3.012   7.230  0.00  0.00    +0.000 C 
ATOM     14  C   UNL     1      46.464   1.777   7.990  0.00  0.00    +0.000 C 
ATOM     15  C   UNL     1      47.078   0.759   7.046  0.00  0.00    +0.000 C 
ATOM     16  O   UNL     1      48.099   1.354   6.250  0.00  0.00    +0.000 OA
ATOM     17  C   UNL     1      47.601   2.407   5.426  0.00  0.00    +0.000 C 
ATOM     18  C   UNL     1      47.045   3.533   6.283  0.00  0.00    +0.000 C 
ENDBRANCH  10  13
ENDBRANCH   8   9
ENDBRANCH   5   8
ENDBRANCH   1   2
BRANCH   1  19
ATOM     19  N   UNL     1      47.589   5.516  15.255  0.00  0.00    +0.000 N 
ATOM     20  C   UNL     1      48.369   5.523  16.382  0.00  0.00    +0.000 C 
ATOM     21  O   UNL     1      48.410   4.590  17.175  0.00  0.00    +0.000 OA
ATOM     22  H   UNL     1      47.288   6.420  14.903  0.00  0.00    +0.000 HD
BRANCH  20  23
ATOM     23  C   UNL     1      49.232   6.697  16.553  0.00  0.00    +0.000 A 
ATOM     24  C   UNL     1      50.241   6.956  15.639  0.00  0.00    +0.000 A 
ATOM     25  S   UNL     1      51.132   8.369  15.996  0.00  0.00    +0.000 S 
ATOM     26  C   UNL     1      50.217   8.655  17.404  0.00  0.00    +0.000 A 
ATOM     27  N   UNL     1      50.488   9.704  18.220  0.00  0.00    +0.000 NA
ATOM     28  C   UNL     1      49.742   9.767  19.276  0.00  0.00    +0.000 A 
ATOM     29  N   UNL     1      48.739   8.880  19.576  0.00  0.00    +0.000 N 
ATOM     30  C   UNL     1      48.378   7.848  18.748  0.00  0.00    +0.000 A 
ATOM     31  O   UNL     1      47.420   7.126  18.988  0.00  0.00    +0.000 OA
ATOM     32  C   UNL     1      49.227   7.705  17.578  0.00  0.00    +0.000 A 
ATOM     33  H   UNL     1      48.176   9.004  20.408  0.00  0.00    +0.000 HD
ENDBRANCH  20  23
ENDBRANCH   1  19
BRANCH   1  34
ATOM     34  N   UNL     1      47.732   3.308  14.767  0.00  0.00    +0.000 NA
ATOM     35  H   UNL     1      48.348   3.317  15.573  0.00  0.00    +0.000 HD
ATOM     36  H   UNL     1      48.314   3.496  13.954  0.00  0.00    +0.000 HD
ENDBRANCH   1  34
TORSDOF 7
ENDMDL
MODEL 6
REMARK VINA RESULT:    -7.868      2.306      3.320
REMARK INTER + INTRA:         -11.833
REMARK INTER:                 -10.569
REMARK INTRA:                  -1.264
REMARK UNBOUND:                -0.975
REMARK  Name = 
REMARK  7 active torsions:
REMARK  status: ('A' for Active; 'I' for Inactive)
REMARK    1  A    between atoms: N_1  and  C_2
REMARK    2  A    between atoms: C_2  and  N_3
REMARK    3  A    between atoms: C_2  and  C_16
REMARK    4  A    between atoms: C_4  and  C_6
REMARK    5  A    between atoms: C_19  and  C_20
REMARK    6  A    between atoms: C_20  and  N_21
REMARK    7  A    between atoms: C_22  and  C_24
REMARK                            x       y       z     vdW  Elec       q    Type
REMARK                         _______ _______ _______ _____ _____    ______ ____
ROOT
ATOM      1  C   UNL     1      48.275   7.606  13.844  0.00  0.00    +0.000 C 
ENDROOT
BRANCH   1   2
ATOM      2  C   UNL     1      47.404   6.578  13.147  0.00  0.00    +0.000 A 
ATOM      3  C   UNL     1      46.962   6.872  11.850  0.00  0.00    +0.000 A 
ATOM      4  C   UNL     1      46.100   6.015  11.150  0.00  0.00    +0.000 A 
ATOM      5  C   UNL     1      45.630   4.837  11.745  0.00  0.00    +0.000 A 
ATOM      6  C   UNL     1      46.100   4.520  13.025  0.00  0.00    +0.000 A 
ATOM      7  C   UNL     1      46.968   5.375  13.723  0.00  0.00    +0.000 A 
BRANCH   5   8
ATOM      8  C   UNL     1      44.616   3.939  11.075  0.00  0.00    +0.000 C 
BRANCH   8   9
ATOM      9  N   UNL     1      45.146   3.174   9.964  0.00  0.00    +0.000 N 
ATOM     10  C   UNL     1      44.981   3.613   8.663  0.00  0.00    +0.000 C 
ATOM     11  O   UNL     1      44.353   4.614   8.364  0.00  0.00    +0.000 OA
ATOM     12  H   UNL     1      45.725   2.372  10.151  0.00  0.00    +0.000 HD
BRANCH  10  13
ATOM     13  C   UNL     1      45.646   2.687   7.639  0.00  0.00    +0.000 C 
ATOM     14  C   UNL     1      46.125   1.392   8.309  0.00  0.00    +0.000 C 
ATOM     15  C   UNL     1      46.952   0.550   7.354  0.00  0.00    +0.000 C 
ATOM     16  O   UNL     1      48.030   1.307   6.812  0.00  0.00    +0.000 OA
ATOM     17  C   UNL     1      47.580   2.431   6.058  0.00  0.00    +0.000 C 
ATOM     18  C   UNL     1      46.815   3.395   6.950  0.00  0.00    +0.000 C 
ENDBRANCH  10  13
ENDBRANCH   8   9
ENDBRANCH   5   8
ENDBRANCH   1   2
BRANCH   1  19
ATOM     19  N   UNL     1      49.442   7.095  14.471  0.00  0.00    +0.000 N 
ATOM     20  C   UNL     1      50.342   7.918  15.098  0.00  0.00    +0.000 C 
ATOM     21  O   UNL     1      50.221   9.137  15.138  0.00  0.00    +0.000 OA
ATOM     22  H   UNL     1      49.800   6.210  14.123  0.00  0.00    +0.000 HD
BRANCH  20  23
ATOM     23  C   UNL     1      51.438   7.245  15.803  0.00  0.00    +0.000 A 
ATOM     24  C   UNL     1      52.746   7.659  15.608  0.00  0.00    +0.000 A 
ATOM     25  S   UNL     1      53.882   6.767  16.521  0.00  0.00    +0.000 S 
ATOM     26  C   UNL     1      52.660   5.777  17.174  0.00  0.00    +0.000 A 
ATOM     27  N   UNL     1      52.955   4.757  18.018  0.00  0.00    +0.000 NA
ATOM     28  C   UNL     1      51.930   4.062  18.396  0.00  0.00    +0.000 A 
ATOM     29  N   UNL     1      50.636   4.309  18.014  0.00  0.00    +0.000 N 
ATOM     30  C   UNL     1      50.278   5.370  17.222  0.00  0.00    +0.000 A 
ATOM     31  O   UNL     1      49.109   5.629  16.970  0.00  0.00    +0.000 OA
ATOM     32  C   UNL     1      51.403   6.145  16.728  0.00  0.00    +0.000 A 
ATOM     33  H   UNL     1      49.878   3.740  18.368  0.00  0.00    +0.000 HD
ENDBRANCH  20  23
ENDBRANCH   1  19
BRANCH   1  34
ATOM     34  N   UNL     1      47.547   8.257  14.911  0.00  0.00    +0.000 NA
ATOM     35  H   UNL     1      47.728   9.254  14.855  0.00  0.00    +0.000 HD
ATOM     36  H   UNL     1      47.934   7.941  15.798  0.00  0.00    +0.000 HD
ENDBRANCH   1  34
TORSDOF 7
ENDMDL
MODEL 7
REMARK VINA RESULT:    -7.815      5.594      9.437
REMARK INTER + INTRA:         -11.760
REMARK INTER:                 -10.840
REMARK INTRA:                  -0.919
REMARK UNBOUND:                -0.975
REMARK  Name = 
REMARK  7 active torsions:
REMARK  status: ('A' for Active; 'I' for Inactive)
REMARK    1  A    between atoms: N_1  and  C_2
REMARK    2  A    between atoms: C_2  and  N_3
REMARK    3  A    between atoms: C_2  and  C_16
REMARK    4  A    between atoms: C_4  and  C_6
REMARK    5  A    between atoms: C_19  and  C_20
REMARK    6  A    between atoms: C_20  and  N_21
REMARK    7  A    between atoms: C_22  and  C_24
REMARK                            x       y       z     vdW  Elec       q    Type
REMARK                         _______ _______ _______ _____ _____    ______ ____
ROOT
ATOM      1  C   UNL     1      47.493   3.487  16.723  0.00  0.00    +0.000 C 
ENDROOT
BRANCH   1   2
ATOM      2  C   UNL     1      48.971   3.451  17.060  0.00  0.00    +0.000 A 
ATOM      3  C   UNL     1      49.621   2.211  17.012  0.00  0.00    +0.000 A 
ATOM      4  C   UNL     1      50.968   2.066  17.371  0.00  0.00    +0.000 A 
ATOM      5  C   UNL     1      51.708   3.169  17.818  0.00  0.00    +0.000 A 
ATOM      6  C   UNL     1      51.075   4.417  17.831  0.00  0.00    +0.000 A 
ATOM      7  C   UNL     1      49.727   4.563  17.465  0.00  0.00    +0.000 A 
BRANCH   5   8
ATOM      8  C   UNL     1      53.128   3.043  18.318  0.00  0.00    +0.000 C 
BRANCH   8   9
ATOM      9  N   UNL     1      53.817   1.857  17.851  0.00  0.00    +0.000 N 
ATOM     10  C   UNL     1      54.487   1.035  18.738  0.00  0.00    +0.000 C 
ATOM     11  O   UNL     1      54.588   1.270  19.930  0.00  0.00    +0.000 OA
ATOM     12  H   UNL     1      53.720   1.579  16.889  0.00  0.00    +0.000 HD
BRANCH  10  13
ATOM     13  C   UNL     1      55.116  -0.184  18.054  0.00  0.00    +0.000 C 
ATOM     14  C   UNL     1      54.662  -0.279  16.592  0.00  0.00    +0.000 C 
ATOM     15  C   UNL     1      55.119  -1.580  15.955  0.00  0.00    +0.000 C 
ATOM     16  O   UNL     1      54.694  -2.700  16.726  0.00  0.00    +0.000 OA
ATOM     17  C   UNL     1      55.239  -2.692  18.043  0.00  0.00    +0.000 C 
ATOM     18  C   UNL     1      54.761  -1.468  18.808  0.00  0.00    +0.000 C 
ENDBRANCH  10  13
ENDBRANCH   8   9
ENDBRANCH   5   8
ENDBRANCH   1   2
BRANCH   1  19
ATOM     19  N   UNL     1      47.103   4.477  15.782  0.00  0.00    +0.000 N 
ATOM     20  C   UNL     1      46.984   4.194  14.446  0.00  0.00    +0.000 C 
ATOM     21  O   UNL     1      47.230   3.092  13.969  0.00  0.00    +0.000 OA
ATOM     22  H   UNL     1      47.295   5.444  16.028  0.00  0.00    +0.000 HD
BRANCH  20  23
ATOM     23  C   UNL     1      46.460   5.278  13.608  0.00  0.00    +0.000 A 
ATOM     24  C   UNL     1      47.191   6.445  13.446  0.00  0.00    +0.000 A 
ATOM     25  S   UNL     1      46.427   7.586  12.428  0.00  0.00    +0.000 S 
ATOM     26  C   UNL     1      45.080   6.567  12.207  0.00  0.00    +0.000 A 
ATOM     27  N   UNL     1      44.016   6.958  11.462  0.00  0.00    +0.000 NA
ATOM     28  C   UNL     1      43.048   6.099  11.422  0.00  0.00    +0.000 A 
ATOM     29  N   UNL     1      43.060   4.879  12.049  0.00  0.00    +0.000 N 
ATOM     30  C   UNL     1      44.139   4.409  12.752  0.00  0.00    +0.000 A 
ATOM     31  O   UNL     1      44.167   3.281  13.224  0.00  0.00    +0.000 OA
ATOM     32  C   UNL     1      45.228   5.363  12.871  0.00  0.00    +0.000 A 
ATOM     33  H   UNL     1      42.277   4.246  11.955  0.00  0.00    +0.000 HD
ENDBRANCH  20  23
ENDBRANCH   1  19
BRANCH   1  34
ATOM     34  N   UNL     1      46.704   3.777  17.900  0.00  0.00    +0.000 NA
ATOM     35  H   UNL     1      46.598   4.783  17.970  0.00  0.00    +0.000 HD
ATOM     36  H   UNL     1      47.233   3.482  18.717  0.00  0.00    +0.000 HD
ENDBRANCH   1  34
TORSDOF 7
ENDMDL
MODEL 8
REMARK VINA RESULT:    -7.419      4.208      8.748
REMARK INTER + INTRA:         -11.213
REMARK INTER:                 -10.226
REMARK INTRA:                  -0.987
REMARK UNBOUND:                -0.975
REMARK  Name = 
REMARK  7 active torsions:
REMARK  status: ('A' for Active; 'I' for Inactive)
REMARK    1  A    between atoms: N_1  and  C_2
REMARK    2  A    between atoms: C_2  and  N_3
REMARK    3  A    between atoms: C_2  and  C_16
REMARK    4  A    between atoms: C_4  and  C_6
REMARK    5  A    between atoms: C_19  and  C_20
REMARK    6  A    between atoms: C_20  and  N_21
REMARK    7  A    between atoms: C_22  and  C_24
REMARK                            x       y       z     vdW  Elec       q    Type
REMARK                         _______ _______ _______ _____ _____    ______ ____
ROOT
ATOM      1  C   UNL     1      47.452   3.412  16.437  0.00  0.00    +0.000 C 
ENDROOT
BRANCH   1   2
ATOM      2  C   UNL     1      48.840   3.773  16.930  0.00  0.00    +0.000 A 
ATOM      3  C   UNL     1      49.181   5.132  16.979  0.00  0.00    +0.000 A 
ATOM      4  C   UNL     1      50.461   5.561  17.357  0.00  0.00    +0.000 A 
ATOM      5  C   UNL     1      51.457   4.629  17.677  0.00  0.00    +0.000 A 
ATOM      6  C   UNL     1      51.111   3.273  17.667  0.00  0.00    +0.000 A 
ATOM      7  C   UNL     1      49.827   2.845  17.294  0.00  0.00    +0.000 A 
BRANCH   5   8
ATOM      8  C   UNL     1      52.880   5.038  17.984  0.00  0.00    +0.000 C 
BRANCH   8   9
ATOM      9  N   UNL     1      53.483   5.883  16.973  0.00  0.00    +0.000 N 
ATOM     10  C   UNL     1      54.623   5.477  16.303  0.00  0.00    +0.000 C 
ATOM     11  O   UNL     1      55.212   4.437  16.544  0.00  0.00    +0.000 OA
ATOM     12  H   UNL     1      53.010   6.724  16.688  0.00  0.00    +0.000 HD
BRANCH  10  13
ATOM     13  C   UNL     1      55.081   6.491  15.249  0.00  0.00    +0.000 C 
ATOM     14  C   UNL     1      53.980   7.523  14.975  0.00  0.00    +0.000 C 
ATOM     15  C   UNL     1      54.340   8.417  13.802  0.00  0.00    +0.000 C 
ATOM     16  O   UNL     1      54.650   7.641  12.648  0.00  0.00    +0.000 OA
ATOM     17  C   UNL     1      55.774   6.787  12.853  0.00  0.00    +0.000 C 
ATOM     18  C   UNL     1      55.480   5.780  13.953  0.00  0.00    +0.000 C 
ENDBRANCH  10  13
ENDBRANCH   8   9
ENDBRANCH   5   8
ENDBRANCH   1   2
BRANCH   1  19
ATOM     19  N   UNL     1      46.838   4.366  15.583  0.00  0.00    +0.000 N 
ATOM     20  C   UNL     1      46.874   4.240  14.218  0.00  0.00    +0.000 C 
ATOM     21  O   UNL     1      47.455   3.326  13.644  0.00  0.00    +0.000 OA
ATOM     22  H   UNL     1      46.726   5.306  15.951  0.00  0.00    +0.000 HD
BRANCH  20  23
ATOM     23  C   UNL     1      46.099   5.232  13.465  0.00  0.00    +0.000 A 
ATOM     24  C   UNL     1      46.539   6.544  13.388  0.00  0.00    +0.000 A 
ATOM     25  S   UNL     1      45.514   7.548  12.460  0.00  0.00    +0.000 S 
ATOM     26  C   UNL     1      44.434   6.266  12.166  0.00  0.00    +0.000 A 
ATOM     27  N   UNL     1      43.294   6.453  11.455  0.00  0.00    +0.000 NA
ATOM     28  C   UNL     1      42.548   5.399  11.353  0.00  0.00    +0.000 A 
ATOM     29  N   UNL     1      42.852   4.173  11.887  0.00  0.00    +0.000 N 
ATOM     30  C   UNL     1      44.024   3.915  12.551  0.00  0.00    +0.000 A 
ATOM     31  O   UNL     1      44.320   2.792  12.937  0.00  0.00    +0.000 OA
ATOM     32  C   UNL     1      44.867   5.083  12.739  0.00  0.00    +0.000 A 
ATOM     33  H   UNL     1      42.235   3.385  11.748  0.00  0.00    +0.000 HD
ENDBRANCH  20  23
ENDBRANCH   1  19
BRANCH   1  34
ATOM     34  N   UNL     1      46.532   3.275  17.545  0.00  0.00    +0.000 NA
ATOM     35  H   UNL     1      45.994   4.131  17.618  0.00  0.00    +0.000 HD
ATOM     36  H   UNL     1      47.076   3.200  18.402  0.00  0.00    +0.000 HD
ENDBRANCH   1  34
TORSDOF 7
ENDMDL
MODEL 9
REMARK VINA RESULT:    -7.049      2.652      3.623
REMARK INTER + INTRA:         -10.702
REMARK INTER:                  -9.482
REMARK INTRA:                  -1.220
REMARK UNBOUND:                -0.975
REMARK  Name = 
REMARK  7 active torsions:
REMARK  status: ('A' for Active; 'I' for Inactive)
REMARK    1  A    between atoms: N_1  and  C_2
REMARK    2  A    between atoms: C_2  and  N_3
REMARK    3  A    between atoms: C_2  and  C_16
REMARK    4  A    between atoms: C_4  and  C_6
REMARK    5  A    between atoms: C_19  and  C_20
REMARK    6  A    between atoms: C_20  and  N_21
REMARK    7  A    between atoms: C_22  and  C_24
REMARK                            x       y       z     vdW  Elec       q    Type
REMARK                         _______ _______ _______ _____ _____    ______ ____
ROOT
ATOM      1  C   UNL     1      48.552   7.222  14.427  0.00  0.00    +0.000 C 
ENDROOT
BRANCH   1   2
ATOM      2  C   UNL     1      47.370   6.834  13.560  0.00  0.00    +0.000 A 
ATOM      3  C   UNL     1      47.099   5.469  13.401  0.00  0.00    +0.000 A 
ATOM      4  C   UNL     1      46.070   5.010  12.567  0.00  0.00    +0.000 A 
ATOM      5  C   UNL     1      45.288   5.916  11.838  0.00  0.00    +0.000 A 
ATOM      6  C   UNL     1      45.530   7.283  12.022  0.00  0.00    +0.000 A 
ATOM      7  C   UNL     1      46.556   7.741  12.863  0.00  0.00    +0.000 A 
BRANCH   5   8
ATOM      8  C   UNL     1      44.242   5.467  10.844  0.00  0.00    +0.000 C 
BRANCH   8   9
ATOM      9  N   UNL     1      44.775   4.728   9.718  0.00  0.00    +0.000 N 
ATOM     10  C   UNL     1      44.468   3.392   9.542  0.00  0.00    +0.000 C 
ATOM     11  O   UNL     1      43.791   2.747  10.326  0.00  0.00    +0.000 OA
ATOM     12  H   UNL     1      45.288   5.220   9.006  0.00  0.00    +0.000 HD
BRANCH  10  13
ATOM     13  C   UNL     1      45.096   2.803   8.275  0.00  0.00    +0.000 C 
ATOM     14  C   UNL     1      45.911   1.545   8.607  0.00  0.00    +0.000 C 
ATOM     15  C   UNL     1      46.693   1.060   7.400  0.00  0.00    +0.000 C 
ATOM     16  O   UNL     1      47.505   2.102   6.867  0.00  0.00    +0.000 OA
ATOM     17  C   UNL     1      46.735   3.214   6.416  0.00  0.00    +0.000 C 
ATOM     18  C   UNL     1      45.979   3.841   7.577  0.00  0.00    +0.000 C 
ENDBRANCH  10  13
ENDBRANCH   8   9
ENDBRANCH   5   8
ENDBRANCH   1   2
BRANCH   1  19
ATOM     19  N   UNL     1      49.787   7.383  13.743  0.00  0.00    +0.000 N 
ATOM     20  C   UNL     1      50.207   8.608  13.293  0.00  0.00    +0.000 C 
ATOM     21  O   UNL     1      49.545   9.632  13.420  0.00  0.00    +0.000 OA
ATOM     22  H   UNL     1      50.150   6.570  13.256  0.00  0.00    +0.000 HD
BRANCH  20  23
ATOM     23  C   UNL     1      51.552   8.647  12.711  0.00  0.00    +0.000 A 
ATOM     24  C   UNL     1      51.724   8.996  11.381  0.00  0.00    +0.000 A 
ATOM     25  S   UNL     1      53.359   8.997  10.886  0.00  0.00    +0.000 S 
ATOM     26  C   UNL     1      53.882   8.493  12.426  0.00  0.00    +0.000 A 
ATOM     27  N   UNL     1      55.193   8.258  12.684  0.00  0.00    +0.000 NA
ATOM     28  C   UNL     1      55.434   7.836  13.884  0.00  0.00    +0.000 A 
ATOM     29  N   UNL     1      54.480   7.645  14.851  0.00  0.00    +0.000 N 
ATOM     30  C   UNL     1      53.153   7.937  14.663  0.00  0.00    +0.000 A 
ATOM     31  O   UNL     1      52.333   7.851  15.566  0.00  0.00    +0.000 OA
ATOM     32  C   UNL     1      52.827   8.361  13.312  0.00  0.00    +0.000 A 
ATOM     33  H   UNL     1      54.743   7.336  15.777  0.00  0.00    +0.000 HD
ENDBRANCH  20  23
ENDBRANCH   1  19
BRANCH   1  34
ATOM     34  N   UNL     1      48.819   6.204  15.419  0.00  0.00    +0.000 NA
ATOM     35  H   UNL     1      49.112   5.361  14.937  0.00  0.00    +0.000 HD
ATOM     36  H   UNL     1      47.943   5.981  15.888  0.00  0.00    +0.000 HD
ENDBRANCH   1  34
TORSDOF 7
ENDMDL
