MODEL 1
REMARK VINA RESULT:    -7.844      0.000      0.000
REMARK INTER + INTRA:         -11.263
REMARK INTER:                 -10.596
REMARK INTRA:                  -0.667
REMARK UNBOUND:                -0.667
REMARK  Name = 
REMARK  6 active torsions:
REMARK  status: ('A' for Active; 'I' for Inactive)
REMARK    1  A    between atoms: C_2  and  C_19
REMARK    2  A    between atoms: N_3  and  C_4
REMARK    3  A    between atoms: C_4  and  C_5
REMARK    4  A    between atoms: C_8  and  O_9
REMARK    5  A    between atoms: O_9  and  C_10
REMARK    6  A    between atoms: C_10  and  C_11
REMARK                            x       y       z     vdW  Elec       q    Type
REMARK                         _______ _______ _______ _____ _____    ______ ____
ROOT
ATOM      1  C   UNL     1      45.664   4.549  14.370  0.00  0.00    +0.000 C 
ENDROOT
BRANCH   1   2
ATOM      2  C   UNL     1      45.633   4.893  12.909  0.00  0.00    +0.000 A 
ATOM      3  C   UNL     1      46.376   5.949  12.373  0.00  0.00    +0.000 A 
ATOM      4  C   UNL     1      46.392   6.163  10.985  0.00  0.00    +0.000 A 
ATOM      5  C   UNL     1      45.668   5.290  10.171  0.00  0.00    +0.000 A 
ATOM      6  N   UNL     1      44.913   4.299  10.673  0.00  0.00    +0.000 NA
ATOM      7  C   UNL     1      44.908   4.125  12.010  0.00  0.00    +0.000 A 
BRANCH   5   8
ATOM      8  O   UNL     1      45.694   5.441   8.798  0.00  0.00    +0.000 OA
BRANCH   8   9
ATOM      9  C   UNL     1      46.720   4.627   8.161  0.00  0.00    +0.000 C 
BRANCH   9  10
ATOM     10  C   UNL     1      46.073   3.651   7.150  0.00  0.00    +0.000 C 
ATOM     11  C   UNL     1      45.195   2.586   7.830  0.00  0.00    +0.000 C 
ATOM     12  C   UNL     1      46.003   1.427   8.420  0.00  0.00    +0.000 C 
ATOM     13  C   UNL     1      47.022   0.878   7.424  0.00  0.00    +0.000 C 
ATOM     14  N   UNL     1      47.887   1.933   6.894  0.00  0.00    +0.000 NA
ATOM     15  C   UNL     1      47.101   2.971   6.226  0.00  0.00    +0.000 C 
ATOM     16  H   UNL     1      48.538   1.520   6.225  0.00  0.00    +0.000 HD
ENDBRANCH   9  10
ENDBRANCH   8   9
ENDBRANCH   5   8
ENDBRANCH   1   2
BRANCH   1  19
ATOM     17  O   UNL     1      46.420   3.544  16.835  0.00  0.00    +0.000 OA
ATOM     18  C   UNL     1      47.216   4.257  16.225  0.00  0.00    +0.000 C 
ATOM     19  N   UNL     1      46.918   4.817  15.012  0.00  0.00    +0.000 N 
ATOM     20  H   UNL     1      47.658   5.234  14.448  0.00  0.00    +0.000 HD
BRANCH  18  21
ATOM     21  C   UNL     1      48.527   4.560  16.775  0.00  0.00    +0.000 A 
ATOM     22  C   UNL     1      48.875   5.828  17.221  0.00  0.00    +0.000 A 
ATOM     23  S   UNL     1      50.440   5.878  17.912  0.00  0.00    +0.000 S 
ATOM     24  C   UNL     1      50.678   4.212  17.630  0.00  0.00    +0.000 A 
ATOM     25  N   UNL     1      51.822   3.581  18.012  0.00  0.00    +0.000 NA
ATOM     26  C   UNL     1      51.837   2.315  17.748  0.00  0.00    +0.000 A 
ATOM     27  N   UNL     1      50.834   1.613  17.136  0.00  0.00    +0.000 N 
ATOM     28  C   UNL     1      49.692   2.228  16.657  0.00  0.00    +0.000 A 
ATOM     29  O   UNL     1      48.902   1.605  15.956  0.00  0.00    +0.000 OA
ATOM     30  C   UNL     1      49.603   3.637  16.987  0.00  0.00    +0.000 A 
ATOM     31  H   UNL     1      50.926   0.647  16.908  0.00  0.00    +0.000 HD
ENDBRANCH  18  21
ENDBRANCH   1  19
TORSDOF 6
ENDMDL
MODEL 2
REMARK VINA RESULT:    -7.631      1.965      2.997
REMARK INTER + INTRA:         -10.975
REMARK INTER:                  -9.735
REMARK INTRA:                  -1.240
REMARK UNBOUND:                -0.667
REMARK  Name = 
REMARK  6 active torsions:
REMARK  status: ('A' for Active; 'I' for Inactive)
REMARK    1  A    between atoms: C_2  and  C_19
REMARK    2  A    between atoms: N_3  and  C_4
REMARK    3  A    between atoms: C_4  and  C_5
REMARK    4  A    between atoms: C_8  and  O_9
REMARK    5  A    between atoms: O_9  and  C_10
REMARK    6  A    between atoms: C_10  and  C_11
REMARK                            x       y       z     vdW  Elec       q    Type
REMARK                         _______ _______ _______ _____ _____    ______ ____
ROOT
ATOM      1  C   UNL     1      48.459   6.476  16.002  0.00  0.00    +0.000 C 
ENDROOT
BRANCH   1   2
ATOM      2  C   UNL     1      47.760   5.950  14.781  0.00  0.00    +0.000 A 
ATOM      3  C   UNL     1      47.105   4.715  14.768  0.00  0.00    +0.000 A 
ATOM      4  C   UNL     1      46.380   4.318  13.633  0.00  0.00    +0.000 A 
ATOM      5  C   UNL     1      46.322   5.188  12.543  0.00  0.00    +0.000 A 
ATOM      6  N   UNL     1      46.983   6.357  12.523  0.00  0.00    +0.000 NA
ATOM      7  C   UNL     1      47.680   6.707  13.622  0.00  0.00    +0.000 A 
BRANCH   5   8
ATOM      8  O   UNL     1      45.582   4.852  11.426  0.00  0.00    +0.000 OA
BRANCH   8   9
ATOM      9  C   UNL     1      45.208   3.445  11.400  0.00  0.00    +0.000 C 
BRANCH   9  10
ATOM     10  C   UNL     1      44.288   3.160  10.189  0.00  0.00    +0.000 C 
ATOM     11  C   UNL     1      44.744   1.941   9.370  0.00  0.00    +0.000 C 
ATOM     12  C   UNL     1      45.896   2.256   8.412  0.00  0.00    +0.000 C 
ATOM     13  C   UNL     1      45.627   3.515   7.591  0.00  0.00    +0.000 C 
ATOM     14  N   UNL     1      45.296   4.659   8.443  0.00  0.00    +0.000 NA
ATOM     15  C   UNL     1      44.117   4.380   9.263  0.00  0.00    +0.000 C 
ATOM     16  H   UNL     1      45.110   5.469   7.850  0.00  0.00    +0.000 HD
ENDBRANCH   9  10
ENDBRANCH   8   9
ENDBRANCH   5   8
ENDBRANCH   1   2
BRANCH   1  19
ATOM     17  O   UNL     1      49.184   5.752  18.572  0.00  0.00    +0.000 OA
ATOM     18  C   UNL     1      49.925   5.434  17.644  0.00  0.00    +0.000 C 
ATOM     19  N   UNL     1      49.659   5.771  16.344  0.00  0.00    +0.000 N 
ATOM     20  H   UNL     1      50.180   5.330  15.586  0.00  0.00    +0.000 HD
BRANCH  18  21
ATOM     21  C   UNL     1      51.149   4.686  17.882  0.00  0.00    +0.000 A 
ATOM     22  C   UNL     1      52.296   5.276  18.395  0.00  0.00    +0.000 A 
ATOM     23  S   UNL     1      53.553   4.147  18.671  0.00  0.00    +0.000 S 
ATOM     24  C   UNL     1      52.588   2.854  18.114  0.00  0.00    +0.000 A 
ATOM     25  N   UNL     1      53.047   1.573  18.107  0.00  0.00    +0.000 NA
ATOM     26  C   UNL     1      52.186   0.708  17.679  0.00  0.00    +0.000 A 
ATOM     27  N   UNL     1      50.917   0.987  17.248  0.00  0.00    +0.000 N 
ATOM     28  C   UNL     1      50.439   2.281  17.160  0.00  0.00    +0.000 A 
ATOM     29  O   UNL     1      49.371   2.509  16.602  0.00  0.00    +0.000 OA
ATOM     30  C   UNL     1      51.347   3.280  17.690  0.00  0.00    +0.000 A 
ATOM     31  H   UNL     1      50.317   0.284  16.875  0.00  0.00    +0.000 HD
ENDBRANCH  18  21
ENDBRANCH   1  19
TORSDOF 6
ENDMDL
MODEL 3
REMARK VINA RESULT:    -7.610      3.591      8.533
REMARK INTER + INTRA:         -10.947
REMARK INTER:                  -9.437
REMARK INTRA:                  -1.510
REMARK UNBOUND:                -0.667
REMARK  Name = 
REMARK  6 active torsions:
REMARK  status: ('A' for Active; 'I' for Inactive)
REMARK    1  A    between atoms: C_2  and  C_19
REMARK    2  A    between atoms: N_3  and  C_4
REMARK    3  A    between atoms: C_4  and  C_5
REMARK    4  A    between atoms: C_8  and  O_9
REMARK    5  A    between atoms: O_9  and  C_10
REMARK    6  A    between atoms: C_10  and  C_11
REMARK                            x       y       z     vdW  Elec       q    Type
REMARK                         _______ _______ _______ _____ _____    ______ ____
ROOT
ATOM      1  C   UNL     1      47.773   7.934  12.496  0.00  0.00    +0.000 C 
ENDROOT
BRANCH   1   2
ATOM      2  C   UNL     1      48.279   7.599  13.869  0.00  0.00    +0.000 A 
ATOM      3  C   UNL     1      48.700   8.580  14.772  0.00  0.00    +0.000 A 
ATOM      4  C   UNL     1      49.064   8.221  16.079  0.00  0.00    +0.000 A 
ATOM      5  C   UNL     1      48.978   6.878  16.448  0.00  0.00    +0.000 A 
ATOM      6  N   UNL     1      48.619   5.917  15.580  0.00  0.00    +0.000 NA
ATOM      7  C   UNL     1      48.286   6.290  14.328  0.00  0.00    +0.000 A 
BRANCH   5   8
ATOM      8  O   UNL     1      49.286   6.492  17.738  0.00  0.00    +0.000 OA
BRANCH   8   9
ATOM      9  C   UNL     1      50.250   5.401  17.785  0.00  0.00    +0.000 C 
BRANCH   9  10
ATOM     10  C   UNL     1      49.674   4.216  18.595  0.00  0.00    +0.000 C 
ATOM     11  C   UNL     1      49.703   2.891  17.814  0.00  0.00    +0.000 C 
ATOM     12  C   UNL     1      48.551   2.756  16.814  0.00  0.00    +0.000 C 
ATOM     13  C   UNL     1      47.204   3.098  17.446  0.00  0.00    +0.000 C 
ATOM     14  N   UNL     1      47.222   4.415  18.085  0.00  0.00    +0.000 NA
ATOM     15  C   UNL     1      48.251   4.482  19.124  0.00  0.00    +0.000 C 
ATOM     16  H   UNL     1      46.308   4.591  18.505  0.00  0.00    +0.000 HD
ENDBRANCH   9  10
ENDBRANCH   8   9
ENDBRANCH   5   8
ENDBRANCH   1   2
BRANCH   1  19
ATOM     17  O   UNL     1      45.120   7.799  11.722  0.00  0.00    +0.000 OA
ATOM     18  C   UNL     1      45.861   6.859  11.437  0.00  0.00    +0.000 C 
ATOM     19  N   UNL     1      47.180   6.829  11.800  0.00  0.00    +0.000 N 
ATOM     20  H   UNL     1      47.808   6.140  11.386  0.00  0.00    +0.000 HD
BRANCH  18  21
ATOM     21  C   UNL     1      45.364   5.707  10.702  0.00  0.00    +0.000 A 
ATOM     22  C   UNL     1      45.633   5.508   9.355  0.00  0.00    +0.000 A 
ATOM     23  S   UNL     1      45.015   4.022   8.770  0.00  0.00    +0.000 S 
ATOM     24  C   UNL     1      44.382   3.620  10.303  0.00  0.00    +0.000 A 
ATOM     25  N   UNL     1      43.737   2.442  10.521  0.00  0.00    +0.000 NA
ATOM     26  C   UNL     1      43.338   2.278  11.740  0.00  0.00    +0.000 A 
ATOM     27  N   UNL     1      43.509   3.169  12.765  0.00  0.00    +0.000 N 
ATOM     28  C   UNL     1      44.083   4.411  12.571  0.00  0.00    +0.000 A 
ATOM     29  O   UNL     1      44.055   5.252  13.464  0.00  0.00    +0.000 OA
ATOM     30  C   UNL     1      44.603   4.615  11.232  0.00  0.00    +0.000 A 
ATOM     31  H   UNL     1      43.129   3.011  13.673  0.00  0.00    +0.000 HD
ENDBRANCH  18  21
ENDBRANCH   1  19
TORSDOF 6
ENDMDL
MODEL 4
REMARK VINA RESULT:    -7.599      1.984      2.639
REMARK INTER + INTRA:         -10.932
REMARK INTER:                 -10.284
REMARK INTRA:                  -0.648
REMARK UNBOUND:                -0.667
REMARK  Name = 
REMARK  6 active torsions:
REMARK  status: ('A' for Active; 'I' for Inactive)
REMARK    1  A    between atoms: C_2  and  C_19
REMARK    2  A    between atoms: N_3  and  C_4
REMARK    3  A    between atoms: C_4  and  C_5
REMARK    4  A    between atoms: C_8  and  O_9
REMARK    5  A    between atoms: O_9  and  C_10
REMARK    6  A    between atoms: C_10  and  C_11
REMARK                            x       y       z     vdW  Elec       q    Type
REMARK                         _______ _______ _______ _____ _____    ______ ____
ROOT
ATOM      1  C   UNL     1      46.352   6.793  12.610  0.00  0.00    +0.000 C 
ENDROOT
BRANCH   1   2
ATOM      2  C   UNL     1      45.683   5.658  11.890  0.00  0.00    +0.000 A 
ATOM      3  C   UNL     1      45.016   5.832  10.673  0.00  0.00    +0.000 A 
ATOM      4  C   UNL     1      44.499   4.720   9.991  0.00  0.00    +0.000 A 
ATOM      5  C   UNL     1      44.684   3.454  10.548  0.00  0.00    +0.000 A 
ATOM      6  N   UNL     1      45.283   3.273  11.737  0.00  0.00    +0.000 NA
ATOM      7  C   UNL     1      45.759   4.361  12.375  0.00  0.00    +0.000 A 
BRANCH   5   8
ATOM      8  O   UNL     1      44.229   2.331   9.885  0.00  0.00    +0.000 OA
BRANCH   8   9
ATOM      9  C   UNL     1      44.656   2.286   8.493  0.00  0.00    +0.000 C 
BRANCH   9  10
ATOM     10  C   UNL     1      46.189   2.471   8.400  0.00  0.00    +0.000 C 
ATOM     11  C   UNL     1      46.592   3.646   7.494  0.00  0.00    +0.000 C 
ATOM     12  C   UNL     1      46.552   3.298   6.003  0.00  0.00    +0.000 C 
ATOM     13  C   UNL     1      47.269   1.983   5.705  0.00  0.00    +0.000 C 
ATOM     14  N   UNL     1      46.764   0.889   6.536  0.00  0.00    +0.000 NA
ATOM     15  C   UNL     1      46.925   1.191   7.959  0.00  0.00    +0.000 C 
ATOM     16  H   UNL     1      47.283   0.038   6.312  0.00  0.00    +0.000 HD
ENDBRANCH   9  10
ENDBRANCH   8   9
ENDBRANCH   5   8
ENDBRANCH   1   2
BRANCH   1  19
ATOM     17  O   UNL     1      48.981   6.564  13.440  0.00  0.00    +0.000 OA
ATOM     18  C   UNL     1      48.090   6.411  14.273  0.00  0.00    +0.000 C 
ATOM     19  N   UNL     1      46.762   6.482  13.948  0.00  0.00    +0.000 N 
ATOM     20  H   UNL     1      46.059   6.546  14.684  0.00  0.00    +0.000 HD
BRANCH  18  21
ATOM     21  C   UNL     1      48.402   6.127  15.664  0.00  0.00    +0.000 A 
ATOM     22  C   UNL     1      48.939   7.080  16.519  0.00  0.00    +0.000 A 
ATOM     23  S   UNL     1      49.111   6.507  18.123  0.00  0.00    +0.000 S 
ATOM     24  C   UNL     1      48.471   4.982  17.705  0.00  0.00    +0.000 A 
ATOM     25  N   UNL     1      48.307   3.999  18.632  0.00  0.00    +0.000 NA
ATOM     26  C   UNL     1      47.788   2.912  18.161  0.00  0.00    +0.000 A 
ATOM     27  N   UNL     1      47.422   2.699  16.859  0.00  0.00    +0.000 N 
ATOM     28  C   UNL     1      47.646   3.637  15.869  0.00  0.00    +0.000 A 
ATOM     29  O   UNL     1      47.475   3.345  14.690  0.00  0.00    +0.000 OA
ATOM     30  C   UNL     1      48.168   4.897  16.362  0.00  0.00    +0.000 A 
ATOM     31  H   UNL     1      47.078   1.818  16.543  0.00  0.00    +0.000 HD
ENDBRANCH  18  21
ENDBRANCH   1  19
TORSDOF 6
ENDMDL
MODEL 5
REMARK VINA RESULT:    -7.435      2.257      2.885
REMARK INTER + INTRA:         -10.710
REMARK INTER:                  -9.656
REMARK INTRA:                  -1.055
REMARK UNBOUND:                -0.667
REMARK  Name = 
REMARK  6 active torsions:
REMARK  status: ('A' for Active; 'I' for Inactive)
REMARK    1  A    between atoms: C_2  and  C_19
REMARK    2  A    between atoms: N_3  and  C_4
REMARK    3  A    between atoms: C_4  and  C_5
REMARK    4  A    between atoms: C_8  and  O_9
REMARK    5  A    between atoms: O_9  and  C_10
REMARK    6  A    between atoms: C_10  and  C_11
REMARK                            x       y       z     vdW  Elec       q    Type
REMARK                         _______ _______ _______ _____ _____    ______ ____
ROOT
ATOM      1  C   UNL     1      47.793   7.638  13.678  0.00  0.00    +0.000 C 
ENDROOT
BRANCH   1   2
ATOM      2  C   UNL     1      46.774   6.758  13.013  0.00  0.00    +0.000 A 
ATOM      3  C   UNL     1      46.294   7.010  11.724  0.00  0.00    +0.000 A 
ATOM      4  C   UNL     1      45.422   6.098  11.110  0.00  0.00    +0.000 A 
ATOM      5  C   UNL     1      45.068   4.943  11.809  0.00  0.00    +0.000 A 
ATOM      6  N   UNL     1      45.483   4.708  13.064  0.00  0.00    +0.000 NA
ATOM      7  C   UNL     1      46.311   5.607  13.633  0.00  0.00    +0.000 A 
BRANCH   5   8
ATOM      8  O   UNL     1      44.246   4.001  11.221  0.00  0.00    +0.000 OA
BRANCH   8   9
ATOM      9  C   UNL     1      44.988   2.895  10.633  0.00  0.00    +0.000 C 
BRANCH   9  10
ATOM     10  C   UNL     1      44.499   2.633   9.188  0.00  0.00    +0.000 C 
ATOM     11  C   UNL     1      45.275   1.501   8.493  0.00  0.00    +0.000 C 
ATOM     12  C   UNL     1      46.632   1.950   7.945  0.00  0.00    +0.000 C 
ATOM     13  C   UNL     1      46.522   3.241   7.137  0.00  0.00    +0.000 C 
ATOM     14  N   UNL     1      45.862   4.303   7.898  0.00  0.00    +0.000 NA
ATOM     15  C   UNL     1      44.516   3.898   8.308  0.00  0.00    +0.000 C 
ATOM     16  H   UNL     1      45.798   5.138   7.312  0.00  0.00    +0.000 HD
ENDBRANCH   9  10
ENDBRANCH   8   9
ENDBRANCH   5   8
ENDBRANCH   1   2
BRANCH   1  19
ATOM     17  O   UNL     1      50.273   7.013  14.732  0.00  0.00    +0.000 OA
ATOM     18  C   UNL     1      49.306   7.043  15.492  0.00  0.00    +0.000 C 
ATOM     19  N   UNL     1      48.039   7.319  15.054  0.00  0.00    +0.000 N 
ATOM     20  H   UNL     1      47.301   7.529  15.726  0.00  0.00    +0.000 HD
BRANCH  18  21
ATOM     21  C   UNL     1      49.456   6.770  16.912  0.00  0.00    +0.000 A 
ATOM     22  C   UNL     1      50.020   7.682  17.792  0.00  0.00    +0.000 A 
ATOM     23  S   UNL     1      49.978   7.145  19.417  0.00  0.00    +0.000 S 
ATOM     24  C   UNL     1      49.207   5.689  18.973  0.00  0.00    +0.000 A 
ATOM     25  N   UNL     1      48.847   4.761  19.901  0.00  0.00    +0.000 NA
ATOM     26  C   UNL     1      48.251   3.726  19.406  0.00  0.00    +0.000 A 
ATOM     27  N   UNL     1      47.981   3.514  18.081  0.00  0.00    +0.000 N 
ATOM     28  C   UNL     1      48.402   4.390  17.097  0.00  0.00    +0.000 A 
ATOM     29  O   UNL     1      48.306   4.082  15.914  0.00  0.00    +0.000 OA
ATOM     30  C   UNL     1      49.020   5.597  17.610  0.00  0.00    +0.000 A 
ATOM     31  H   UNL     1      47.568   2.669  17.752  0.00  0.00    +0.000 HD
ENDBRANCH  18  21
ENDBRANCH   1  19
TORSDOF 6
ENDMDL
MODEL 6
REMARK VINA RESULT:    -7.408      3.005      4.114
REMARK INTER + INTRA:         -10.674
REMARK INTER:                  -9.555
REMARK INTRA:                  -1.119
REMARK UNBOUND:                -0.667
REMARK  Name = 
REMARK  6 active torsions:
REMARK  status: ('A' for Active; 'I' for Inactive)
REMARK    1  A    between atoms: C_2  and  C_19
REMARK    2  A    between atoms: N_3  and  C_4
REMARK    3  A    between atoms: C_4  and  C_5
REMARK    4  A    between atoms: C_8  and  O_9
REMARK    5  A    between atoms: O_9  and  C_10
REMARK    6  A    between atoms: C_10  and  C_11
REMARK                            x       y       z     vdW  Elec       q    Type
REMARK                         _______ _______ _______ _____ _____    ______ ____
ROOT
ATOM      1  C   UNL     1      48.415   6.474  14.304  0.00  0.00    +0.000 C 
ENDROOT
BRANCH   1   2
ATOM      2  C   UNL     1      47.313   5.975  13.415  0.00  0.00    +0.000 A 
ATOM      3  C   UNL     1      46.984   6.599  12.208  0.00  0.00    +0.000 A 
ATOM      4  C   UNL     1      46.016   6.031  11.365  0.00  0.00    +0.000 A 
ATOM      5  C   UNL     1      45.415   4.833  11.756  0.00  0.00    +0.000 A 
ATOM      6  N   UNL     1      45.687   4.245  12.932  0.00  0.00    +0.000 NA
ATOM      7  C   UNL     1      46.612   4.819  13.727  0.00  0.00    +0.000 A 
BRANCH   5   8
ATOM      8  O   UNL     1      44.490   4.221  10.933  0.00  0.00    +0.000 OA
BRANCH   8   9
ATOM      9  C   UNL     1      44.894   2.881  10.529  0.00  0.00    +0.000 C 
BRANCH   9  10
ATOM     10  C   UNL     1      44.526   2.637   9.047  0.00  0.00    +0.000 C 
ATOM     11  C   UNL     1      45.395   1.552   8.389  0.00  0.00    +0.000 C 
ATOM     12  C   UNL     1      46.771   2.066   7.954  0.00  0.00    +0.000 C 
ATOM     13  C   UNL     1      46.670   3.371   7.168  0.00  0.00    +0.000 C 
ATOM     14  N   UNL     1      45.913   4.388   7.900  0.00  0.00    +0.000 NA
ATOM     15  C   UNL     1      44.558   3.922   8.198  0.00  0.00    +0.000 C 
ATOM     16  H   UNL     1      45.860   5.234   7.329  0.00  0.00    +0.000 HD
ENDBRANCH   9  10
ENDBRANCH   8   9
ENDBRANCH   5   8
ENDBRANCH   1   2
BRANCH   1  19
ATOM     17  O   UNL     1      50.321   6.058  16.266  0.00  0.00    +0.000 OA
ATOM     18  C   UNL     1      49.146   6.183  16.609  0.00  0.00    +0.000 C 
ATOM     19  N   UNL     1      48.134   6.368  15.706  0.00  0.00    +0.000 N 
ATOM     20  H   UNL     1      47.212   6.662  16.027  0.00  0.00    +0.000 HD
BRANCH  18  21
ATOM     21  C   UNL     1      48.762   6.127  18.011  0.00  0.00    +0.000 A 
ATOM     22  C   UNL     1      48.888   4.973  18.773  0.00  0.00    +0.000 A 
ATOM     23  S   UNL     1      48.460   5.216  20.413  0.00  0.00    +0.000 S 
ATOM     24  C   UNL     1      48.102   6.861  20.133  0.00  0.00    +0.000 A 
ATOM     25  N   UNL     1      47.697   7.683  21.139  0.00  0.00    +0.000 NA
ATOM     26  C   UNL     1      47.490   8.904  20.768  0.00  0.00    +0.000 A 
ATOM     27  N   UNL     1      47.635   9.391  19.497  0.00  0.00    +0.000 N 
ATOM     28  C   UNL     1      47.963   8.575  18.431  0.00  0.00    +0.000 A 
ATOM     29  O   UNL     1      47.907   9.005  17.283  0.00  0.00    +0.000 OA
ATOM     30  C   UNL     1      48.268   7.209  18.809  0.00  0.00    +0.000 A 
ATOM     31  H   UNL     1      47.406  10.332  19.260  0.00  0.00    +0.000 HD
ENDBRANCH  18  21
ENDBRANCH   1  19
TORSDOF 6
ENDMDL
MODEL 7
REMARK VINA RESULT:    -7.364      3.862      9.369
REMARK INTER + INTRA:         -10.614
REMARK INTER:                  -9.621
REMARK INTRA:                  -0.993
REMARK UNBOUND:                -0.667
REMARK  Name = 
REMARK  6 active torsions:
REMARK  status: ('A' for Active; 'I' for Inactive)
REMARK    1  A    between atoms: C_2  and  C_19
REMARK    2  A    between atoms: N_3  and  C_4
REMARK    3  A    between atoms: C_4  and  C_5
REMARK    4  A    between atoms: C_8  and  O_9
REMARK    5  A    between atoms: O_9  and  C_10
REMARK    6  A    between atoms: C_10  and  C_11
REMARK                            x       y       z     vdW  Elec       q    Type
REMARK                         _______ _______ _______ _____ _____    ______ ____
ROOT
ATOM      1  C   UNL     1      47.210   3.456  16.703  0.00  0.00    +0.000 C 
ENDROOT
BRANCH   1   2
ATOM      2  C   UNL     1      48.664   3.470  17.076  0.00  0.00    +0.000 A 
ATOM      3  C   UNL     1      49.445   2.309  17.089  0.00  0.00    +0.000 A 
ATOM      4  C   UNL     1      50.823   2.394  17.344  0.00  0.00    +0.000 A 
ATOM      5  C   UNL     1      51.382   3.654  17.563  0.00  0.00    +0.000 A 
ATOM      6  N   UNL     1      50.639   4.772  17.599  0.00  0.00    +0.000 NA
ATOM      7  C   UNL     1      49.317   4.660  17.362  0.00  0.00    +0.000 A 
BRANCH   5   8
ATOM      8  O   UNL     1      52.741   3.781  17.774  0.00  0.00    +0.000 OA
BRANCH   8   9
ATOM      9  C   UNL     1      53.241   2.874  18.798  0.00  0.00    +0.000 C 
BRANCH   9  10
ATOM     10  C   UNL     1      54.619   2.309  18.383  0.00  0.00    +0.000 C 
ATOM     11  C   UNL     1      54.579   1.574  17.032  0.00  0.00    +0.000 C 
ATOM     12  C   UNL     1      54.035   0.147  17.140  0.00  0.00    +0.000 C 
ATOM     13  C   UNL     1      54.699  -0.632  18.274  0.00  0.00    +0.000 C 
ATOM     14  N   UNL     1      54.612   0.084  19.548  0.00  0.00    +0.000 NA
ATOM     15  C   UNL     1      55.247   1.400  19.456  0.00  0.00    +0.000 C 
ATOM     16  H   UNL     1      55.081  -0.467  20.268  0.00  0.00    +0.000 HD
ENDBRANCH   9  10
ENDBRANCH   8   9
ENDBRANCH   5   8
ENDBRANCH   1   2
BRANCH   1  19
ATOM     17  O   UNL     1      47.173   3.200  13.948  0.00  0.00    +0.000 OA
ATOM     18  C   UNL     1      46.817   4.269  14.441  0.00  0.00    +0.000 C 
ATOM     19  N   UNL     1      46.826   4.494  15.791  0.00  0.00    +0.000 N 
ATOM     20  H   UNL     1      46.346   5.307  16.176  0.00  0.00    +0.000 HD
BRANCH  18  21
ATOM     21  C   UNL     1      46.376   5.372  13.603  0.00  0.00    +0.000 A 
ATOM     22  C   UNL     1      47.171   6.481  13.348  0.00  0.00    +0.000 A 
ATOM     23  S   UNL     1      46.446   7.577  12.251  0.00  0.00    +0.000 S 
ATOM     24  C   UNL     1      45.062   6.590  12.096  0.00  0.00    +0.000 A 
ATOM     25  N   UNL     1      44.035   6.928  11.269  0.00  0.00    +0.000 NA
ATOM     26  C   UNL     1      43.073   6.064  11.246  0.00  0.00    +0.000 A 
ATOM     27  N   UNL     1      43.023   4.902  11.967  0.00  0.00    +0.000 N 
ATOM     28  C   UNL     1      44.003   4.561  12.881  0.00  0.00    +0.000 A 
ATOM     29  O   UNL     1      43.838   3.610  13.638  0.00  0.00    +0.000 OA
ATOM     30  C   UNL     1      45.134   5.468  12.894  0.00  0.00    +0.000 A 
ATOM     31  H   UNL     1      42.227   4.302  11.951  0.00  0.00    +0.000 HD
ENDBRANCH  18  21
ENDBRANCH   1  19
TORSDOF 6
ENDMDL
MODEL 8
REMARK VINA RESULT:    -7.162      3.368      4.406
REMARK INTER + INTRA:         -10.341
REMARK INTER:                  -8.881
REMARK INTRA:                  -1.460
REMARK UNBOUND:                -0.667
REMARK  Name = 
REMARK  6 active torsions:
REMARK  status: ('A' for Active; 'I' for Inactive)
REMARK    1  A    between atoms: C_2  and  C_19
REMARK    2  A    between atoms: N_3  and  C_4
REMARK    3  A    between atoms: C_4  and  C_5
REMARK    4  A    between atoms: C_8  and  O_9
REMARK    5  A    between atoms: O_9  and  C_10
REMARK    6  A    between atoms: C_10  and  C_11
REMARK                            x       y       z     vdW  Elec       q    Type
REMARK                         _______ _______ _______ _____ _____    ______ ____
ROOT
ATOM      1  C   UNL     1      49.893   8.106  14.266  0.00  0.00    +0.000 C 
ENDROOT
BRANCH   1   2
ATOM      2  C   UNL     1      48.660   8.061  13.410  0.00  0.00    +0.000 A 
ATOM      3  C   UNL     1      48.557   7.231  12.289  0.00  0.00    +0.000 A 
ATOM      4  C   UNL     1      47.346   7.150  11.585  0.00  0.00    +0.000 A 
ATOM      5  C   UNL     1      46.261   7.900  12.042  0.00  0.00    +0.000 A 
ATOM      6  N   UNL     1      46.356   8.736  13.089  0.00  0.00    +0.000 NA
ATOM      7  C   UNL     1      47.535   8.801  13.739  0.00  0.00    +0.000 A 
BRANCH   5   8
ATOM      8  O   UNL     1      45.040   7.814  11.401  0.00  0.00    +0.000 OA
BRANCH   8   9
ATOM      9  C   UNL     1      44.643   6.439  11.127  0.00  0.00    +0.000 C 
BRANCH   9  10
ATOM     10  C   UNL     1      44.118   5.769  12.419  0.00  0.00    +0.000 C 
ATOM     11  C   UNL     1      45.079   4.701  12.967  0.00  0.00    +0.000 C 
ATOM     12  C   UNL     1      44.970   3.360  12.236  0.00  0.00    +0.000 C 
ATOM     13  C   UNL     1      43.519   2.905  12.095  0.00  0.00    +0.000 C 
ATOM     14  N   UNL     1      42.684   3.935  11.475  0.00  0.00    +0.000 NA
ATOM     15  C   UNL     1      42.707   5.171  12.258  0.00  0.00    +0.000 C 
ATOM     16  H   UNL     1      41.725   3.591  11.416  0.00  0.00    +0.000 HD
ENDBRANCH   9  10
ENDBRANCH   8   9
ENDBRANCH   5   8
ENDBRANCH   1   2
BRANCH   1  19
ATOM     17  O   UNL     1      48.995   8.425  16.864  0.00  0.00    +0.000 OA
ATOM     18  C   UNL     1      49.455   7.333  16.534  0.00  0.00    +0.000 C 
ATOM     19  N   UNL     1      49.944   7.092  15.278  0.00  0.00    +0.000 N 
ATOM     20  H   UNL     1      50.133   6.135  14.980  0.00  0.00    +0.000 HD
BRANCH  18  21
ATOM     21  C   UNL     1      49.518   6.228  17.477  0.00  0.00    +0.000 A 
ATOM     22  C   UNL     1      50.303   6.267  18.622  0.00  0.00    +0.000 A 
ATOM     23  S   UNL     1      50.110   4.879  19.604  0.00  0.00    +0.000 S 
ATOM     24  C   UNL     1      48.975   4.204  18.521  0.00  0.00    +0.000 A 
ATOM     25  N   UNL     1      48.374   3.010  18.772  0.00  0.00    +0.000 NA
ATOM     26  C   UNL     1      47.522   2.650  17.868  0.00  0.00    +0.000 A 
ATOM     27  N   UNL     1      47.213   3.352  16.735  0.00  0.00    +0.000 N 
ATOM     28  C   UNL     1      47.859   4.527  16.399  0.00  0.00    +0.000 A 
ATOM     29  O   UNL     1      47.689   5.032  15.294  0.00  0.00    +0.000 OA
ATOM     30  C   UNL     1      48.777   5.003  17.415  0.00  0.00    +0.000 A 
ATOM     31  H   UNL     1      46.588   2.996  16.044  0.00  0.00    +0.000 HD
ENDBRANCH  18  21
ENDBRANCH   1  19
TORSDOF 6
ENDMDL
MODEL 9
REMARK VINA RESULT:    -7.059      2.429      3.346
REMARK INTER + INTRA:         -10.202
REMARK INTER:                  -9.313
REMARK INTRA:                  -0.889
REMARK UNBOUND:                -0.667
REMARK  Name = 
REMARK  6 active torsions:
REMARK  status: ('A' for Active; 'I' for Inactive)
REMARK    1  A    between atoms: C_2  and  C_19
REMARK    2  A    between atoms: N_3  and  C_4
REMARK    3  A    between atoms: C_4  and  C_5
REMARK    4  A    between atoms: C_8  and  O_9
REMARK    5  A    between atoms: O_9  and  C_10
REMARK    6  A    between atoms: C_10  and  C_11
REMARK                            x       y       z     vdW  Elec       q    Type
REMARK                         _______ _______ _______ _____ _____    ______ ____
ROOT
ATOM      1  C   UNL     1      47.117   4.324  15.018  0.00  0.00    +0.000 C 
ENDROOT
BRANCH   1   2
ATOM      2  C   UNL     1      46.471   4.619  13.695  0.00  0.00    +0.000 A 
ATOM      3  C   UNL     1      46.633   5.844  13.039  0.00  0.00    +0.000 A 
ATOM      4  C   UNL     1      46.093   6.030  11.757  0.00  0.00    +0.000 A 
ATOM      5  C   UNL     1      45.415   4.966  11.161  0.00  0.00    +0.000 A 
ATOM      6  N   UNL     1      45.211   3.799  11.795  0.00  0.00    +0.000 NA
ATOM      7  C   UNL     1      45.731   3.653  13.030  0.00  0.00    +0.000 A 
BRANCH   5   8
ATOM      8  O   UNL     1      44.907   5.096   9.883  0.00  0.00    +0.000 OA
BRANCH   8   9
ATOM      9  C   UNL     1      45.916   4.892   8.852  0.00  0.00    +0.000 C 
BRANCH   9  10
ATOM     10  C   UNL     1      45.370   3.954   7.750  0.00  0.00    +0.000 C 
ATOM     11  C   UNL     1      44.671   2.709   8.322  0.00  0.00    +0.000 C 
ATOM     12  C   UNL     1      45.650   1.615   8.757  0.00  0.00    +0.000 C 
ATOM     13  C   UNL     1      46.696   1.326   7.682  0.00  0.00    +0.000 C 
ATOM     14  N   UNL     1      47.389   2.543   7.258  0.00  0.00    +0.000 NA
ATOM     15  C   UNL     1      46.445   3.530   6.731  0.00  0.00    +0.000 C 
ATOM     16  H   UNL     1      48.064   2.302   6.531  0.00  0.00    +0.000 HD
ENDBRANCH   9  10
ENDBRANCH   8   9
ENDBRANCH   5   8
ENDBRANCH   1   2
BRANCH   1  19
ATOM     17  O   UNL     1      49.278   4.280  16.745  0.00  0.00    +0.000 OA
ATOM     18  C   UNL     1      48.745   5.361  16.503  0.00  0.00    +0.000 C 
ATOM     19  N   UNL     1      47.656   5.475  15.680  0.00  0.00    +0.000 N 
ATOM     20  H   UNL     1      47.363   6.393  15.346  0.00  0.00    +0.000 HD
BRANCH  18  21
ATOM     21  C   UNL     1      49.239   6.593  17.097  0.00  0.00    +0.000 A 
ATOM     22  C   UNL     1      50.272   7.331  16.535  0.00  0.00    +0.000 A 
ATOM     23  S   UNL     1      50.582   8.786  17.382  0.00  0.00    +0.000 S 
ATOM     24  C   UNL     1      49.344   8.456  18.509  0.00  0.00    +0.000 A 
ATOM     25  N   UNL     1      49.044   9.325  19.513  0.00  0.00    +0.000 NA
ATOM     26  C   UNL     1      48.066   8.941  20.267  0.00  0.00    +0.000 A 
ATOM     27  N   UNL     1      47.359   7.777  20.130  0.00  0.00    +0.000 N 
ATOM     28  C   UNL     1      47.682   6.829  19.178  0.00  0.00    +0.000 A 
ATOM     29  O   UNL     1      47.150   5.724  19.200  0.00  0.00    +0.000 OA
ATOM     30  C   UNL     1      48.733   7.244  18.268  0.00  0.00    +0.000 A 
ATOM     31  H   UNL     1      46.650   7.508  20.777  0.00  0.00    +0.000 HD
ENDBRANCH  18  21
ENDBRANCH   1  19
TORSDOF 6
ENDMDL
