MODEL 1
REMARK VINA RESULT:    -8.613      0.000      0.000
REMARK INTER + INTRA:         -13.283
REMARK INTER:                 -12.138
REMARK INTRA:                  -1.145
REMARK UNBOUND:                -1.145
REMARK  Name = 
REMARK  7 active torsions:
REMARK  status: ('A' for Active; 'I' for Inactive)
REMARK    1  A    between atoms: C_2  and  C_21
REMARK    2  A    between atoms: N_3  and  C_4
REMARK    3  A    between atoms: C_4  and  C_5
REMARK    4  A    between atoms: C_8  and  C_9
REMARK    5  A    between atoms: C_9  and  N_10
REMARK    6  A    between atoms: N_10  and  C_11
REMARK    7  A    between atoms: C_11  and  C_12
REMARK                            x       y       z     vdW  Elec       q    Type
REMARK                         _______ _______ _______ _____ _____    ______ ____
ROOT
ATOM      1  C   UNL     1      45.246   7.323  12.520  0.00  0.00    +0.000 C 
ATOM      2  C   UNL     1      44.962   7.169  11.012  0.00  0.00    +0.000 C 
ATOM      3  C   UNL     1      45.616   5.928  10.402  0.00  0.00    +0.000 C 
ATOM      4  C   UNL     1      45.269   4.634  11.161  0.00  0.00    +0.000 C 
ATOM      5  C   UNL     1      45.565   4.790  12.659  0.00  0.00    +0.000 C 
ATOM      6  C   UNL     1      44.889   6.025  13.260  0.00  0.00    +0.000 C 
ENDROOT
BRANCH   1   7
ATOM      7  C   UNL     1      46.696   7.741  12.810  0.00  0.00    +0.000 C 
BRANCH   7  10
ATOM      8  O   UNL     1      49.043   6.207  13.475  0.00  0.00    +0.000 OA
ATOM      9  C   UNL     1      48.282   6.590  14.356  0.00  0.00    +0.000 C 
ATOM     10  N   UNL     1      47.135   7.296  14.110  0.00  0.00    +0.000 N 
ATOM     11  H   UNL     1      46.632   7.695  14.892  0.00  0.00    +0.000 HD
BRANCH   9  12
ATOM     12  C   UNL     1      48.516   6.290  15.775  0.00  0.00    +0.000 A 
ATOM     13  C   UNL     1      49.069   7.236  16.628  0.00  0.00    +0.000 A 
ATOM     14  S   UNL     1      49.261   6.667  18.228  0.00  0.00    +0.000 S 
ATOM     15  C   UNL     1      48.572   5.160  17.839  0.00  0.00    +0.000 A 
ATOM     16  N   UNL     1      48.403   4.197  18.784  0.00  0.00    +0.000 NA
ATOM     17  C   UNL     1      47.839   3.116  18.350  0.00  0.00    +0.000 A 
ATOM     18  N   UNL     1      47.445   2.906  17.053  0.00  0.00    +0.000 N 
ATOM     19  C   UNL     1      47.660   3.814  16.054  0.00  0.00    +0.000 A 
ATOM     20  O   UNL     1      47.425   3.530  14.889  0.00  0.00    +0.000 OA
ATOM     21  C   UNL     1      48.241   5.076  16.501  0.00  0.00    +0.000 A 
ATOM     22  H   UNL     1      47.052   2.024  16.766  0.00  0.00    +0.000 HD
ENDBRANCH   9  12
ENDBRANCH   7  10
ENDBRANCH   1   7
BRANCH   4  23
ATOM     23  C   UNL     1      43.805   4.195  10.967  0.00  0.00    +0.000 C 
BRANCH  23  24
ATOM     24  N   UNL     1      43.652   3.466   9.715  0.00  0.00    +0.000 NA
ATOM     25  H   UNL     1      43.897   4.067   8.929  0.00  0.00    +0.000 HD
BRANCH  24  26
ATOM     26  C   UNL     1      44.497   2.280   9.702  0.00  0.00    +0.000 C 
BRANCH  26  27
ATOM     27  C   UNL     1      45.432   2.319   8.520  0.00  0.00    +0.000 A 
ATOM     28  C   UNL     1      45.514   3.457   7.708  0.00  0.00    +0.000 A 
ATOM     29  C   UNL     1      46.367   3.470   6.602  0.00  0.00    +0.000 A 
ATOM     30  C   UNL     1      47.139   2.348   6.309  0.00  0.00    +0.000 A 
ATOM     31 CL   UNL     1      48.178   2.363   4.936  0.00  0.00    +0.000 Cl
ATOM     32  C   UNL     1      47.075   1.214   7.114  0.00  0.00    +0.000 A 
ATOM     33  C   UNL     1      46.222   1.199   8.217  0.00  0.00    +0.000 A 
ENDBRANCH  26  27
ENDBRANCH  24  26
ENDBRANCH  23  24
ENDBRANCH   4  23
TORSDOF 7
ENDMDL
MODEL 2
REMARK VINA RESULT:    -8.545      2.325      3.013
REMARK INTER + INTRA:         -13.186
REMARK INTER:                 -12.681
REMARK INTRA:                  -0.505
REMARK UNBOUND:                -1.145
REMARK  Name = 
REMARK  7 active torsions:
REMARK  status: ('A' for Active; 'I' for Inactive)
REMARK    1  A    between atoms: C_2  and  C_21
REMARK    2  A    between atoms: N_3  and  C_4
REMARK    3  A    between atoms: C_4  and  C_5
REMARK    4  A    between atoms: C_8  and  C_9
REMARK    5  A    between atoms: C_9  and  N_10
REMARK    6  A    between atoms: N_10  and  C_11
REMARK    7  A    between atoms: C_11  and  C_12
REMARK                            x       y       z     vdW  Elec       q    Type
REMARK                         _______ _______ _______ _____ _____    ______ ____
ROOT
ATOM      1  C   UNL     1      47.140   4.493  13.750  0.00  0.00    +0.000 C 
ATOM      2  C   UNL     1      46.036   3.596  13.156  0.00  0.00    +0.000 C 
ATOM      3  C   UNL     1      44.689   4.310  13.023  0.00  0.00    +0.000 C 
ATOM      4  C   UNL     1      44.790   5.640  12.254  0.00  0.00    +0.000 C 
ATOM      5  C   UNL     1      45.883   6.532  12.859  0.00  0.00    +0.000 C 
ATOM      6  C   UNL     1      47.228   5.811  12.967  0.00  0.00    +0.000 C 
ENDROOT
BRANCH   1   7
ATOM      7  C   UNL     1      46.945   4.756  15.253  0.00  0.00    +0.000 C 
BRANCH   7  10
ATOM      8  O   UNL     1      47.306   4.561  18.104  0.00  0.00    +0.000 OA
ATOM      9  C   UNL     1      48.270   4.488  17.351  0.00  0.00    +0.000 C 
ATOM     10  N   UNL     1      48.174   4.602  15.989  0.00  0.00    +0.000 N 
ATOM     11  H   UNL     1      48.989   4.394  15.426  0.00  0.00    +0.000 HD
BRANCH   9  12
ATOM     12  C   UNL     1      49.639   4.303  17.849  0.00  0.00    +0.000 A 
ATOM     13  C   UNL     1      50.252   5.265  18.641  0.00  0.00    +0.000 A 
ATOM     14  S   UNL     1      51.845   4.846  19.095  0.00  0.00    +0.000 S 
ATOM     15  C   UNL     1      51.746   3.351  18.288  0.00  0.00    +0.000 A 
ATOM     16  N   UNL     1      52.780   2.468  18.311  0.00  0.00    +0.000 NA
ATOM     17  C   UNL     1      52.551   1.361  17.679  0.00  0.00    +0.000 A 
ATOM     18  N   UNL     1      51.390   1.067  17.014  0.00  0.00    +0.000 N 
ATOM     19  C   UNL     1      50.352   1.951  16.901  0.00  0.00    +0.000 A 
ATOM     20  O   UNL     1      49.397   1.705  16.180  0.00  0.00    +0.000 OA
ATOM     21  C   UNL     1      50.535   3.193  17.645  0.00  0.00    +0.000 A 
ATOM     22  H   UNL     1      51.288   0.206  16.502  0.00  0.00    +0.000 HD
ENDBRANCH   9  12
ENDBRANCH   7  10
ENDBRANCH   1   7
BRANCH   4  23
ATOM     23  C   UNL     1      45.054   5.448  10.749  0.00  0.00    +0.000 C 
BRANCH  23  24
ATOM     24  N   UNL     1      43.898   4.845  10.100  0.00  0.00    +0.000 NA
ATOM     25  H   UNL     1      43.758   5.261   9.180  0.00  0.00    +0.000 HD
BRANCH  24  26
ATOM     26  C   UNL     1      44.077   3.406   9.961  0.00  0.00    +0.000 C 
BRANCH  26  27
ATOM     27  C   UNL     1      45.091   3.108   8.886  0.00  0.00    +0.000 A 
ATOM     28  C   UNL     1      45.474   4.095   7.969  0.00  0.00    +0.000 A 
ATOM     29  C   UNL     1      46.397   3.798   6.963  0.00  0.00    +0.000 A 
ATOM     30  C   UNL     1      46.939   2.517   6.876  0.00  0.00    +0.000 A 
ATOM     31 CL   UNL     1      48.066   2.152   5.627  0.00  0.00    +0.000 Cl
ATOM     32  C   UNL     1      46.575   1.530   7.788  0.00  0.00    +0.000 A 
ATOM     33  C   UNL     1      45.652   1.825   8.791  0.00  0.00    +0.000 A 
ENDBRANCH  26  27
ENDBRANCH  24  26
ENDBRANCH  23  24
ENDBRANCH   4  23
TORSDOF 7
ENDMDL
MODEL 3
REMARK VINA RESULT:    -7.755      1.747      2.321
REMARK INTER + INTRA:         -12.073
REMARK INTER:                 -10.844
REMARK INTRA:                  -1.230
REMARK UNBOUND:                -1.145
REMARK  Name = 
REMARK  7 active torsions:
REMARK  status: ('A' for Active; 'I' for Inactive)
REMARK    1  A    between atoms: C_2  and  C_21
REMARK    2  A    between atoms: N_3  and  C_4
REMARK    3  A    between atoms: C_4  and  C_5
REMARK    4  A    between atoms: C_8  and  C_9
REMARK    5  A    between atoms: C_9  and  N_10
REMARK    6  A    between atoms: N_10  and  C_11
REMARK    7  A    between atoms: C_11  and  C_12
REMARK                            x       y       z     vdW  Elec       q    Type
REMARK                         _______ _______ _______ _____ _____    ______ ____
ROOT
ATOM      1  C   UNL     1      47.218   6.670  12.297  0.00  0.00    +0.000 C 
ATOM      2  C   UNL     1      47.031   5.495  13.277  0.00  0.00    +0.000 C 
ATOM      3  C   UNL     1      45.563   5.212  13.602  0.00  0.00    +0.000 C 
ATOM      4  C   UNL     1      44.697   5.020  12.343  0.00  0.00    +0.000 C 
ATOM      5  C   UNL     1      44.879   6.199  11.377  0.00  0.00    +0.000 C 
ATOM      6  C   UNL     1      46.351   6.458  11.046  0.00  0.00    +0.000 C 
ENDROOT
BRANCH   1   7
ATOM      7  C   UNL     1      46.926   8.034  12.944  0.00  0.00    +0.000 C 
BRANCH   7  10
ATOM      8  O   UNL     1      48.703   9.880  14.262  0.00  0.00    +0.000 OA
ATOM      9  C   UNL     1      48.146   8.993  14.899  0.00  0.00    +0.000 C 
ATOM     10  N   UNL     1      47.314   8.065  14.332  0.00  0.00    +0.000 N 
ATOM     11  H   UNL     1      46.785   7.451  14.939  0.00  0.00    +0.000 HD
BRANCH   9  12
ATOM     12  C   UNL     1      48.351   8.821  16.343  0.00  0.00    +0.000 A 
ATOM     13  C   UNL     1      47.954   9.797  17.247  0.00  0.00    +0.000 A 
ATOM     14  S   UNL     1      48.302   9.391  18.870  0.00  0.00    +0.000 S 
ATOM     15  C   UNL     1      48.949   7.884  18.417  0.00  0.00    +0.000 A 
ATOM     16  N   UNL     1      49.407   7.004  19.348  0.00  0.00    +0.000 NA
ATOM     17  C   UNL     1      49.843   5.887  18.860  0.00  0.00    +0.000 A 
ATOM     18  N   UNL     1      49.877   5.579  17.525  0.00  0.00    +0.000 N 
ATOM     19  C   UNL     1      49.496   6.457  16.548  0.00  0.00    +0.000 A 
ATOM     20  O   UNL     1      49.677   6.197  15.368  0.00  0.00    +0.000 OA
ATOM     21  C   UNL     1      48.942   7.711  17.047  0.00  0.00    +0.000 A 
ATOM     22  H   UNL     1      50.270   4.710  17.202  0.00  0.00    +0.000 HD
ENDBRANCH   9  12
ENDBRANCH   7  10
ENDBRANCH   1   7
BRANCH   4  23
ATOM     23  C   UNL     1      44.989   3.699  11.607  0.00  0.00    +0.000 C 
BRANCH  23  24
ATOM     24  N   UNL     1      44.184   3.598  10.397  0.00  0.00    +0.000 NA
ATOM     25  H   UNL     1      44.471   4.310   9.727  0.00  0.00    +0.000 HD
BRANCH  24  26
ATOM     26  C   UNL     1      44.322   2.279   9.795  0.00  0.00    +0.000 C 
BRANCH  26  27
ATOM     27  C   UNL     1      45.289   2.332   8.640  0.00  0.00    +0.000 A 
ATOM     28  C   UNL     1      45.436   3.500   7.881  0.00  0.00    +0.000 A 
ATOM     29  C   UNL     1      46.320   3.527   6.799  0.00  0.00    +0.000 A 
ATOM     30  C   UNL     1      47.056   2.389   6.477  0.00  0.00    +0.000 A 
ATOM     31 CL   UNL     1      48.132   2.423   5.133  0.00  0.00    +0.000 Cl
ATOM     32  C   UNL     1      46.927   1.225   7.229  0.00  0.00    +0.000 A 
ATOM     33  C   UNL     1      46.045   1.196   8.308  0.00  0.00    +0.000 A 
ENDBRANCH  26  27
ENDBRANCH  24  26
ENDBRANCH  23  24
ENDBRANCH   4  23
TORSDOF 7
ENDMDL
MODEL 4
REMARK VINA RESULT:    -7.430      2.215      3.279
REMARK INTER + INTRA:         -11.616
REMARK INTER:                 -11.265
REMARK INTRA:                  -0.351
REMARK UNBOUND:                -1.145
REMARK  Name = 
REMARK  7 active torsions:
REMARK  status: ('A' for Active; 'I' for Inactive)
REMARK    1  A    between atoms: C_2  and  C_21
REMARK    2  A    between atoms: N_3  and  C_4
REMARK    3  A    between atoms: C_4  and  C_5
REMARK    4  A    between atoms: C_8  and  C_9
REMARK    5  A    between atoms: C_9  and  N_10
REMARK    6  A    between atoms: N_10  and  C_11
REMARK    7  A    between atoms: C_11  and  C_12
REMARK                            x       y       z     vdW  Elec       q    Type
REMARK                         _______ _______ _______ _____ _____    ______ ____
ROOT
ATOM      1  C   UNL     1      47.007   4.412  13.641  0.00  0.00    +0.000 C 
ATOM      2  C   UNL     1      46.025   3.468  12.918  0.00  0.00    +0.000 C 
ATOM      3  C   UNL     1      44.604   4.030  12.834  0.00  0.00    +0.000 C 
ATOM      4  C   UNL     1      44.555   5.445  12.227  0.00  0.00    +0.000 C 
ATOM      5  C   UNL     1      45.526   6.381  12.960  0.00  0.00    +0.000 C 
ATOM      6  C   UNL     1      46.947   5.815  13.019  0.00  0.00    +0.000 C 
ENDROOT
BRANCH   1   7
ATOM      7  C   UNL     1      46.764   4.471  15.158  0.00  0.00    +0.000 C 
BRANCH   7  10
ATOM      8  O   UNL     1      47.362   2.635  17.296  0.00  0.00    +0.000 OA
ATOM      9  C   UNL     1      48.215   3.419  16.895  0.00  0.00    +0.000 C 
ATOM     10  N   UNL     1      47.990   4.337  15.905  0.00  0.00    +0.000 N 
ATOM     11  H   UNL     1      48.777   4.854  15.533  0.00  0.00    +0.000 HD
BRANCH   9  12
ATOM     12  C   UNL     1      49.564   3.468  17.473  0.00  0.00    +0.000 A 
ATOM     13  C   UNL     1      50.480   2.449  17.252  0.00  0.00    +0.000 A 
ATOM     14  S   UNL     1      51.979   2.711  18.029  0.00  0.00    +0.000 S 
ATOM     15  C   UNL     1      51.465   4.212  18.644  0.00  0.00    +0.000 A 
ATOM     16  N   UNL     1      52.297   4.992  19.384  0.00  0.00    +0.000 NA
ATOM     17  C   UNL     1      51.781   6.119  19.759  0.00  0.00    +0.000 A 
ATOM     18  N   UNL     1      50.504   6.526  19.473  0.00  0.00    +0.000 N 
ATOM     19  C   UNL     1      49.608   5.747  18.795  0.00  0.00    +0.000 A 
ATOM     20  O   UNL     1      48.439   6.086  18.688  0.00  0.00    +0.000 OA
ATOM     21  C   UNL     1      50.157   4.489  18.300  0.00  0.00    +0.000 A 
ATOM     22  H   UNL     1      50.143   7.396  19.831  0.00  0.00    +0.000 HD
ENDBRANCH   9  12
ENDBRANCH   7  10
ENDBRANCH   1   7
BRANCH   4  23
ATOM     23  C   UNL     1      44.858   5.464  10.717  0.00  0.00    +0.000 C 
BRANCH  23  24
ATOM     24  N   UNL     1      43.794   4.806   9.973  0.00  0.00    +0.000 NA
ATOM     25  H   UNL     1      43.741   5.186   9.029  0.00  0.00    +0.000 HD
BRANCH  24  26
ATOM     26  C   UNL     1      44.025   3.369   9.906  0.00  0.00    +0.000 C 
BRANCH  26  27
ATOM     27  C   UNL     1      45.059   3.055   8.855  0.00  0.00    +0.000 A 
ATOM     28  C   UNL     1      45.484   4.039   7.953  0.00  0.00    +0.000 A 
ATOM     29  C   UNL     1      46.427   3.727   6.970  0.00  0.00    +0.000 A 
ATOM     30  C   UNL     1      46.944   2.437   6.889  0.00  0.00    +0.000 A 
ATOM     31 CL   UNL     1      48.094   2.054   5.666  0.00  0.00    +0.000 Cl
ATOM     32  C   UNL     1      46.537   1.453   7.786  0.00  0.00    +0.000 A 
ATOM     33  C   UNL     1      45.596   1.762   8.767  0.00  0.00    +0.000 A 
ENDBRANCH  26  27
ENDBRANCH  24  26
ENDBRANCH  23  24
ENDBRANCH   4  23
TORSDOF 7
ENDMDL
MODEL 5
REMARK VINA RESULT:    -7.355      1.372      2.163
REMARK INTER + INTRA:         -11.510
REMARK INTER:                 -10.529
REMARK INTRA:                  -0.981
REMARK UNBOUND:                -1.145
REMARK  Name = 
REMARK  7 active torsions:
REMARK  status: ('A' for Active; 'I' for Inactive)
REMARK    1  A    between atoms: C_2  and  C_21
REMARK    2  A    between atoms: N_3  and  C_4
REMARK    3  A    between atoms: C_4  and  C_5
REMARK    4  A    between atoms: C_8  and  C_9
REMARK    5  A    between atoms: C_9  and  N_10
REMARK    6  A    between atoms: N_10  and  C_11
REMARK    7  A    between atoms: C_11  and  C_12
REMARK                            x       y       z     vdW  Elec       q    Type
REMARK                         _______ _______ _______ _____ _____    ______ ____
ROOT
ATOM      1  C   UNL     1      47.957   6.543  12.935  0.00  0.00    +0.000 C 
ATOM      2  C   UNL     1      47.318   5.339  13.654  0.00  0.00    +0.000 C 
ATOM      3  C   UNL     1      45.788   5.384  13.655  0.00  0.00    +0.000 C 
ATOM      4  C   UNL     1      45.193   5.564  12.246  0.00  0.00    +0.000 C 
ATOM      5  C   UNL     1      45.826   6.772  11.542  0.00  0.00    +0.000 C 
ATOM      6  C   UNL     1      47.355   6.702  11.531  0.00  0.00    +0.000 C 
ENDROOT
BRANCH   1   7
ATOM      7  C   UNL     1      47.833   7.848  13.739  0.00  0.00    +0.000 C 
BRANCH   7  10
ATOM      8  O   UNL     1      50.370   7.858  15.106  0.00  0.00    +0.000 OA
ATOM      9  C   UNL     1      49.329   7.688  15.731  0.00  0.00    +0.000 C 
ATOM     10  N   UNL     1      48.093   7.641  15.142  0.00  0.00    +0.000 N 
ATOM     11  H   UNL     1      47.272   7.636  15.735  0.00  0.00    +0.000 HD
BRANCH   9  12
ATOM     12  C   UNL     1      49.316   7.479  17.184  0.00  0.00    +0.000 A 
ATOM     13  C   UNL     1      49.475   8.541  18.065  0.00  0.00    +0.000 A 
ATOM     14  S   UNL     1      49.439   8.064  19.706  0.00  0.00    +0.000 S 
ATOM     15  C   UNL     1      49.165   6.437  19.289  0.00  0.00    +0.000 A 
ATOM     16  N   UNL     1      48.998   5.484  20.245  0.00  0.00    +0.000 NA
ATOM     17  C   UNL     1      48.768   4.297  19.781  0.00  0.00    +0.000 A 
ATOM     18  N   UNL     1      48.705   3.977  18.449  0.00  0.00    +0.000 N 
ATOM     19  C   UNL     1      48.937   4.886  17.454  0.00  0.00    +0.000 A 
ATOM     20  O   UNL     1      49.014   4.530  16.288  0.00  0.00    +0.000 OA
ATOM     21  C   UNL     1      49.145   6.252  17.921  0.00  0.00    +0.000 A 
ATOM     22  H   UNL     1      48.567   3.026  18.149  0.00  0.00    +0.000 HD
ENDBRANCH   9  12
ENDBRANCH   7  10
ENDBRANCH   1   7
BRANCH   4  23
ATOM     23  C   UNL     1      45.346   4.311  11.363  0.00  0.00    +0.000 C 
BRANCH  23  24
ATOM     24  N   UNL     1      44.258   4.229  10.399  0.00  0.00    +0.000 NA
ATOM     25  H   UNL     1      44.404   4.905   9.650  0.00  0.00    +0.000 HD
BRANCH  24  26
ATOM     26  C   UNL     1      44.170   2.889   9.834  0.00  0.00    +0.000 C 
BRANCH  26  27
ATOM     27  C   UNL     1      45.170   2.727   8.718  0.00  0.00    +0.000 A 
ATOM     28  C   UNL     1      45.836   1.510   8.523  0.00  0.00    +0.000 A 
ATOM     29  C   UNL     1      46.777   1.381   7.499  0.00  0.00    +0.000 A 
ATOM     30  C   UNL     1      47.051   2.466   6.669  0.00  0.00    +0.000 A 
ATOM     31 CL   UNL     1      48.223   2.307   5.418  0.00  0.00    +0.000 Cl
ATOM     32  C   UNL     1      46.389   3.678   6.845  0.00  0.00    +0.000 A 
ATOM     33  C   UNL     1      45.450   3.808   7.867  0.00  0.00    +0.000 A 
ENDBRANCH  26  27
ENDBRANCH  24  26
ENDBRANCH  23  24
ENDBRANCH   4  23
TORSDOF 7
ENDMDL
MODEL 6
REMARK VINA RESULT:    -7.305      2.000      2.872
REMARK INTER + INTRA:         -11.439
REMARK INTER:                 -11.061
REMARK INTRA:                  -0.378
REMARK UNBOUND:                -1.145
REMARK  Name = 
REMARK  7 active torsions:
REMARK  status: ('A' for Active; 'I' for Inactive)
REMARK    1  A    between atoms: C_2  and  C_21
REMARK    2  A    between atoms: N_3  and  C_4
REMARK    3  A    between atoms: C_4  and  C_5
REMARK    4  A    between atoms: C_8  and  C_9
REMARK    5  A    between atoms: C_9  and  N_10
REMARK    6  A    between atoms: N_10  and  C_11
REMARK    7  A    between atoms: C_11  and  C_12
REMARK                            x       y       z     vdW  Elec       q    Type
REMARK                         _______ _______ _______ _____ _____    ______ ____
ROOT
ATOM      1  C   UNL     1      48.245   7.052  12.905  0.00  0.00    +0.000 C 
ATOM      2  C   UNL     1      47.589   5.672  13.110  0.00  0.00    +0.000 C 
ATOM      3  C   UNL     1      46.069   5.747  13.268  0.00  0.00    +0.000 C 
ATOM      4  C   UNL     1      45.385   6.517  12.122  0.00  0.00    +0.000 C 
ATOM      5  C   UNL     1      46.036   7.894  11.932  0.00  0.00    +0.000 C 
ATOM      6  C   UNL     1      47.553   7.801  11.756  0.00  0.00    +0.000 C 
ENDROOT
BRANCH   1   7
ATOM      7  C   UNL     1      48.255   7.900  14.187  0.00  0.00    +0.000 C 
BRANCH   7  10
ATOM      8  O   UNL     1      50.424   6.664  15.626  0.00  0.00    +0.000 OA
ATOM      9  C   UNL     1      49.270   6.548  16.023  0.00  0.00    +0.000 C 
ATOM     10  N   UNL     1      48.190   7.082  15.373  0.00  0.00    +0.000 N 
ATOM     11  H   UNL     1      47.287   7.063  15.832  0.00  0.00    +0.000 HD
BRANCH   9  12
ATOM     12  C   UNL     1      48.933   5.783  17.231  0.00  0.00    +0.000 A 
ATOM     13  C   UNL     1      49.129   4.410  17.290  0.00  0.00    +0.000 A 
ATOM     14  S   UNL     1      48.657   3.727  18.784  0.00  0.00    +0.000 S 
ATOM     15  C   UNL     1      48.221   5.249  19.410  0.00  0.00    +0.000 A 
ATOM     16  N   UNL     1      47.762   5.382  20.683  0.00  0.00    +0.000 NA
ATOM     17  C   UNL     1      47.499   6.601  21.031  0.00  0.00    +0.000 A 
ATOM     18  N   UNL     1      47.637   7.694  20.215  0.00  0.00    +0.000 N 
ATOM     19  C   UNL     1      48.025   7.601  18.907  0.00  0.00    +0.000 A 
ATOM     20  O   UNL     1      47.997   8.580  18.176  0.00  0.00    +0.000 OA
ATOM     21  C   UNL     1      48.391   6.255  18.480  0.00  0.00    +0.000 A 
ATOM     22  H   UNL     1      47.373   8.614  20.529  0.00  0.00    +0.000 HD
ENDBRANCH   9  12
ENDBRANCH   7  10
ENDBRANCH   1   7
BRANCH   4  23
ATOM     23  C   UNL     1      45.401   5.749  10.787  0.00  0.00    +0.000 C 
BRANCH  23  24
ATOM     24  N   UNL     1      44.044   5.449  10.353  0.00  0.00    +0.000 NA
ATOM     25  H   UNL     1      43.853   5.908   9.463  0.00  0.00    +0.000 HD
BRANCH  24  26
ATOM     26  C   UNL     1      43.854   4.012  10.209  0.00  0.00    +0.000 C 
BRANCH  26  27
ATOM     27  C   UNL     1      44.838   3.453   9.213  0.00  0.00    +0.000 A 
ATOM     28  C   UNL     1      45.423   4.278   8.244  0.00  0.00    +0.000 A 
ATOM     29  C   UNL     1      46.315   3.741   7.312  0.00  0.00    +0.000 A 
ATOM     30  C   UNL     1      46.624   2.383   7.350  0.00  0.00    +0.000 A 
ATOM     31 CL   UNL     1      47.712   1.723   6.191  0.00  0.00    +0.000 Cl
ATOM     32  C   UNL     1      46.057   1.555   8.315  0.00  0.00    +0.000 A 
ATOM     33  C   UNL     1      45.165   2.089   9.244  0.00  0.00    +0.000 A 
ENDBRANCH  26  27
ENDBRANCH  24  26
ENDBRANCH  23  24
ENDBRANCH   4  23
TORSDOF 7
ENDMDL
MODEL 7
REMARK VINA RESULT:    -7.067      1.810      2.781
REMARK INTER + INTRA:         -11.104
REMARK INTER:                  -9.871
REMARK INTRA:                  -1.233
REMARK UNBOUND:                -1.145
REMARK  Name = 
REMARK  7 active torsions:
REMARK  status: ('A' for Active; 'I' for Inactive)
REMARK    1  A    between atoms: C_2  and  C_21
REMARK    2  A    between atoms: N_3  and  C_4
REMARK    3  A    between atoms: C_4  and  C_5
REMARK    4  A    between atoms: C_8  and  C_9
REMARK    5  A    between atoms: C_9  and  N_10
REMARK    6  A    between atoms: N_10  and  C_11
REMARK    7  A    between atoms: C_11  and  C_12
REMARK                            x       y       z     vdW  Elec       q    Type
REMARK                         _______ _______ _______ _____ _____    ______ ____
ROOT
ATOM      1  C   UNL     1      45.463   7.303  12.810  0.00  0.00    +0.000 C 
ATOM      2  C   UNL     1      45.109   7.173  11.315  0.00  0.00    +0.000 C 
ATOM      3  C   UNL     1      45.940   6.112  10.592  0.00  0.00    +0.000 C 
ATOM      4  C   UNL     1      45.897   4.739  11.289  0.00  0.00    +0.000 C 
ATOM      5  C   UNL     1      46.262   4.875  12.774  0.00  0.00    +0.000 C 
ATOM      6  C   UNL     1      45.409   5.926  13.488  0.00  0.00    +0.000 C 
ENDROOT
BRANCH   1   7
ATOM      7  C   UNL     1      46.825   7.978  13.040  0.00  0.00    +0.000 C 
BRANCH   7  10
ATOM      8  O   UNL     1      49.238   6.588  13.779  0.00  0.00    +0.000 OA
ATOM      9  C   UNL     1      48.512   7.072  14.640  0.00  0.00    +0.000 C 
ATOM     10  N   UNL     1      47.338   7.718  14.362  0.00  0.00    +0.000 N 
ATOM     11  H   UNL     1      46.864   8.209  15.111  0.00  0.00    +0.000 HD
BRANCH   9  12
ATOM     12  C   UNL     1      48.824   6.968  16.072  0.00  0.00    +0.000 A 
ATOM     13  C   UNL     1      48.797   5.745  16.727  0.00  0.00    +0.000 A 
ATOM     14  S   UNL     1      49.181   5.864  18.388  0.00  0.00    +0.000 S 
ATOM     15  C   UNL     1      49.437   7.542  18.270  0.00  0.00    +0.000 A 
ATOM     16  N   UNL     1      49.832   8.273  19.348  0.00  0.00    +0.000 NA
ATOM     17  C   UNL     1      50.017   9.530  19.102  0.00  0.00    +0.000 A 
ATOM     18  N   UNL     1      49.826  10.124  17.881  0.00  0.00    +0.000 N 
ATOM     19  C   UNL     1      49.361   9.446  16.788  0.00  0.00    +0.000 A 
ATOM     20  O   UNL     1      49.069  10.041  15.762  0.00  0.00    +0.000 OA
ATOM     21  C   UNL     1      49.191   8.012  16.995  0.00  0.00    +0.000 A 
ATOM     22  H   UNL     1      49.943  11.117  17.762  0.00  0.00    +0.000 HD
ENDBRANCH   9  12
ENDBRANCH   7  10
ENDBRANCH   1   7
BRANCH   4  23
ATOM     23  C   UNL     1      44.533   4.037  11.154  0.00  0.00    +0.000 C 
BRANCH  23  24
ATOM     24  N   UNL     1      44.712   2.615  10.898  0.00  0.00    +0.000 NA
ATOM     25  H   UNL     1      44.266   2.069  11.634  0.00  0.00    +0.000 HD
BRANCH  24  26
ATOM     26  C   UNL     1      44.144   2.249   9.608  0.00  0.00    +0.000 C 
BRANCH  26  27
ATOM     27  C   UNL     1      45.203   2.305   8.536  0.00  0.00    +0.000 A 
ATOM     28  C   UNL     1      45.368   3.454   7.752  0.00  0.00    +0.000 A 
ATOM     29  C   UNL     1      46.338   3.484   6.747  0.00  0.00    +0.000 A 
ATOM     30  C   UNL     1      47.143   2.368   6.528  0.00  0.00    +0.000 A 
ATOM     31 CL   UNL     1      48.327   2.404   5.278  0.00  0.00    +0.000 Cl
ATOM     32  C   UNL     1      46.996   1.224   7.307  0.00  0.00    +0.000 A 
ATOM     33  C   UNL     1      46.027   1.193   8.309  0.00  0.00    +0.000 A 
ENDBRANCH  26  27
ENDBRANCH  24  26
ENDBRANCH  23  24
ENDBRANCH   4  23
TORSDOF 7
ENDMDL
MODEL 8
REMARK VINA RESULT:    -6.782      4.025      8.486
REMARK INTER + INTRA:         -10.702
REMARK INTER:                  -8.906
REMARK INTRA:                  -1.796
REMARK UNBOUND:                -1.145
REMARK  Name = 
REMARK  7 active torsions:
REMARK  status: ('A' for Active; 'I' for Inactive)
REMARK    1  A    between atoms: C_2  and  C_21
REMARK    2  A    between atoms: N_3  and  C_4
REMARK    3  A    between atoms: C_4  and  C_5
REMARK    4  A    between atoms: C_8  and  C_9
REMARK    5  A    between atoms: C_9  and  N_10
REMARK    6  A    between atoms: N_10  and  C_11
REMARK    7  A    between atoms: C_11  and  C_12
REMARK                            x       y       z     vdW  Elec       q    Type
REMARK                         _______ _______ _______ _____ _____    ______ ____
ROOT
ATOM      1  C   UNL     1      48.090   7.731  14.055  0.00  0.00    +0.000 C 
ATOM      2  C   UNL     1      49.202   6.960  14.793  0.00  0.00    +0.000 C 
ATOM      3  C   UNL     1      50.539   7.704  14.810  0.00  0.00    +0.000 C 
ATOM      4  C   UNL     1      50.417   9.142  15.348  0.00  0.00    +0.000 C 
ATOM      5  C   UNL     1      49.316   9.907  14.600  0.00  0.00    +0.000 C 
ATOM      6  C   UNL     1      47.981   9.160  14.608  0.00  0.00    +0.000 C 
ENDROOT
BRANCH   1   7
ATOM      7  C   UNL     1      48.289   7.744  12.531  0.00  0.00    +0.000 C 
BRANCH   7  10
ATOM      8  O   UNL     1      45.529   7.897  11.720  0.00  0.00    +0.000 OA
ATOM      9  C   UNL     1      46.187   6.889  11.492  0.00  0.00    +0.000 C 
ATOM     10  N   UNL     1      47.493   6.736  11.875  0.00  0.00    +0.000 N 
ATOM     11  H   UNL     1      48.010   5.936  11.533  0.00  0.00    +0.000 HD
BRANCH   9  12
ATOM     12  C   UNL     1      45.616   5.721  10.809  0.00  0.00    +0.000 A 
ATOM     13  C   UNL     1      45.847   5.492   9.460  0.00  0.00    +0.000 A 
ATOM     14  S   UNL     1      45.076   4.084   8.874  0.00  0.00    +0.000 S 
ATOM     15  C   UNL     1      44.450   3.715  10.413  0.00  0.00    +0.000 A 
ATOM     16  N   UNL     1      43.709   2.594  10.622  0.00  0.00    +0.000 NA
ATOM     17  C   UNL     1      43.326   2.428  11.848  0.00  0.00    +0.000 A 
ATOM     18  N   UNL     1      43.602   3.291  12.877  0.00  0.00    +0.000 N 
ATOM     19  C   UNL     1      44.280   4.465  12.701  0.00  0.00    +0.000 A 
ATOM     20  O   UNL     1      44.380   5.272  13.614  0.00  0.00    +0.000 OA
ATOM     21  C   UNL     1      44.786   4.673  11.349  0.00  0.00    +0.000 A 
ATOM     22  H   UNL     1      43.237   3.130  13.802  0.00  0.00    +0.000 HD
ENDBRANCH   9  12
ENDBRANCH   7  10
ENDBRANCH   1   7
BRANCH   4  23
ATOM     23  C   UNL     1      50.147   9.198  16.863  0.00  0.00    +0.000 C 
BRANCH  23  24
ATOM     24  N   UNL     1      51.041   8.297  17.575  0.00  0.00    +0.000 NA
ATOM     25  H   UNL     1      51.900   8.784  17.829  0.00  0.00    +0.000 HD
BRANCH  24  26
ATOM     26  C   UNL     1      50.402   7.782  18.779  0.00  0.00    +0.000 C 
BRANCH  26  27
ATOM     27  C   UNL     1      49.597   6.549  18.455  0.00  0.00    +0.000 A 
ATOM     28  C   UNL     1      48.207   6.535  18.627  0.00  0.00    +0.000 A 
ATOM     29  C   UNL     1      47.477   5.378  18.345  0.00  0.00    +0.000 A 
ATOM     30  C   UNL     1      48.134   4.237  17.890  0.00  0.00    +0.000 A 
ATOM     31 CL   UNL     1      47.232   2.809  17.558  0.00  0.00    +0.000 Cl
ATOM     32  C   UNL     1      49.514   4.241  17.704  0.00  0.00    +0.000 A 
ATOM     33  C   UNL     1      50.244   5.395  17.987  0.00  0.00    +0.000 A 
ENDBRANCH  26  27
ENDBRANCH  24  26
ENDBRANCH  23  24
ENDBRANCH   4  23
TORSDOF 7
ENDMDL
MODEL 9
REMARK VINA RESULT:    -6.650      2.632      3.499
REMARK INTER + INTRA:         -10.517
REMARK INTER:                  -9.992
REMARK INTRA:                  -0.525
REMARK UNBOUND:                -1.145
REMARK  Name = 
REMARK  7 active torsions:
REMARK  status: ('A' for Active; 'I' for Inactive)
REMARK    1  A    between atoms: C_2  and  C_21
REMARK    2  A    between atoms: N_3  and  C_4
REMARK    3  A    between atoms: C_4  and  C_5
REMARK    4  A    between atoms: C_8  and  C_9
REMARK    5  A    between atoms: C_9  and  N_10
REMARK    6  A    between atoms: N_10  and  C_11
REMARK    7  A    between atoms: C_11  and  C_12
REMARK                            x       y       z     vdW  Elec       q    Type
REMARK                         _______ _______ _______ _____ _____    ______ ____
ROOT
ATOM      1  C   UNL     1      48.148   7.588  12.871  0.00  0.00    +0.000 C 
ATOM      2  C   UNL     1      48.093   6.055  12.720  0.00  0.00    +0.000 C 
ATOM      3  C   UNL     1      46.730   5.464  13.086  0.00  0.00    +0.000 C 
ATOM      4  C   UNL     1      45.565   6.133  12.332  0.00  0.00    +0.000 C 
ATOM      5  C   UNL     1      45.619   7.658  12.498  0.00  0.00    +0.000 C 
ATOM      6  C   UNL     1      46.982   8.237  12.109  0.00  0.00    +0.000 C 
ENDROOT
BRANCH   1   7
ATOM      7  C   UNL     1      48.163   8.039  14.341  0.00  0.00    +0.000 C 
BRANCH   7  10
ATOM      8  O   UNL     1      48.453   7.992  17.207  0.00  0.00    +0.000 OA
ATOM      9  C   UNL     1      49.138   7.259  16.503  0.00  0.00    +0.000 C 
ATOM     10  N   UNL     1      49.074   7.251  15.135  0.00  0.00    +0.000 N 
ATOM     11  H   UNL     1      49.567   6.526  14.629  0.00  0.00    +0.000 HD
BRANCH   9  12
ATOM     12  C   UNL     1      50.129   6.335  17.068  0.00  0.00    +0.000 A 
ATOM     13  C   UNL     1      49.760   5.351  17.975  0.00  0.00    +0.000 A 
ATOM     14  S   UNL     1      51.077   4.401  18.509  0.00  0.00    +0.000 S 
ATOM     15  C   UNL     1      52.168   5.246  17.513  0.00  0.00    +0.000 A 
ATOM     16  N   UNL     1      53.484   4.907  17.461  0.00  0.00    +0.000 NA
ATOM     17  C   UNL     1      54.187   5.617  16.638  0.00  0.00    +0.000 A 
ATOM     18  N   UNL     1      53.695   6.644  15.875  0.00  0.00    +0.000 N 
ATOM     19  C   UNL     1      52.397   7.068  15.946  0.00  0.00    +0.000 A 
ATOM     20  O   UNL     1      52.037   8.077  15.359  0.00  0.00    +0.000 OA
ATOM     21  C   UNL     1      51.547   6.264  16.817  0.00  0.00    +0.000 A 
ATOM     22  H   UNL     1      54.302   7.190  15.286  0.00  0.00    +0.000 HD
ENDBRANCH   9  12
ENDBRANCH   7  10
ENDBRANCH   1   7
BRANCH   4  23
ATOM     23  C   UNL     1      45.532   5.776  10.834  0.00  0.00    +0.000 C 
BRANCH  23  24
ATOM     24  N   UNL     1      44.160   5.606  10.379  0.00  0.00    +0.000 NA
ATOM     25  H   UNL     1      44.016   6.111   9.506  0.00  0.00    +0.000 HD
BRANCH  24  26
ATOM     26  C   UNL     1      43.854   4.195  10.180  0.00  0.00    +0.000 C 
BRANCH  26  27
ATOM     27  C   UNL     1      44.840   3.579   9.220  0.00  0.00    +0.000 A 
ATOM     28  C   UNL     1      45.452   4.353   8.226  0.00  0.00    +0.000 A 
ATOM     29  C   UNL     1      46.346   3.763   7.329  0.00  0.00    +0.000 A 
ATOM     30  C   UNL     1      46.630   2.403   7.426  0.00  0.00    +0.000 A 
ATOM     31 CL   UNL     1      47.721   1.678   6.309  0.00  0.00    +0.000 Cl
ATOM     32  C   UNL     1      46.037   1.625   8.417  0.00  0.00    +0.000 A 
ATOM     33  C   UNL     1      45.144   2.212   9.312  0.00  0.00    +0.000 A 
ENDBRANCH  26  27
ENDBRANCH  24  26
ENDBRANCH  23  24
ENDBRANCH   4  23
TORSDOF 7
ENDMDL
