MODEL 1
REMARK VINA RESULT:    -7.328      0.000      0.000
REMARK INTER + INTRA:         -15.351
REMARK INTER:                 -13.539
REMARK INTRA:                  -1.812
REMARK UNBOUND:                -1.812
REMARK  Name = 
REMARK  15 active torsions:
REMARK  status: ('A' for Active; 'I' for Inactive)
REMARK    1  A    between atoms: N_1  and  C_2
REMARK    2  A    between atoms: C_2  and  C_3
REMARK    3  A    between atoms: C_3  and  C_4
REMARK    4  A    between atoms: C_4  and  C_5
REMARK    5  A    between atoms: C_5  and  C_6
REMARK    6  A    between atoms: C_6  and  C_7
REMARK    7  A    between atoms: C_7  and  C_8
REMARK    8  A    between atoms: C_8  and  C_9
REMARK    9  A    between atoms: C_9  and  N_10
REMARK   10  A    between atoms: N_10  and  C_11
REMARK   11  A    between atoms: C_11  and  C_12
REMARK   12  A    between atoms: C_15  and  C_16
REMARK   13  A    between atoms: C_16  and  O_17
REMARK   14  A    between atoms: O_17  and  C_18
REMARK   15  A    between atoms: C_21  and  C_22
REMARK                            x       y       z     vdW  Elec       q    Type
REMARK                         _______ _______ _______ _____ _____    ______ ____
ROOT
ATOM      1  C   UNL     1      46.907   6.601  13.103  0.00  0.00    +0.000 A 
ATOM      2  C   UNL     1      46.885   5.222  13.294  0.00  0.00    +0.000 A 
ATOM      3  C   UNL     1      45.816   4.456  12.821  0.00  0.00    +0.000 A 
ATOM      4  C   UNL     1      44.766   5.071  12.130  0.00  0.00    +0.000 A 
ATOM      5  C   UNL     1      44.784   6.449  11.943  0.00  0.00    +0.000 A 
ATOM      6  C   UNL     1      45.853   7.220  12.416  0.00  0.00    +0.000 A 
ENDROOT
BRANCH   1   7
ATOM      7  C   UNL     1      48.077   7.406  13.618  0.00  0.00    +0.000 C 
BRANCH   7   8
ATOM      8  N   UNL     1      49.171   6.582  14.121  0.00  0.00    +0.000 NA
ATOM      9  H   UNL     1      48.829   5.663  14.373  0.00  0.00    +0.000 HD
BRANCH   8  10
ATOM     10  C   UNL     1      49.815   7.200  15.282  0.00  0.00    +0.000 C 
BRANCH  10  11
ATOM     11  C   UNL     1      49.748   6.223  16.446  0.00  0.00    +0.000 C 
BRANCH  11  12
ATOM     12  C   UNL     1      48.737   6.697  17.483  0.00  0.00    +0.000 C 
BRANCH  12  13
ATOM     13  C   UNL     1      47.851   5.550  17.936  0.00  0.00    +0.000 C 
BRANCH  13  14
ATOM     14  C   UNL     1      47.582   4.607  16.771  0.00  0.00    +0.000 C 
BRANCH  14  15
ATOM     15  C   UNL     1      47.477   3.167  17.256  0.00  0.00    +0.000 C 
BRANCH  15  16
ATOM     16  C   UNL     1      48.696   2.796  18.095  0.00  0.00    +0.000 C 
BRANCH  16  17
ATOM     17  C   UNL     1      49.878   2.441  17.202  0.00  0.00    +0.000 C 
BRANCH  17  18
ATOM     18  N   UNL     1      49.411   1.719  16.025  0.00  0.00    +0.000 NA
ATOM     19  H   UNL     1      49.741   2.194  15.186  0.00  0.00    +0.000 HD
ATOM     20  H   UNL     1      48.394   1.746  15.989  0.00  0.00    +0.000 HD
ENDBRANCH  17  18
ENDBRANCH  16  17
ENDBRANCH  15  16
ENDBRANCH  14  15
ENDBRANCH  13  14
ENDBRANCH  12  13
ENDBRANCH  11  12
ENDBRANCH  10  11
ENDBRANCH   8  10
ENDBRANCH   7   8
ENDBRANCH   1   7
BRANCH   4  21
ATOM     21  C   UNL     1      43.618   4.262  11.579  0.00  0.00    +0.000 C 
BRANCH  21  22
ATOM     22  O   UNL     1      43.557   4.420  10.164  0.00  0.00    +0.000 OA
BRANCH  22  23
ATOM     23  C   UNL     1      44.467   3.701   9.434  0.00  0.00    +0.000 A 
ATOM     24  C   UNL     1      44.634   2.320   9.462  0.00  0.00    +0.000 A 
ATOM     25  C   UNL     1      45.592   1.712   8.641  0.00  0.00    +0.000 A 
ATOM     26  C   UNL     1      46.380   2.481   7.774  0.00  0.00    +0.000 A 
ATOM     27  C   UNL     1      46.199   3.867   7.733  0.00  0.00    +0.000 A 
ATOM     28  C   UNL     1      45.255   4.468   8.573  0.00  0.00    +0.000 A 
BRANCH  26  29
ATOM     29  C   UNL     1      47.399   1.779   6.945  0.00  0.00    +0.000 C 
ATOM     30  N   UNL     1      48.493   2.483   6.534  0.00  0.00    +0.000 N 
ATOM     31  O   UNL     1      47.257   0.605   6.627  0.00  0.00    +0.000 OA
ATOM     32  H   UNL     1      48.683   3.447   6.765  0.00  0.00    +0.000 HD
ATOM     33  H   UNL     1      49.178   1.976   5.986  0.00  0.00    +0.000 HD
ENDBRANCH  26  29
ENDBRANCH  22  23
ENDBRANCH  21  22
ENDBRANCH   4  21
TORSDOF 15
ENDMDL
MODEL 2
REMARK VINA RESULT:    -6.433      1.600      2.171
REMARK INTER + INTRA:         -13.697
REMARK INTER:                 -12.243
REMARK INTRA:                  -1.454
REMARK UNBOUND:                -1.812
REMARK  Name = 
REMARK  15 active torsions:
REMARK  status: ('A' for Active; 'I' for Inactive)
REMARK    1  A    between atoms: N_1  and  C_2
REMARK    2  A    between atoms: C_2  and  C_3
REMARK    3  A    between atoms: C_3  and  C_4
REMARK    4  A    between atoms: C_4  and  C_5
REMARK    5  A    between atoms: C_5  and  C_6
REMARK    6  A    between atoms: C_6  and  C_7
REMARK    7  A    between atoms: C_7  and  C_8
REMARK    8  A    between atoms: C_8  and  C_9
REMARK    9  A    between atoms: C_9  and  N_10
REMARK   10  A    between atoms: N_10  and  C_11
REMARK   11  A    between atoms: C_11  and  C_12
REMARK   12  A    between atoms: C_15  and  C_16
REMARK   13  A    between atoms: C_16  and  O_17
REMARK   14  A    between atoms: O_17  and  C_18
REMARK   15  A    between atoms: C_21  and  C_22
REMARK                            x       y       z     vdW  Elec       q    Type
REMARK                         _______ _______ _______ _____ _____    ______ ____
ROOT
ATOM      1  C   UNL     1      46.003   7.307  12.629  0.00  0.00    +0.000 A 
ATOM      2  C   UNL     1      46.566   6.115  13.078  0.00  0.00    +0.000 A 
ATOM      3  C   UNL     1      45.945   4.891  12.810  0.00  0.00    +0.000 A 
ATOM      4  C   UNL     1      44.760   4.855  12.067  0.00  0.00    +0.000 A 
ATOM      5  C   UNL     1      44.194   6.045  11.623  0.00  0.00    +0.000 A 
ATOM      6  C   UNL     1      44.812   7.273  11.890  0.00  0.00    +0.000 A 
ENDROOT
BRANCH   1   7
ATOM      7  C   UNL     1      46.695   8.616  12.926  0.00  0.00    +0.000 C 
BRANCH   7   8
ATOM      8  N   UNL     1      47.016   8.795  14.339  0.00  0.00    +0.000 NA
ATOM      9  H   UNL     1      46.322   9.382  14.782  0.00  0.00    +0.000 HD
BRANCH   8  10
ATOM     10  C   UNL     1      48.344   9.387  14.514  0.00  0.00    +0.000 C 
BRANCH  10  11
ATOM     11  C   UNL     1      49.066   8.628  15.618  0.00  0.00    +0.000 C 
BRANCH  11  12
ATOM     12  C   UNL     1      49.293   7.178  15.208  0.00  0.00    +0.000 C 
BRANCH  12  13
ATOM     13  C   UNL     1      50.278   6.501  16.144  0.00  0.00    +0.000 C 
BRANCH  13  14
ATOM     14  C   UNL     1      49.543   5.550  17.078  0.00  0.00    +0.000 C 
BRANCH  14  15
ATOM     15  C   UNL     1      48.247   5.065  16.444  0.00  0.00    +0.000 C 
BRANCH  15  16
ATOM     16  C   UNL     1      47.305   4.512  17.509  0.00  0.00    +0.000 C 
BRANCH  16  17
ATOM     17  C   UNL     1      48.058   4.236  18.805  0.00  0.00    +0.000 C 
BRANCH  17  18
ATOM     18  N   UNL     1      47.599   5.142  19.849  0.00  0.00    +0.000 NA
ATOM     19  H   UNL     1      48.135   6.008  19.804  0.00  0.00    +0.000 HD
ATOM     20  H   UNL     1      47.788   4.736  20.763  0.00  0.00    +0.000 HD
ENDBRANCH  17  18
ENDBRANCH  16  17
ENDBRANCH  15  16
ENDBRANCH  14  15
ENDBRANCH  13  14
ENDBRANCH  12  13
ENDBRANCH  11  12
ENDBRANCH  10  11
ENDBRANCH   8  10
ENDBRANCH   7   8
ENDBRANCH   1   7
BRANCH   4  21
ATOM     21  C   UNL     1      44.090   3.544  11.735  0.00  0.00    +0.000 C 
BRANCH  21  22
ATOM     22  O   UNL     1      43.598   3.584  10.398  0.00  0.00    +0.000 OA
BRANCH  22  23
ATOM     23  C   UNL     1      44.516   3.353   9.407  0.00  0.00    +0.000 A 
ATOM     24  C   UNL     1      45.057   4.307   8.551  0.00  0.00    +0.000 A 
ATOM     25  C   UNL     1      46.009   3.933   7.595  0.00  0.00    +0.000 A 
ATOM     26  C   UNL     1      46.438   2.601   7.498  0.00  0.00    +0.000 A 
ATOM     27  C   UNL     1      45.907   1.646   8.371  0.00  0.00    +0.000 A 
ATOM     28  C   UNL     1      44.940   2.025   9.309  0.00  0.00    +0.000 A 
BRANCH  26  29
ATOM     29  C   UNL     1      47.433   2.262   6.444  0.00  0.00    +0.000 C 
ATOM     30  N   UNL     1      47.397   2.963   5.273  0.00  0.00    +0.000 N 
ATOM     31  O   UNL     1      48.256   1.371   6.611  0.00  0.00    +0.000 OA
ATOM     32  H   UNL     1      46.756   3.715   5.067  0.00  0.00    +0.000 HD
ATOM     33  H   UNL     1      48.096   2.722   4.580  0.00  0.00    +0.000 HD
ENDBRANCH  26  29
ENDBRANCH  22  23
ENDBRANCH  21  22
ENDBRANCH   4  21
TORSDOF 15
ENDMDL
MODEL 3
REMARK VINA RESULT:    -6.136      3.377      8.754
REMARK INTER + INTRA:         -13.149
REMARK INTER:                 -12.003
REMARK INTRA:                  -1.146
REMARK UNBOUND:                -1.812
REMARK  Name = 
REMARK  15 active torsions:
REMARK  status: ('A' for Active; 'I' for Inactive)
REMARK    1  A    between atoms: N_1  and  C_2
REMARK    2  A    between atoms: C_2  and  C_3
REMARK    3  A    between atoms: C_3  and  C_4
REMARK    4  A    between atoms: C_4  and  C_5
REMARK    5  A    between atoms: C_5  and  C_6
REMARK    6  A    between atoms: C_6  and  C_7
REMARK    7  A    between atoms: C_7  and  C_8
REMARK    8  A    between atoms: C_8  and  C_9
REMARK    9  A    between atoms: C_9  and  N_10
REMARK   10  A    between atoms: N_10  and  C_11
REMARK   11  A    between atoms: C_11  and  C_12
REMARK   12  A    between atoms: C_15  and  C_16
REMARK   13  A    between atoms: C_16  and  O_17
REMARK   14  A    between atoms: O_17  and  C_18
REMARK   15  A    between atoms: C_21  and  C_22
REMARK                            x       y       z     vdW  Elec       q    Type
REMARK                         _______ _______ _______ _____ _____    ______ ____
ROOT
ATOM      1  C   UNL     1      46.040   7.374  12.562  0.00  0.00    +0.000 A 
ATOM      2  C   UNL     1      46.591   8.493  13.178  0.00  0.00    +0.000 A 
ATOM      3  C   UNL     1      47.607   8.353  14.128  0.00  0.00    +0.000 A 
ATOM      4  C   UNL     1      48.093   7.082  14.452  0.00  0.00    +0.000 A 
ATOM      5  C   UNL     1      47.539   5.962  13.841  0.00  0.00    +0.000 A 
ATOM      6  C   UNL     1      46.522   6.098  12.889  0.00  0.00    +0.000 A 
ENDROOT
BRANCH   1   7
ATOM      7  C   UNL     1      44.948   7.551  11.533  0.00  0.00    +0.000 C 
BRANCH   7   8
ATOM      8  N   UNL     1      44.646   6.329  10.793  0.00  0.00    +0.000 NA
ATOM      9  H   UNL     1      44.546   6.534   9.808  0.00  0.00    +0.000 HD
BRANCH   8  10
ATOM     10  C   UNL     1      43.422   5.695  11.289  0.00  0.00    +0.000 C 
BRANCH  10  11
ATOM     11  C   UNL     1      43.506   4.202  11.002  0.00  0.00    +0.000 C 
BRANCH  11  12
ATOM     12  C   UNL     1      44.881   3.841  10.452  0.00  0.00    +0.000 C 
BRANCH  12  13
ATOM     13  C   UNL     1      44.770   2.762   9.390  0.00  0.00    +0.000 C 
BRANCH  13  14
ATOM     14  C   UNL     1      44.693   3.395   8.007  0.00  0.00    +0.000 C 
BRANCH  14  15
ATOM     15  C   UNL     1      46.079   3.505   7.386  0.00  0.00    +0.000 C 
BRANCH  15  16
ATOM     16  C   UNL     1      46.658   2.118   7.124  0.00  0.00    +0.000 C 
BRANCH  16  17
ATOM     17  C   UNL     1      48.153   2.203   6.841  0.00  0.00    +0.000 C 
BRANCH  17  18
ATOM     18  N   UNL     1      48.405   1.968   5.426  0.00  0.00    +0.000 NA
ATOM     19  H   UNL     1      48.051   1.047   5.169  0.00  0.00    +0.000 HD
ATOM     20  H   UNL     1      49.409   1.946   5.256  0.00  0.00    +0.000 HD
ENDBRANCH  17  18
ENDBRANCH  16  17
ENDBRANCH  15  16
ENDBRANCH  14  15
ENDBRANCH  13  14
ENDBRANCH  12  13
ENDBRANCH  11  12
ENDBRANCH  10  11
ENDBRANCH   8  10
ENDBRANCH   7   8
ENDBRANCH   1   7
BRANCH   4  21
ATOM     21  C   UNL     1      49.213   6.907  15.448  0.00  0.00    +0.000 C 
BRANCH  21  22
ATOM     22  O   UNL     1      48.734   6.196  16.586  0.00  0.00    +0.000 OA
BRANCH  22  23
ATOM     23  C   UNL     1      49.452   5.089  16.956  0.00  0.00    +0.000 A 
ATOM     24  C   UNL     1      48.961   3.791  17.066  0.00  0.00    +0.000 A 
ATOM     25  C   UNL     1      49.818   2.746  17.432  0.00  0.00    +0.000 A 
ATOM     26  C   UNL     1      51.176   2.989  17.677  0.00  0.00    +0.000 A 
ATOM     27  C   UNL     1      51.673   4.290  17.550  0.00  0.00    +0.000 A 
ATOM     28  C   UNL     1      50.805   5.332  17.204  0.00  0.00    +0.000 A 
BRANCH  26  29
ATOM     29  C   UNL     1      52.030   1.840  18.089  0.00  0.00    +0.000 C 
ATOM     30  N   UNL     1      51.544   0.577  17.904  0.00  0.00    +0.000 N 
ATOM     31  O   UNL     1      53.131   2.016  18.592  0.00  0.00    +0.000 OA
ATOM     32  H   UNL     1      50.652   0.354  17.488  0.00  0.00    +0.000 HD
ATOM     33  H   UNL     1      52.152  -0.185  18.177  0.00  0.00    +0.000 HD
ENDBRANCH  26  29
ENDBRANCH  22  23
ENDBRANCH  21  22
ENDBRANCH   4  21
TORSDOF 15
ENDMDL
MODEL 4
REMARK VINA RESULT:    -5.808      3.489      9.019
REMARK INTER + INTRA:         -12.544
REMARK INTER:                 -11.078
REMARK INTRA:                  -1.466
REMARK UNBOUND:                -1.812
REMARK  Name = 
REMARK  15 active torsions:
REMARK  status: ('A' for Active; 'I' for Inactive)
REMARK    1  A    between atoms: N_1  and  C_2
REMARK    2  A    between atoms: C_2  and  C_3
REMARK    3  A    between atoms: C_3  and  C_4
REMARK    4  A    between atoms: C_4  and  C_5
REMARK    5  A    between atoms: C_5  and  C_6
REMARK    6  A    between atoms: C_6  and  C_7
REMARK    7  A    between atoms: C_7  and  C_8
REMARK    8  A    between atoms: C_8  and  C_9
REMARK    9  A    between atoms: C_9  and  N_10
REMARK   10  A    between atoms: N_10  and  C_11
REMARK   11  A    between atoms: C_11  and  C_12
REMARK   12  A    between atoms: C_15  and  C_16
REMARK   13  A    between atoms: C_16  and  O_17
REMARK   14  A    between atoms: O_17  and  C_18
REMARK   15  A    between atoms: C_21  and  C_22
REMARK                            x       y       z     vdW  Elec       q    Type
REMARK                         _______ _______ _______ _____ _____    ______ ____
ROOT
ATOM      1  C   UNL     1      46.118   7.536  12.091  0.00  0.00    +0.000 A 
ATOM      2  C   UNL     1      46.530   8.798  12.506  0.00  0.00    +0.000 A 
ATOM      3  C   UNL     1      47.816   8.994  13.018  0.00  0.00    +0.000 A 
ATOM      4  C   UNL     1      48.709   7.919  13.096  0.00  0.00    +0.000 A 
ATOM      5  C   UNL     1      48.297   6.656  12.686  0.00  0.00    +0.000 A 
ATOM      6  C   UNL     1      47.009   6.456  12.174  0.00  0.00    +0.000 A 
ENDROOT
BRANCH   1   7
ATOM      7  C   UNL     1      44.726   7.351  11.535  0.00  0.00    +0.000 C 
BRANCH   7   8
ATOM      8  N   UNL     1      44.564   6.116  10.774  0.00  0.00    +0.000 NA
ATOM      9  H   UNL     1      44.653   6.302   9.784  0.00  0.00    +0.000 HD
BRANCH   8  10
ATOM     10  C   UNL     1      43.268   5.490  11.041  0.00  0.00    +0.000 C 
BRANCH  10  11
ATOM     11  C   UNL     1      43.429   3.981  10.920  0.00  0.00    +0.000 C 
BRANCH  11  12
ATOM     12  C   UNL     1      44.883   3.621  10.639  0.00  0.00    +0.000 C 
BRANCH  12  13
ATOM     13  C   UNL     1      44.987   2.686   9.447  0.00  0.00    +0.000 C 
BRANCH  13  14
ATOM     14  C   UNL     1      44.838   3.473   8.152  0.00  0.00    +0.000 C 
BRANCH  14  15
ATOM     15  C   UNL     1      46.201   3.881   7.610  0.00  0.00    +0.000 C 
BRANCH  15  16
ATOM     16  C   UNL     1      46.580   3.016   6.411  0.00  0.00    +0.000 C 
BRANCH  16  17
ATOM     17  C   UNL     1      47.651   2.002   6.796  0.00  0.00    +0.000 C 
BRANCH  17  18
ATOM     18  N   UNL     1      48.572   1.808   5.684  0.00  0.00    +0.000 NA
ATOM     19  H   UNL     1      48.197   2.261   4.852  0.00  0.00    +0.000 HD
ATOM     20  H   UNL     1      48.639   0.816   5.465  0.00  0.00    +0.000 HD
ENDBRANCH  17  18
ENDBRANCH  16  17
ENDBRANCH  15  16
ENDBRANCH  14  15
ENDBRANCH  13  14
ENDBRANCH  12  13
ENDBRANCH  11  12
ENDBRANCH  10  11
ENDBRANCH   8  10
ENDBRANCH   7   8
ENDBRANCH   1   7
BRANCH   4  21
ATOM     21  C   UNL     1      50.114   8.111  13.612  0.00  0.00    +0.000 C 
BRANCH  21  22
ATOM     22  O   UNL     1      50.071   8.692  14.912  0.00  0.00    +0.000 OA
BRANCH  22  23
ATOM     23  C   UNL     1      49.865   7.829  15.956  0.00  0.00    +0.000 A 
ATOM     24  C   UNL     1      48.830   7.894  16.883  0.00  0.00    +0.000 A 
ATOM     25  C   UNL     1      48.726   6.925  17.889  0.00  0.00    +0.000 A 
ATOM     26  C   UNL     1      49.650   5.874  17.966  0.00  0.00    +0.000 A 
ATOM     27  C   UNL     1      50.680   5.799  17.023  0.00  0.00    +0.000 A 
ATOM     28  C   UNL     1      50.788   6.783  16.034  0.00  0.00    +0.000 A 
BRANCH  26  29
ATOM     29  C   UNL     1      49.501   4.891  19.074  0.00  0.00    +0.000 C 
ATOM     30  N   UNL     1      50.625   4.277  19.547  0.00  0.00    +0.000 N 
ATOM     31  O   UNL     1      48.402   4.626  19.543  0.00  0.00    +0.000 OA
ATOM     32  H   UNL     1      51.563   4.452  19.219  0.00  0.00    +0.000 HD
ATOM     33  H   UNL     1      50.496   3.626  20.313  0.00  0.00    +0.000 HD
ENDBRANCH  26  29
ENDBRANCH  22  23
ENDBRANCH  21  22
ENDBRANCH   4  21
TORSDOF 15
ENDMDL
MODEL 5
REMARK VINA RESULT:    -5.778      4.534      8.109
REMARK INTER + INTRA:         -12.488
REMARK INTER:                 -11.386
REMARK INTRA:                  -1.102
REMARK UNBOUND:                -1.812
REMARK  Name = 
REMARK  15 active torsions:
REMARK  status: ('A' for Active; 'I' for Inactive)
REMARK    1  A    between atoms: N_1  and  C_2
REMARK    2  A    between atoms: C_2  and  C_3
REMARK    3  A    between atoms: C_3  and  C_4
REMARK    4  A    between atoms: C_4  and  C_5
REMARK    5  A    between atoms: C_5  and  C_6
REMARK    6  A    between atoms: C_6  and  C_7
REMARK    7  A    between atoms: C_7  and  C_8
REMARK    8  A    between atoms: C_8  and  C_9
REMARK    9  A    between atoms: C_9  and  N_10
REMARK   10  A    between atoms: N_10  and  C_11
REMARK   11  A    between atoms: C_11  and  C_12
REMARK   12  A    between atoms: C_15  and  C_16
REMARK   13  A    between atoms: C_16  and  O_17
REMARK   14  A    between atoms: O_17  and  C_18
REMARK   15  A    between atoms: C_21  and  C_22
REMARK                            x       y       z     vdW  Elec       q    Type
REMARK                         _______ _______ _______ _____ _____    ______ ____
ROOT
ATOM      1  C   UNL     1      45.841   6.269  12.796  0.00  0.00    +0.000 A 
ATOM      2  C   UNL     1      45.587   7.593  12.451  0.00  0.00    +0.000 A 
ATOM      3  C   UNL     1      46.641   8.477  12.201  0.00  0.00    +0.000 A 
ATOM      4  C   UNL     1      47.964   8.028  12.276  0.00  0.00    +0.000 A 
ATOM      5  C   UNL     1      48.220   6.706  12.626  0.00  0.00    +0.000 A 
ATOM      6  C   UNL     1      47.167   5.818  12.877  0.00  0.00    +0.000 A 
ENDROOT
BRANCH   1   7
ATOM      7  C   UNL     1      44.686   5.331  13.055  0.00  0.00    +0.000 C 
BRANCH   7   8
ATOM      8  N   UNL     1      43.391   5.889  12.678  0.00  0.00    +0.000 NA
ATOM      9  H   UNL     1      42.682   5.606  13.342  0.00  0.00    +0.000 HD
BRANCH   8  10
ATOM     10  C   UNL     1      42.999   5.466  11.332  0.00  0.00    +0.000 C 
BRANCH  10  11
ATOM     11  C   UNL     1      43.399   4.009  11.151  0.00  0.00    +0.000 C 
BRANCH  11  12
ATOM     12  C   UNL     1      44.259   3.843   9.904  0.00  0.00    +0.000 C 
BRANCH  12  13
ATOM     13  C   UNL     1      44.499   2.374   9.605  0.00  0.00    +0.000 C 
BRANCH  13  14
ATOM     14  C   UNL     1      45.622   2.224   8.587  0.00  0.00    +0.000 C 
BRANCH  14  15
ATOM     15  C   UNL     1      45.748   3.479   7.735  0.00  0.00    +0.000 C 
BRANCH  15  16
ATOM     16  C   UNL     1      46.634   3.214   6.522  0.00  0.00    +0.000 C 
BRANCH  16  17
ATOM     17  C   UNL     1      47.721   2.200   6.859  0.00  0.00    +0.000 C 
BRANCH  17  18
ATOM     18  N   UNL     1      48.516   1.911   5.673  0.00  0.00    +0.000 NA
ATOM     19  H   UNL     1      49.190   1.178   5.889  0.00  0.00    +0.000 HD
ATOM     20  H   UNL     1      49.060   2.733   5.416  0.00  0.00    +0.000 HD
ENDBRANCH  17  18
ENDBRANCH  16  17
ENDBRANCH  15  16
ENDBRANCH  14  15
ENDBRANCH  13  14
ENDBRANCH  12  13
ENDBRANCH  11  12
ENDBRANCH  10  11
ENDBRANCH   8  10
ENDBRANCH   7   8
ENDBRANCH   1   7
BRANCH   4  21
ATOM     21  C   UNL     1      49.118   8.953  11.977  0.00  0.00    +0.000 C 
BRANCH  21  22
ATOM     22  O   UNL     1      50.347   8.251  12.134  0.00  0.00    +0.000 OA
BRANCH  22  23
ATOM     23  C   UNL     1      51.236   8.342  11.095  0.00  0.00    +0.000 A 
ATOM     24  C   UNL     1      51.737   7.281  10.348  0.00  0.00    +0.000 A 
ATOM     25  C   UNL     1      52.624   7.522   9.291  0.00  0.00    +0.000 A 
ATOM     26  C   UNL     1      53.005   8.831   8.965  0.00  0.00    +0.000 A 
ATOM     27  C   UNL     1      52.487   9.899   9.705  0.00  0.00    +0.000 A 
ATOM     28  C   UNL     1      51.618   9.647  10.772  0.00  0.00    +0.000 A 
BRANCH  26  29
ATOM     29  C   UNL     1      53.972   9.021   7.848  0.00  0.00    +0.000 C 
ATOM     30  N   UNL     1      54.713  10.166   7.824  0.00  0.00    +0.000 N 
ATOM     31  O   UNL     1      54.092   8.182   6.965  0.00  0.00    +0.000 OA
ATOM     32  H   UNL     1      54.676  10.896   8.521  0.00  0.00    +0.000 HD
ATOM     33  H   UNL     1      55.375  10.261   7.063  0.00  0.00    +0.000 HD
ENDBRANCH  26  29
ENDBRANCH  22  23
ENDBRANCH  21  22
ENDBRANCH   4  21
TORSDOF 15
ENDMDL
MODEL 6
REMARK VINA RESULT:    -5.686      3.014      8.255
REMARK INTER + INTRA:         -12.318
REMARK INTER:                 -11.089
REMARK INTRA:                  -1.229
REMARK UNBOUND:                -1.812
REMARK  Name = 
REMARK  15 active torsions:
REMARK  status: ('A' for Active; 'I' for Inactive)
REMARK    1  A    between atoms: N_1  and  C_2
REMARK    2  A    between atoms: C_2  and  C_3
REMARK    3  A    between atoms: C_3  and  C_4
REMARK    4  A    between atoms: C_4  and  C_5
REMARK    5  A    between atoms: C_5  and  C_6
REMARK    6  A    between atoms: C_6  and  C_7
REMARK    7  A    between atoms: C_7  and  C_8
REMARK    8  A    between atoms: C_8  and  C_9
REMARK    9  A    between atoms: C_9  and  N_10
REMARK   10  A    between atoms: N_10  and  C_11
REMARK   11  A    between atoms: C_11  and  C_12
REMARK   12  A    between atoms: C_15  and  C_16
REMARK   13  A    between atoms: C_16  and  O_17
REMARK   14  A    between atoms: O_17  and  C_18
REMARK   15  A    between atoms: C_21  and  C_22
REMARK                            x       y       z     vdW  Elec       q    Type
REMARK                         _______ _______ _______ _____ _____    ______ ____
ROOT
ATOM      1  C   UNL     1      44.218   6.535  11.581  0.00  0.00    +0.000 A 
ATOM      2  C   UNL     1      44.535   7.243  12.736  0.00  0.00    +0.000 A 
ATOM      3  C   UNL     1      45.864   7.568  13.027  0.00  0.00    +0.000 A 
ATOM      4  C   UNL     1      46.884   7.200  12.144  0.00  0.00    +0.000 A 
ATOM      5  C   UNL     1      46.569   6.487  10.992  0.00  0.00    +0.000 A 
ATOM      6  C   UNL     1      45.240   6.160  10.697  0.00  0.00    +0.000 A 
ENDROOT
BRANCH   1   7
ATOM      7  C   UNL     1      42.775   6.201  11.284  0.00  0.00    +0.000 C 
BRANCH   7   8
ATOM      8  N   UNL     1      42.494   4.769  11.314  0.00  0.00    +0.000 NA
ATOM      9  H   UNL     1      41.520   4.609  11.536  0.00  0.00    +0.000 HD
BRANCH   8  10
ATOM     10  C   UNL     1      43.338   4.079  12.291  0.00  0.00    +0.000 C 
BRANCH  10  11
ATOM     11  C   UNL     1      43.796   2.761  11.684  0.00  0.00    +0.000 C 
BRANCH  11  12
ATOM     12  C   UNL     1      44.995   2.982  10.770  0.00  0.00    +0.000 C 
BRANCH  12  13
ATOM     13  C   UNL     1      44.748   2.376   9.400  0.00  0.00    +0.000 C 
BRANCH  13  14
ATOM     14  C   UNL     1      44.631   3.478   8.355  0.00  0.00    +0.000 C 
BRANCH  14  15
ATOM     15  C   UNL     1      46.007   3.899   7.859  0.00  0.00    +0.000 C 
BRANCH  15  16
ATOM     16  C   UNL     1      46.435   3.038   6.675  0.00  0.00    +0.000 C 
BRANCH  16  17
ATOM     17  C   UNL     1      47.856   2.522   6.869  0.00  0.00    +0.000 C 
BRANCH  17  18
ATOM     18  N   UNL     1      48.305   1.840   5.663  0.00  0.00    +0.000 NA
ATOM     19  H   UNL     1      48.845   1.016   5.923  0.00  0.00    +0.000 HD
ATOM     20  H   UNL     1      48.938   2.445   5.143  0.00  0.00    +0.000 HD
ENDBRANCH  17  18
ENDBRANCH  16  17
ENDBRANCH  15  16
ENDBRANCH  14  15
ENDBRANCH  13  14
ENDBRANCH  12  13
ENDBRANCH  11  12
ENDBRANCH  10  11
ENDBRANCH   8  10
ENDBRANCH   7   8
ENDBRANCH   1   7
BRANCH   4  21
ATOM     21  C   UNL     1      48.322   7.570  12.419  0.00  0.00    +0.000 C 
BRANCH  21  22
ATOM     22  O   UNL     1      49.012   6.443  12.951  0.00  0.00    +0.000 OA
BRANCH  22  23
ATOM     23  C   UNL     1      48.721   6.110  14.248  0.00  0.00    +0.000 A 
ATOM     24  C   UNL     1      49.189   6.759  15.387  0.00  0.00    +0.000 A 
ATOM     25  C   UNL     1      48.789   6.325  16.657  0.00  0.00    +0.000 A 
ATOM     26  C   UNL     1      47.904   5.247  16.796  0.00  0.00    +0.000 A 
ATOM     27  C   UNL     1      47.419   4.607  15.651  0.00  0.00    +0.000 A 
ATOM     28  C   UNL     1      47.841   5.034  14.387  0.00  0.00    +0.000 A 
BRANCH  26  29
ATOM     29  C   UNL     1      47.536   4.817  18.174  0.00  0.00    +0.000 C 
ATOM     30  N   UNL     1      46.564   5.516  18.829  0.00  0.00    +0.000 N 
ATOM     31  O   UNL     1      48.097   3.873  18.714  0.00  0.00    +0.000 OA
ATOM     32  H   UNL     1      46.052   6.296  18.446  0.00  0.00    +0.000 HD
ATOM     33  H   UNL     1      46.323   5.191  19.758  0.00  0.00    +0.000 HD
ENDBRANCH  26  29
ENDBRANCH  22  23
ENDBRANCH  21  22
ENDBRANCH   4  21
TORSDOF 15
ENDMDL
MODEL 7
REMARK VINA RESULT:    -5.629      3.455      5.321
REMARK INTER + INTRA:         -12.213
REMARK INTER:                  -9.662
REMARK INTRA:                  -2.551
REMARK UNBOUND:                -1.812
REMARK  Name = 
REMARK  15 active torsions:
REMARK  status: ('A' for Active; 'I' for Inactive)
REMARK    1  A    between atoms: N_1  and  C_2
REMARK    2  A    between atoms: C_2  and  C_3
REMARK    3  A    between atoms: C_3  and  C_4
REMARK    4  A    between atoms: C_4  and  C_5
REMARK    5  A    between atoms: C_5  and  C_6
REMARK    6  A    between atoms: C_6  and  C_7
REMARK    7  A    between atoms: C_7  and  C_8
REMARK    8  A    between atoms: C_8  and  C_9
REMARK    9  A    between atoms: C_9  and  N_10
REMARK   10  A    between atoms: N_10  and  C_11
REMARK   11  A    between atoms: C_11  and  C_12
REMARK   12  A    between atoms: C_15  and  C_16
REMARK   13  A    between atoms: C_16  and  O_17
REMARK   14  A    between atoms: O_17  and  C_18
REMARK   15  A    between atoms: C_21  and  C_22
REMARK                            x       y       z     vdW  Elec       q    Type
REMARK                         _______ _______ _______ _____ _____    ______ ____
ROOT
ATOM      1  C   UNL     1      49.874   8.091  17.746  0.00  0.00    +0.000 A 
ATOM      2  C   UNL     1      48.757   8.633  17.119  0.00  0.00    +0.000 A 
ATOM      3  C   UNL     1      48.480   8.338  15.781  0.00  0.00    +0.000 A 
ATOM      4  C   UNL     1      49.317   7.473  15.067  0.00  0.00    +0.000 A 
ATOM      5  C   UNL     1      50.437   6.935  15.691  0.00  0.00    +0.000 A 
ATOM      6  C   UNL     1      50.718   7.229  17.031  0.00  0.00    +0.000 A 
ENDROOT
BRANCH   1   7
ATOM      7  C   UNL     1      50.149   8.419  19.195  0.00  0.00    +0.000 C 
BRANCH   7   8
ATOM      8  N   UNL     1      50.186   7.244  20.059  0.00  0.00    +0.000 NA
ATOM      9  H   UNL     1      50.094   6.401  19.506  0.00  0.00    +0.000 HD
BRANCH   8  10
ATOM     10  C   UNL     1      49.125   7.288  21.066  0.00  0.00    +0.000 C 
BRANCH  10  11
ATOM     11  C   UNL     1      47.820   6.866  20.407  0.00  0.00    +0.000 C 
BRANCH  11  12
ATOM     12  C   UNL     1      47.980   5.512  19.725  0.00  0.00    +0.000 C 
BRANCH  12  13
ATOM     13  C   UNL     1      47.133   5.439  18.467  0.00  0.00    +0.000 C 
BRANCH  13  14
ATOM     14  C   UNL     1      47.922   4.779  17.344  0.00  0.00    +0.000 C 
BRANCH  14  15
ATOM     15  C   UNL     1      48.464   3.428  17.787  0.00  0.00    +0.000 C 
BRANCH  15  16
ATOM     16  C   UNL     1      49.989   3.422  17.740  0.00  0.00    +0.000 C 
BRANCH  16  17
ATOM     17  C   UNL     1      50.503   2.163  17.054  0.00  0.00    +0.000 C 
BRANCH  17  18
ATOM     18  N   UNL     1      49.509   1.672  16.108  0.00  0.00    +0.000 NA
ATOM     19  H   UNL     1      49.842   1.829  15.158  0.00  0.00    +0.000 HD
ATOM     20  H   UNL     1      48.650   2.211  16.204  0.00  0.00    +0.000 HD
ENDBRANCH  17  18
ENDBRANCH  16  17
ENDBRANCH  15  16
ENDBRANCH  14  15
ENDBRANCH  13  14
ENDBRANCH  12  13
ENDBRANCH  11  12
ENDBRANCH  10  11
ENDBRANCH   8  10
ENDBRANCH   7   8
ENDBRANCH   1   7
BRANCH   4  21
ATOM     21  C   UNL     1      49.020   7.111  13.632  0.00  0.00    +0.000 C 
BRANCH  21  22
ATOM     22  O   UNL     1      48.447   5.808  13.577  0.00  0.00    +0.000 OA
BRANCH  22  23
ATOM     23  C   UNL     1      47.182   5.723  13.057  0.00  0.00    +0.000 A 
ATOM     24  C   UNL     1      46.690   6.445  11.974  0.00  0.00    +0.000 A 
ATOM     25  C   UNL     1      45.378   6.239  11.531  0.00  0.00    +0.000 A 
ATOM     26  C   UNL     1      44.552   5.297  12.160  0.00  0.00    +0.000 A 
ATOM     27  C   UNL     1      45.053   4.559  13.237  0.00  0.00    +0.000 A 
ATOM     28  C   UNL     1      46.358   4.786  13.686  0.00  0.00    +0.000 A 
BRANCH  26  29
ATOM     29  C   UNL     1      43.158   5.143  11.659  0.00  0.00    +0.000 C 
ATOM     30  N   UNL     1      42.328   6.226  11.718  0.00  0.00    +0.000 N 
ATOM     31  O   UNL     1      42.757   4.074  11.217  0.00  0.00    +0.000 OA
ATOM     32  H   UNL     1      42.590   7.139  12.059  0.00  0.00    +0.000 HD
ATOM     33  H   UNL     1      41.391   6.097  11.355  0.00  0.00    +0.000 HD
ENDBRANCH  26  29
ENDBRANCH  22  23
ENDBRANCH  21  22
ENDBRANCH   4  21
TORSDOF 15
ENDMDL
MODEL 8
REMARK VINA RESULT:    -5.444      3.392      9.028
REMARK INTER + INTRA:         -11.871
REMARK INTER:                 -10.596
REMARK INTRA:                  -1.276
REMARK UNBOUND:                -1.812
REMARK  Name = 
REMARK  15 active torsions:
REMARK  status: ('A' for Active; 'I' for Inactive)
REMARK    1  A    between atoms: N_1  and  C_2
REMARK    2  A    between atoms: C_2  and  C_3
REMARK    3  A    between atoms: C_3  and  C_4
REMARK    4  A    between atoms: C_4  and  C_5
REMARK    5  A    between atoms: C_5  and  C_6
REMARK    6  A    between atoms: C_6  and  C_7
REMARK    7  A    between atoms: C_7  and  C_8
REMARK    8  A    between atoms: C_8  and  C_9
REMARK    9  A    between atoms: C_9  and  N_10
REMARK   10  A    between atoms: N_10  and  C_11
REMARK   11  A    between atoms: C_11  and  C_12
REMARK   12  A    between atoms: C_15  and  C_16
REMARK   13  A    between atoms: C_16  and  O_17
REMARK   14  A    between atoms: O_17  and  C_18
REMARK   15  A    between atoms: C_21  and  C_22
REMARK                            x       y       z     vdW  Elec       q    Type
REMARK                         _______ _______ _______ _____ _____    ______ ____
ROOT
ATOM      1  C   UNL     1      44.470   5.423  12.420  0.00  0.00    +0.000 A 
ATOM      2  C   UNL     1      45.289   5.048  13.481  0.00  0.00    +0.000 A 
ATOM      3  C   UNL     1      46.612   5.494  13.549  0.00  0.00    +0.000 A 
ATOM      4  C   UNL     1      47.117   6.342  12.558  0.00  0.00    +0.000 A 
ATOM      5  C   UNL     1      46.301   6.713  11.494  0.00  0.00    +0.000 A 
ATOM      6  C   UNL     1      44.976   6.268  11.421  0.00  0.00    +0.000 A 
ENDROOT
BRANCH   1   7
ATOM      7  C   UNL     1      43.042   4.933  12.371  0.00  0.00    +0.000 C 
BRANCH   7   8
ATOM      8  N   UNL     1      42.835   3.843  11.421  0.00  0.00    +0.000 NA
ATOM      9  H   UNL     1      41.938   3.405  11.583  0.00  0.00    +0.000 HD
BRANCH   8  10
ATOM     10  C   UNL     1      43.897   2.840  11.521  0.00  0.00    +0.000 C 
BRANCH  10  11
ATOM     11  C   UNL     1      43.905   2.020  10.239  0.00  0.00    +0.000 C 
BRANCH  11  12
ATOM     12  C   UNL     1      45.081   2.422   9.356  0.00  0.00    +0.000 C 
BRANCH  12  13
ATOM     13  C   UNL     1      44.652   3.442   8.317  0.00  0.00    +0.000 C 
BRANCH  13  14
ATOM     14  C   UNL     1      45.723   4.514   8.164  0.00  0.00    +0.000 C 
BRANCH  14  15
ATOM     15  C   UNL     1      46.964   3.944   7.491  0.00  0.00    +0.000 C 
BRANCH  15  16
ATOM     16  C   UNL     1      46.574   3.086   6.291  0.00  0.00    +0.000 C 
BRANCH  16  17
ATOM     17  C   UNL     1      47.224   1.711   6.378  0.00  0.00    +0.000 C 
BRANCH  17  18
ATOM     18  N   UNL     1      48.538   1.742   5.750  0.00  0.00    +0.000 NA
ATOM     19  H   UNL     1      48.685   0.875   5.234  0.00  0.00    +0.000 HD
ATOM     20  H   UNL     1      49.260   1.774   6.467  0.00  0.00    +0.000 HD
ENDBRANCH  17  18
ENDBRANCH  16  17
ENDBRANCH  15  16
ENDBRANCH  14  15
ENDBRANCH  13  14
ENDBRANCH  12  13
ENDBRANCH  11  12
ENDBRANCH  10  11
ENDBRANCH   8  10
ENDBRANCH   7   8
ENDBRANCH   1   7
BRANCH   4  21
ATOM     21  C   UNL     1      48.530   6.866  12.627  0.00  0.00    +0.000 C 
BRANCH  21  22
ATOM     22  O   UNL     1      48.547   8.106  13.329  0.00  0.00    +0.000 OA
BRANCH  22  23
ATOM     23  C   UNL     1      48.915   8.051  14.648  0.00  0.00    +0.000 A 
ATOM     24  C   UNL     1      48.485   8.909  15.656  0.00  0.00    +0.000 A 
ATOM     25  C   UNL     1      48.924   8.721  16.973  0.00  0.00    +0.000 A 
ATOM     26  C   UNL     1      49.786   7.663  17.293  0.00  0.00    +0.000 A 
ATOM     27  C   UNL     1      50.203   6.790  16.283  0.00  0.00    +0.000 A 
ATOM     28  C   UNL     1      49.776   6.998  14.967  0.00  0.00    +0.000 A 
BRANCH  26  29
ATOM     29  C   UNL     1      50.238   7.532  18.706  0.00  0.00    +0.000 C 
ATOM     30  N   UNL     1      51.531   7.163  18.938  0.00  0.00    +0.000 N 
ATOM     31  O   UNL     1      49.471   7.736  19.638  0.00  0.00    +0.000 OA
ATOM     32  H   UNL     1      52.222   6.989  18.223  0.00  0.00    +0.000 HD
ATOM     33  H   UNL     1      51.816   7.098  19.908  0.00  0.00    +0.000 HD
ENDBRANCH  26  29
ENDBRANCH  22  23
ENDBRANCH  21  22
ENDBRANCH   4  21
TORSDOF 15
ENDMDL
MODEL 9
REMARK VINA RESULT:    -5.261      3.523      9.353
REMARK INTER + INTRA:         -11.533
REMARK INTER:                 -10.447
REMARK INTRA:                  -1.086
REMARK UNBOUND:                -1.812
REMARK  Name = 
REMARK  15 active torsions:
REMARK  status: ('A' for Active; 'I' for Inactive)
REMARK    1  A    between atoms: N_1  and  C_2
REMARK    2  A    between atoms: C_2  and  C_3
REMARK    3  A    between atoms: C_3  and  C_4
REMARK    4  A    between atoms: C_4  and  C_5
REMARK    5  A    between atoms: C_5  and  C_6
REMARK    6  A    between atoms: C_6  and  C_7
REMARK    7  A    between atoms: C_7  and  C_8
REMARK    8  A    between atoms: C_8  and  C_9
REMARK    9  A    between atoms: C_9  and  N_10
REMARK   10  A    between atoms: N_10  and  C_11
REMARK   11  A    between atoms: C_11  and  C_12
REMARK   12  A    between atoms: C_15  and  C_16
REMARK   13  A    between atoms: C_16  and  O_17
REMARK   14  A    between atoms: O_17  and  C_18
REMARK   15  A    between atoms: C_21  and  C_22
REMARK                            x       y       z     vdW  Elec       q    Type
REMARK                         _______ _______ _______ _____ _____    ______ ____
ROOT
ATOM      1  C   UNL     1      45.008   5.277  13.225  0.00  0.00    +0.000 A 
ATOM      2  C   UNL     1      45.135   6.626  12.907  0.00  0.00    +0.000 A 
ATOM      3  C   UNL     1      46.378   7.262  12.990  0.00  0.00    +0.000 A 
ATOM      4  C   UNL     1      47.511   6.537  13.376  0.00  0.00    +0.000 A 
ATOM      5  C   UNL     1      47.384   5.190  13.700  0.00  0.00    +0.000 A 
ATOM      6  C   UNL     1      46.142   4.550  13.618  0.00  0.00    +0.000 A 
ENDROOT
BRANCH   1   7
ATOM      7  C   UNL     1      43.657   4.611  13.121  0.00  0.00    +0.000 C 
BRANCH   7   8
ATOM      8  N   UNL     1      42.825   5.152  12.052  0.00  0.00    +0.000 NA
ATOM      9  H   UNL     1      41.861   4.876  12.185  0.00  0.00    +0.000 HD
BRANCH   8  10
ATOM     10  C   UNL     1      43.286   4.703  10.737  0.00  0.00    +0.000 C 
BRANCH  10  11
ATOM     11  C   UNL     1      43.714   3.247  10.850  0.00  0.00    +0.000 C 
BRANCH  11  12
ATOM     12  C   UNL     1      44.515   2.830   9.621  0.00  0.00    +0.000 C 
BRANCH  12  13
ATOM     13  C   UNL     1      44.563   3.954   8.602  0.00  0.00    +0.000 C 
BRANCH  13  14
ATOM     14  C   UNL     1      45.913   3.964   7.899  0.00  0.00    +0.000 C 
BRANCH  14  15
ATOM     15  C   UNL     1      45.960   2.906   6.805  0.00  0.00    +0.000 C 
BRANCH  15  16
ATOM     16  C   UNL     1      46.902   1.772   7.199  0.00  0.00    +0.000 C 
BRANCH  16  17
ATOM     17  C   UNL     1      48.083   1.695   6.239  0.00  0.00    +0.000 C 
BRANCH  17  18
ATOM     18  N   UNL     1      48.955   2.846   6.431  0.00  0.00    +0.000 NA
ATOM     19  H   UNL     1      49.650   2.871   5.686  0.00  0.00    +0.000 HD
ATOM     20  H   UNL     1      49.474   2.741   7.302  0.00  0.00    +0.000 HD
ENDBRANCH  17  18
ENDBRANCH  16  17
ENDBRANCH  15  16
ENDBRANCH  14  15
ENDBRANCH  13  14
ENDBRANCH  12  13
ENDBRANCH  11  12
ENDBRANCH  10  11
ENDBRANCH   8  10
ENDBRANCH   7   8
ENDBRANCH   1   7
BRANCH   4  21
ATOM     21  C   UNL     1      48.869   7.192  13.439  0.00  0.00    +0.000 C 
BRANCH  21  22
ATOM     22  O   UNL     1      49.593   6.684  14.556  0.00  0.00    +0.000 OA
BRANCH  22  23
ATOM     23  C   UNL     1      49.217   7.155  15.787  0.00  0.00    +0.000 A 
ATOM     24  C   UNL     1      48.815   6.384  16.873  0.00  0.00    +0.000 A 
ATOM     25  C   UNL     1      48.480   6.999  18.086  0.00  0.00    +0.000 A 
ATOM     26  C   UNL     1      48.560   8.392  18.225  0.00  0.00    +0.000 A 
ATOM     27  C   UNL     1      48.982   9.165  17.139  0.00  0.00    +0.000 A 
ATOM     28  C   UNL     1      49.294   8.544  15.925  0.00  0.00    +0.000 A 
BRANCH  26  29
ATOM     29  C   UNL     1      48.166   8.988  19.532  0.00  0.00    +0.000 C 
ATOM     30  N   UNL     1      46.932   9.562  19.633  0.00  0.00    +0.000 N 
ATOM     31  O   UNL     1      48.929   8.978  20.489  0.00  0.00    +0.000 OA
ATOM     32  H   UNL     1      46.247   9.598  18.892  0.00  0.00    +0.000 HD
ATOM     33  H   UNL     1      46.683   9.944  20.537  0.00  0.00    +0.000 HD
ENDBRANCH  26  29
ENDBRANCH  22  23
ENDBRANCH  21  22
ENDBRANCH   4  21
TORSDOF 15
ENDMDL
