MODEL 1
REMARK VINA RESULT:    -8.171      0.000      0.000
REMARK INTER + INTRA:         -11.330
REMARK INTER:                 -10.560
REMARK INTRA:                  -0.771
REMARK UNBOUND:                -0.771
REMARK  Name = 
REMARK  5 active torsions:
REMARK  status: ('A' for Active; 'I' for Inactive)
REMARK    1  A    between atoms: C_2  and  C_4
REMARK    2  A    between atoms: C_7  and  N_8
REMARK    3  A    between atoms: N_8  and  C_9
REMARK    4  A    between atoms: C_9  and  C_10
REMARK    5  A    between atoms: C_14  and  N_15
REMARK                            x       y       z     vdW  Elec       q    Type
REMARK                         _______ _______ _______ _____ _____    ______ ____
ROOT
ATOM      1  N   UNL     1      43.543   4.756   9.672  0.00  0.00    +0.000 N 
ATOM      2  H   UNL     1      42.652   4.701   9.185  0.00  0.00    +0.000 HD
ENDROOT
BRANCH   1   6
ATOM      3  C   UNL     1      46.296   2.136   7.981  0.00  0.00    +0.000 A 
ATOM      4  C   UNL     1      46.418   3.482   7.681  0.00  0.00    +0.000 A 
ATOM      5  C   UNL     1      45.518   4.378   8.265  0.00  0.00    +0.000 A 
ATOM      6  C   UNL     1      44.533   3.930   9.145  0.00  0.00    +0.000 A 
ATOM      7  C   UNL     1      44.486   2.542   9.346  0.00  0.00    +0.000 A 
ATOM      8  N   UNL     1      45.341   1.631   8.804  0.00  0.00    +0.000 NA
BRANCH   3  10
ATOM      9  N   UNL     1      48.311   1.704   6.701  0.00  0.00    +0.000 N 
ATOM     10  C   UNL     1      47.238   1.157   7.349  0.00  0.00    +0.000 C 
ATOM     11  O   UNL     1      47.075  -0.056   7.414  0.00  0.00    +0.000 OA
ATOM     12  H   UNL     1      49.007   1.095   6.298  0.00  0.00    +0.000 HD
ATOM     13  H   UNL     1      48.449   2.709   6.720  0.00  0.00    +0.000 HD
ENDBRANCH   3  10
ENDBRANCH   1   6
BRANCH   1  14
ATOM     14  C   UNL     1      43.357   4.880  11.114  0.00  0.00    +0.000 C 
BRANCH  14  15
ATOM     15  C   UNL     1      44.392   5.822  11.675  0.00  0.00    +0.000 A 
ATOM     16  C   UNL     1      44.377   7.183  11.367  0.00  0.00    +0.000 A 
ATOM     17  C   UNL     1      45.308   8.032  11.953  0.00  0.00    +0.000 A 
ATOM     18  C   UNL     1      46.252   7.525  12.852  0.00  0.00    +0.000 A 
ATOM     19  C   UNL     1      46.304   6.167  13.196  0.00  0.00    +0.000 A 
ATOM     20  C   UNL     1      45.362   5.333  12.577  0.00  0.00    +0.000 A 
BRANCH  19  21
ATOM     21  N   UNL     1      47.250   5.683  14.073  0.00  0.00    +0.000 N 
ATOM     22  C   UNL     1      47.213   4.313  14.608  0.00  0.00    +0.000 C 
ATOM     23  C   UNL     1      47.469   4.354  16.122  0.00  0.00    +0.000 C 
ATOM     24  O   UNL     1      48.702   5.026  16.435  0.00  0.00    +0.000 OA
ATOM     25  C   UNL     1      48.680   6.374  15.927  0.00  0.00    +0.000 C 
ATOM     26  C   UNL     1      48.490   6.403  14.400  0.00  0.00    +0.000 C 
ENDBRANCH  19  21
ENDBRANCH  14  15
ENDBRANCH   1  14
TORSDOF 5
ENDMDL
MODEL 2
REMARK VINA RESULT:    -8.170      2.030      3.112
REMARK INTER + INTRA:         -11.328
REMARK INTER:                 -10.475
REMARK INTRA:                  -0.853
REMARK UNBOUND:                -0.771
REMARK  Name = 
REMARK  5 active torsions:
REMARK  status: ('A' for Active; 'I' for Inactive)
REMARK    1  A    between atoms: C_2  and  C_4
REMARK    2  A    between atoms: C_7  and  N_8
REMARK    3  A    between atoms: N_8  and  C_9
REMARK    4  A    between atoms: C_9  and  C_10
REMARK    5  A    between atoms: C_14  and  N_15
REMARK                            x       y       z     vdW  Elec       q    Type
REMARK                         _______ _______ _______ _____ _____    ______ ____
ROOT
ATOM      1  N   UNL     1      43.728   4.781   9.936  0.00  0.00    +0.000 N 
ATOM      2  H   UNL     1      42.876   5.078   9.468  0.00  0.00    +0.000 HD
ENDROOT
BRANCH   1   6
ATOM      3  C   UNL     1      46.457   2.589   7.686  0.00  0.00    +0.000 A 
ATOM      4  C   UNL     1      45.587   1.890   8.506  0.00  0.00    +0.000 A 
ATOM      5  C   UNL     1      44.646   2.611   9.246  0.00  0.00    +0.000 A 
ATOM      6  C   UNL     1      44.570   4.001   9.146  0.00  0.00    +0.000 A 
ATOM      7  C   UNL     1      45.524   4.600   8.309  0.00  0.00    +0.000 A 
ATOM      8  N   UNL     1      46.456   3.943   7.567  0.00  0.00    +0.000 NA
BRANCH   3  10
ATOM      9  N   UNL     1      48.540   2.581   6.443  0.00  0.00    +0.000 N 
ATOM     10  C   UNL     1      47.488   1.837   6.900  0.00  0.00    +0.000 C 
ATOM     11  O   UNL     1      47.409   0.633   6.687  0.00  0.00    +0.000 OA
ATOM     12  H   UNL     1      49.290   2.124   5.950  0.00  0.00    +0.000 HD
ATOM     13  H   UNL     1      48.604   3.563   6.691  0.00  0.00    +0.000 HD
ENDBRANCH   3  10
ENDBRANCH   1   6
BRANCH   1  14
ATOM     14  C   UNL     1      43.480   4.440  11.333  0.00  0.00    +0.000 C 
BRANCH  14  15
ATOM     15  C   UNL     1      44.682   4.815  12.162  0.00  0.00    +0.000 A 
ATOM     16  C   UNL     1      45.486   3.841  12.755  0.00  0.00    +0.000 A 
ATOM     17  C   UNL     1      46.622   4.221  13.460  0.00  0.00    +0.000 A 
ATOM     18  C   UNL     1      46.961   5.574  13.568  0.00  0.00    +0.000 A 
ATOM     19  C   UNL     1      46.187   6.588  12.986  0.00  0.00    +0.000 A 
ATOM     20  C   UNL     1      45.039   6.174  12.295  0.00  0.00    +0.000 A 
BRANCH  19  21
ATOM     21  N   UNL     1      46.529   7.916  13.114  0.00  0.00    +0.000 N 
ATOM     22  C   UNL     1      45.591   9.011  12.820  0.00  0.00    +0.000 C 
ATOM     23  C   UNL     1      46.307  10.077  11.975  0.00  0.00    +0.000 C 
ATOM     24  O   UNL     1      47.507  10.545  12.616  0.00  0.00    +0.000 OA
ATOM     25  C   UNL     1      48.411   9.449  12.850  0.00  0.00    +0.000 C 
ATOM     26  C   UNL     1      47.776   8.371  13.747  0.00  0.00    +0.000 C 
ENDBRANCH  19  21
ENDBRANCH  14  15
ENDBRANCH   1  14
TORSDOF 5
ENDMDL
MODEL 3
REMARK VINA RESULT:    -7.596      1.406      1.675
REMARK INTER + INTRA:         -10.587
REMARK INTER:                  -9.888
REMARK INTRA:                  -0.699
REMARK UNBOUND:                -0.771
REMARK  Name = 
REMARK  5 active torsions:
REMARK  status: ('A' for Active; 'I' for Inactive)
REMARK    1  A    between atoms: C_2  and  C_4
REMARK    2  A    between atoms: C_7  and  N_8
REMARK    3  A    between atoms: N_8  and  C_9
REMARK    4  A    between atoms: C_9  and  C_10
REMARK    5  A    between atoms: C_14  and  N_15
REMARK                            x       y       z     vdW  Elec       q    Type
REMARK                         _______ _______ _______ _____ _____    ______ ____
ROOT
ATOM      1  N   UNL     1      43.799   3.433  10.440  0.00  0.00    +0.000 N 
ATOM      2  H   UNL     1      43.005   2.804  10.355  0.00  0.00    +0.000 HD
ENDROOT
BRANCH   1   6
ATOM      3  C   UNL     1      46.583   2.655   7.448  0.00  0.00    +0.000 A 
ATOM      4  C   UNL     1      46.168   3.965   7.618  0.00  0.00    +0.000 A 
ATOM      5  C   UNL     1      45.255   4.246   8.638  0.00  0.00    +0.000 A 
ATOM      6  C   UNL     1      44.788   3.235   9.478  0.00  0.00    +0.000 A 
ATOM      7  C   UNL     1      45.253   1.943   9.188  0.00  0.00    +0.000 A 
ATOM      8  N   UNL     1      46.143   1.620   8.210  0.00  0.00    +0.000 NA
BRANCH   3  10
ATOM      9  N   UNL     1      47.374   3.031   5.185  0.00  0.00    +0.000 N 
ATOM     10  C   UNL     1      47.545   2.329   6.346  0.00  0.00    +0.000 C 
ATOM     11  O   UNL     1      48.439   1.500   6.471  0.00  0.00    +0.000 OA
ATOM     12  H   UNL     1      48.020   2.892   4.425  0.00  0.00    +0.000 HD
ATOM     13  H   UNL     1      46.664   3.754   5.138  0.00  0.00    +0.000 HD
ENDBRANCH   3  10
ENDBRANCH   1   6
BRANCH   1  14
ATOM     14  C   UNL     1      44.147   3.670  11.837  0.00  0.00    +0.000 C 
BRANCH  14  15
ATOM     15  C   UNL     1      44.799   5.023  11.970  0.00  0.00    +0.000 A 
ATOM     16  C   UNL     1      44.152   6.184  11.545  0.00  0.00    +0.000 A 
ATOM     17  C   UNL     1      44.757   7.420  11.741  0.00  0.00    +0.000 A 
ATOM     18  C   UNL     1      46.005   7.499  12.369  0.00  0.00    +0.000 A 
ATOM     19  C   UNL     1      46.691   6.361  12.818  0.00  0.00    +0.000 A 
ATOM     20  C   UNL     1      46.062   5.128  12.590  0.00  0.00    +0.000 A 
BRANCH  19  21
ATOM     21  N   UNL     1      47.925   6.458  13.421  0.00  0.00    +0.000 N 
ATOM     22  C   UNL     1      48.169   6.028  14.807  0.00  0.00    +0.000 C 
ATOM     23  C   UNL     1      48.985   7.108  15.535  0.00  0.00    +0.000 C 
ATOM     24  O   UNL     1      50.206   7.412  14.836  0.00  0.00    +0.000 OA
ATOM     25  C   UNL     1      49.919   7.863  13.500  0.00  0.00    +0.000 C 
ATOM     26  C   UNL     1      49.155   6.800  12.691  0.00  0.00    +0.000 C 
ENDBRANCH  19  21
ENDBRANCH  14  15
ENDBRANCH   1  14
TORSDOF 5
ENDMDL
MODEL 4
REMARK VINA RESULT:    -7.481      2.002      2.661
REMARK INTER + INTRA:         -10.438
REMARK INTER:                  -9.744
REMARK INTRA:                  -0.694
REMARK UNBOUND:                -0.771
REMARK  Name = 
REMARK  5 active torsions:
REMARK  status: ('A' for Active; 'I' for Inactive)
REMARK    1  A    between atoms: C_2  and  C_4
REMARK    2  A    between atoms: C_7  and  N_8
REMARK    3  A    between atoms: N_8  and  C_9
REMARK    4  A    between atoms: C_9  and  C_10
REMARK    5  A    between atoms: C_14  and  N_15
REMARK                            x       y       z     vdW  Elec       q    Type
REMARK                         _______ _______ _______ _____ _____    ______ ____
ROOT
ATOM      1  N   UNL     1      43.778   4.777  10.046  0.00  0.00    +0.000 N 
ATOM      2  H   UNL     1      43.145   4.303  10.686  0.00  0.00    +0.000 HD
ENDROOT
BRANCH   1   6
ATOM      3  C   UNL     1      46.254   2.084   8.065  0.00  0.00    +0.000 A 
ATOM      4  C   UNL     1      46.280   3.406   7.655  0.00  0.00    +0.000 A 
ATOM      5  C   UNL     1      45.476   4.328   8.331  0.00  0.00    +0.000 A 
ATOM      6  C   UNL     1      44.679   3.929   9.405  0.00  0.00    +0.000 A 
ATOM      7  C   UNL     1      44.710   2.559   9.706  0.00  0.00    +0.000 A 
ATOM      8  N   UNL     1      45.478   1.625   9.082  0.00  0.00    +0.000 NA
BRANCH   3  10
ATOM      9  N   UNL     1      46.826  -0.233   7.631  0.00  0.00    +0.000 N 
ATOM     10  C   UNL     1      47.094   1.076   7.340  0.00  0.00    +0.000 C 
ATOM     11  O   UNL     1      47.956   1.392   6.530  0.00  0.00    +0.000 OA
ATOM     12  H   UNL     1      47.323  -0.959   7.140  0.00  0.00    +0.000 HD
ATOM     13  H   UNL     1      46.063  -0.461   8.260  0.00  0.00    +0.000 HD
ENDBRANCH   3  10
ENDBRANCH   1   6
BRANCH   1  14
ATOM     14  C   UNL     1      44.206   6.067  10.576  0.00  0.00    +0.000 C 
BRANCH  14  15
ATOM     15  C   UNL     1      45.192   5.848  11.695  0.00  0.00    +0.000 A 
ATOM     16  C   UNL     1      44.978   4.874  12.671  0.00  0.00    +0.000 A 
ATOM     17  C   UNL     1      45.939   4.658  13.651  0.00  0.00    +0.000 A 
ATOM     18  C   UNL     1      47.119   5.408  13.655  0.00  0.00    +0.000 A 
ATOM     19  C   UNL     1      47.382   6.394  12.693  0.00  0.00    +0.000 A 
ATOM     20  C   UNL     1      46.386   6.600  11.727  0.00  0.00    +0.000 A 
BRANCH  19  21
ATOM     21  N   UNL     1      48.544   7.134  12.720  0.00  0.00    +0.000 N 
ATOM     22  C   UNL     1      49.408   7.214  13.909  0.00  0.00    +0.000 C 
ATOM     23  C   UNL     1      49.804   8.679  14.147  0.00  0.00    +0.000 C 
ATOM     24  O   UNL     1      50.424   9.258  12.984  0.00  0.00    +0.000 OA
ATOM     25  C   UNL     1      49.531   9.192  11.856  0.00  0.00    +0.000 C 
ATOM     26  C   UNL     1      49.142   7.741  11.522  0.00  0.00    +0.000 C 
ENDBRANCH  19  21
ENDBRANCH  14  15
ENDBRANCH   1  14
TORSDOF 5
ENDMDL
MODEL 5
REMARK VINA RESULT:    -6.935      1.449      1.910
REMARK INTER + INTRA:          -9.733
REMARK INTER:                  -9.257
REMARK INTRA:                  -0.477
REMARK UNBOUND:                -0.771
REMARK  Name = 
REMARK  5 active torsions:
REMARK  status: ('A' for Active; 'I' for Inactive)
REMARK    1  A    between atoms: C_2  and  C_4
REMARK    2  A    between atoms: C_7  and  N_8
REMARK    3  A    between atoms: N_8  and  C_9
REMARK    4  A    between atoms: C_9  and  C_10
REMARK    5  A    between atoms: C_14  and  N_15
REMARK                            x       y       z     vdW  Elec       q    Type
REMARK                         _______ _______ _______ _____ _____    ______ ____
ROOT
ATOM      1  N   UNL     1      44.376   4.360  11.351  0.00  0.00    +0.000 N 
ATOM      2  H   UNL     1      44.584   3.791  12.168  0.00  0.00    +0.000 HD
ENDROOT
BRANCH   1   6
ATOM      3  C   UNL     1      46.058   2.933   7.825  0.00  0.00    +0.000 A 
ATOM      4  C   UNL     1      45.592   2.004   8.739  0.00  0.00    +0.000 A 
ATOM      5  C   UNL     1      44.998   2.469   9.915  0.00  0.00    +0.000 A 
ATOM      6  C   UNL     1      44.860   3.836  10.154  0.00  0.00    +0.000 A 
ATOM      7  C   UNL     1      45.399   4.680   9.172  0.00  0.00    +0.000 A 
ATOM      8  N   UNL     1      45.983   4.277   8.010  0.00  0.00    +0.000 NA
BRANCH   3  10
ATOM      9  N   UNL     1      46.882   3.400   5.591  0.00  0.00    +0.000 N 
ATOM     10  C   UNL     1      46.717   2.455   6.566  0.00  0.00    +0.000 C 
ATOM     11  O   UNL     1      47.099   1.301   6.415  0.00  0.00    +0.000 OA
ATOM     12  H   UNL     1      47.363   3.152   4.741  0.00  0.00    +0.000 HD
ATOM     13  H   UNL     1      46.610   4.360   5.773  0.00  0.00    +0.000 HD
ENDBRANCH   3  10
ENDBRANCH   1   6
BRANCH   1  14
ATOM     14  C   UNL     1      44.490   5.784  11.649  0.00  0.00    +0.000 C 
BRANCH  14  15
ATOM     15  C   UNL     1      45.861   6.072  12.208  0.00  0.00    +0.000 A 
ATOM     16  C   UNL     1      46.742   6.936  11.558  0.00  0.00    +0.000 A 
ATOM     17  C   UNL     1      47.972   7.226  12.135  0.00  0.00    +0.000 A 
ATOM     18  C   UNL     1      48.322   6.661  13.366  0.00  0.00    +0.000 A 
ATOM     19  C   UNL     1      47.468   5.791  14.059  0.00  0.00    +0.000 A 
ATOM     20  C   UNL     1      46.241   5.505  13.443  0.00  0.00    +0.000 A 
BRANCH  19  21
ATOM     21  N   UNL     1      47.834   5.233  15.264  0.00  0.00    +0.000 N 
ATOM     22  C   UNL     1      47.492   3.851  15.637  0.00  0.00    +0.000 C 
ATOM     23  C   UNL     1      46.960   3.834  17.078  0.00  0.00    +0.000 C 
ATOM     24  O   UNL     1      47.894   4.430  17.997  0.00  0.00    +0.000 OA
ATOM     25  C   UNL     1      48.170   5.791  17.616  0.00  0.00    +0.000 C 
ATOM     26  C   UNL     1      48.768   5.876  16.201  0.00  0.00    +0.000 C 
ENDBRANCH  19  21
ENDBRANCH  14  15
ENDBRANCH   1  14
TORSDOF 5
ENDMDL
MODEL 6
REMARK VINA RESULT:    -6.858      1.615      7.154
REMARK INTER + INTRA:          -9.633
REMARK INTER:                  -9.065
REMARK INTRA:                  -0.568
REMARK UNBOUND:                -0.771
REMARK  Name = 
REMARK  5 active torsions:
REMARK  status: ('A' for Active; 'I' for Inactive)
REMARK    1  A    between atoms: C_2  and  C_4
REMARK    2  A    between atoms: C_7  and  N_8
REMARK    3  A    between atoms: N_8  and  C_9
REMARK    4  A    between atoms: C_9  and  C_10
REMARK    5  A    between atoms: C_14  and  N_15
REMARK                            x       y       z     vdW  Elec       q    Type
REMARK                         _______ _______ _______ _____ _____    ______ ____
ROOT
ATOM      1  N   UNL     1      47.469   6.412  12.643  0.00  0.00    +0.000 N 
ATOM      2  H   UNL     1      47.880   5.895  11.868  0.00  0.00    +0.000 HD
ENDROOT
BRANCH   1   6
ATOM      3  C   UNL     1      47.779   4.218  16.164  0.00  0.00    +0.000 A 
ATOM      4  C   UNL     1      48.293   5.503  16.157  0.00  0.00    +0.000 A 
ATOM      5  C   UNL     1      48.171   6.262  14.990  0.00  0.00    +0.000 A 
ATOM      6  C   UNL     1      47.528   5.746  13.865  0.00  0.00    +0.000 A 
ATOM      7  C   UNL     1      47.077   4.422  13.980  0.00  0.00    +0.000 A 
ATOM      8  N   UNL     1      47.169   3.644  15.093  0.00  0.00    +0.000 NA
BRANCH   3  10
ATOM      9  N   UNL     1      46.817   2.642  17.738  0.00  0.00    +0.000 N 
ATOM     10  C   UNL     1      47.918   3.380  17.398  0.00  0.00    +0.000 C 
ATOM     11  O   UNL     1      48.948   3.340  18.059  0.00  0.00    +0.000 OA
ATOM     12  H   UNL     1      46.865   2.021  18.530  0.00  0.00    +0.000 HD
ATOM     13  H   UNL     1      46.002   2.652  17.133  0.00  0.00    +0.000 HD
ENDBRANCH   3  10
ENDBRANCH   1   6
BRANCH   1  14
ATOM     14  C   UNL     1      46.264   7.123  12.231  0.00  0.00    +0.000 C 
BRANCH  14  15
ATOM     15  C   UNL     1      45.275   6.142  11.653  0.00  0.00    +0.000 A 
ATOM     16  C   UNL     1      43.964   6.071  12.125  0.00  0.00    +0.000 A 
ATOM     17  C   UNL     1      43.063   5.199  11.526  0.00  0.00    +0.000 A 
ATOM     18  C   UNL     1      43.467   4.402  10.449  0.00  0.00    +0.000 A 
ATOM     19  C   UNL     1      44.772   4.442   9.937  0.00  0.00    +0.000 A 
ATOM     20  C   UNL     1      45.661   5.319  10.573  0.00  0.00    +0.000 A 
BRANCH  19  21
ATOM     21  N   UNL     1      45.155   3.639   8.886  0.00  0.00    +0.000 N 
ATOM     22  C   UNL     1      44.781   2.220   8.790  0.00  0.00    +0.000 C 
ATOM     23  C   UNL     1      46.016   1.396   8.395  0.00  0.00    +0.000 C 
ATOM     24  O   UNL     1      46.614   1.884   7.180  0.00  0.00    +0.000 OA
ATOM     25  C   UNL     1      47.000   3.263   7.331  0.00  0.00    +0.000 C 
ATOM     26  C   UNL     1      45.793   4.158   7.666  0.00  0.00    +0.000 C 
ENDBRANCH  19  21
ENDBRANCH  14  15
ENDBRANCH   1  14
TORSDOF 5
ENDMDL
MODEL 7
REMARK VINA RESULT:    -6.438      2.464      8.242
REMARK INTER + INTRA:          -9.091
REMARK INTER:                  -8.654
REMARK INTRA:                  -0.437
REMARK UNBOUND:                -0.771
REMARK  Name = 
REMARK  5 active torsions:
REMARK  status: ('A' for Active; 'I' for Inactive)
REMARK    1  A    between atoms: C_2  and  C_4
REMARK    2  A    between atoms: C_7  and  N_8
REMARK    3  A    between atoms: N_8  and  C_9
REMARK    4  A    between atoms: C_9  and  C_10
REMARK    5  A    between atoms: C_14  and  N_15
REMARK                            x       y       z     vdW  Elec       q    Type
REMARK                         _______ _______ _______ _____ _____    ______ ____
ROOT
ATOM      1  N   UNL     1      46.354   4.336  15.043  0.00  0.00    +0.000 N 
ATOM      2  H   UNL     1      45.370   4.305  15.301  0.00  0.00    +0.000 HD
ENDROOT
BRANCH   1   6
ATOM      3  C   UNL     1      49.029   4.576  18.220  0.00  0.00    +0.000 A 
ATOM      4  C   UNL     1      49.144   5.513  17.207  0.00  0.00    +0.000 A 
ATOM      5  C   UNL     1      48.234   5.463  16.148  0.00  0.00    +0.000 A 
ATOM      6  C   UNL     1      47.221   4.504  16.121  0.00  0.00    +0.000 A 
ATOM      7  C   UNL     1      47.225   3.589  17.184  0.00  0.00    +0.000 A 
ATOM      8  N   UNL     1      48.085   3.599  18.239  0.00  0.00    +0.000 NA
BRANCH   3  10
ATOM      9  N   UNL     1      49.483   4.341  20.591  0.00  0.00    +0.000 N 
ATOM     10  C   UNL     1      50.007   4.600  19.355  0.00  0.00    +0.000 C 
ATOM     11  O   UNL     1      51.201   4.823  19.195  0.00  0.00    +0.000 OA
ATOM     12  H   UNL     1      50.098   4.294  21.388  0.00  0.00    +0.000 HD
ATOM     13  H   UNL     1      48.501   4.100  20.679  0.00  0.00    +0.000 HD
ENDBRANCH   3  10
ENDBRANCH   1   6
BRANCH   1  14
ATOM     14  C   UNL     1      46.555   5.065  13.795  0.00  0.00    +0.000 C 
BRANCH  14  15
ATOM     15  C   UNL     1      45.415   4.773  12.853  0.00  0.00    +0.000 A 
ATOM     16  C   UNL     1      44.099   5.098  13.185  0.00  0.00    +0.000 A 
ATOM     17  C   UNL     1      43.082   4.872  12.266  0.00  0.00    +0.000 A 
ATOM     18  C   UNL     1      43.376   4.329  11.011  0.00  0.00    +0.000 A 
ATOM     19  C   UNL     1      44.683   3.991  10.630  0.00  0.00    +0.000 A 
ATOM     20  C   UNL     1      45.685   4.216  11.585  0.00  0.00    +0.000 A 
BRANCH  19  21
ATOM     21  N   UNL     1      44.953   3.444   9.395  0.00  0.00    +0.000 N 
ATOM     22  C   UNL     1      44.770   2.014   9.101  0.00  0.00    +0.000 C 
ATOM     23  C   UNL     1      46.002   1.492   8.346  0.00  0.00    +0.000 C 
ATOM     24  O   UNL     1      46.264   2.262   7.159  0.00  0.00    +0.000 OA
ATOM     25  C   UNL     1      46.475   3.646   7.497  0.00  0.00    +0.000 C 
ATOM     26  C   UNL     1      45.248   4.252   8.202  0.00  0.00    +0.000 C 
ENDBRANCH  19  21
ENDBRANCH  14  15
ENDBRANCH   1  14
TORSDOF 5
ENDMDL
MODEL 8
REMARK VINA RESULT:    -6.374      4.125      8.196
REMARK INTER + INTRA:          -9.007
REMARK INTER:                  -8.476
REMARK INTRA:                  -0.532
REMARK UNBOUND:                -0.771
REMARK  Name = 
REMARK  5 active torsions:
REMARK  status: ('A' for Active; 'I' for Inactive)
REMARK    1  A    between atoms: C_2  and  C_4
REMARK    2  A    between atoms: C_7  and  N_8
REMARK    3  A    between atoms: N_8  and  C_9
REMARK    4  A    between atoms: C_9  and  C_10
REMARK    5  A    between atoms: C_14  and  N_15
REMARK                            x       y       z     vdW  Elec       q    Type
REMARK                         _______ _______ _______ _____ _____    ______ ____
ROOT
ATOM      1  N   UNL     1      48.884   4.387  17.146  0.00  0.00    +0.000 N 
ATOM      2  H   UNL     1      49.158   5.306  16.807  0.00  0.00    +0.000 HD
ENDROOT
BRANCH   1   6
ATOM      3  C   UNL     1      52.070   1.754  17.619  0.00  0.00    +0.000 A 
ATOM      4  C   UNL     1      52.271   3.079  17.966  0.00  0.00    +0.000 A 
ATOM      5  C   UNL     1      51.202   3.969  17.840  0.00  0.00    +0.000 A 
ATOM      6  C   UNL     1      49.955   3.530  17.394  0.00  0.00    +0.000 A 
ATOM      7  C   UNL     1      49.881   2.174  17.041  0.00  0.00    +0.000 A 
ATOM      8  N   UNL     1      50.891   1.268  17.150  0.00  0.00    +0.000 NA
BRANCH   3  10
ATOM      9  N   UNL     1      52.922  -0.396  18.352  0.00  0.00    +0.000 N 
ATOM     10  C   UNL     1      53.209   0.787  17.728  0.00  0.00    +0.000 C 
ATOM     11  O   UNL     1      54.325   1.024  17.280  0.00  0.00    +0.000 OA
ATOM     12  H   UNL     1      53.634  -1.107  18.412  0.00  0.00    +0.000 HD
ATOM     13  H   UNL     1      51.973  -0.584  18.656  0.00  0.00    +0.000 HD
ENDBRANCH   3  10
ENDBRANCH   1   6
BRANCH   1  14
ATOM     14  C   UNL     1      47.678   3.909  16.478  0.00  0.00    +0.000 C 
BRANCH  14  15
ATOM     15  C   UNL     1      47.395   4.773  15.275  0.00  0.00    +0.000 A 
ATOM     16  C   UNL     1      48.157   5.909  15.001  0.00  0.00    +0.000 A 
ATOM     17  C   UNL     1      47.907   6.644  13.850  0.00  0.00    +0.000 A 
ATOM     18  C   UNL     1      46.900   6.244  12.964  0.00  0.00    +0.000 A 
ATOM     19  C   UNL     1      46.111   5.107  13.194  0.00  0.00    +0.000 A 
ATOM     20  C   UNL     1      46.377   4.395  14.373  0.00  0.00    +0.000 A 
BRANCH  19  21
ATOM     21  N   UNL     1      45.115   4.736  12.319  0.00  0.00    +0.000 N 
ATOM     22  C   UNL     1      43.818   4.207  12.768  0.00  0.00    +0.000 C 
ATOM     23  C   UNL     1      43.459   2.970  11.930  0.00  0.00    +0.000 C 
ATOM     24  O   UNL     1      43.469   3.261  10.521  0.00  0.00    +0.000 OA
ATOM     25  C   UNL     1      44.766   3.739  10.118  0.00  0.00    +0.000 C 
ATOM     26  C   UNL     1      45.161   5.019  10.876  0.00  0.00    +0.000 C 
ENDBRANCH  19  21
ENDBRANCH  14  15
ENDBRANCH   1  14
TORSDOF 5
ENDMDL
MODEL 9
REMARK VINA RESULT:    -6.233      2.185      7.180
REMARK INTER + INTRA:          -8.825
REMARK INTER:                  -8.182
REMARK INTRA:                  -0.644
REMARK UNBOUND:                -0.771
REMARK  Name = 
REMARK  5 active torsions:
REMARK  status: ('A' for Active; 'I' for Inactive)
REMARK    1  A    between atoms: C_2  and  C_4
REMARK    2  A    between atoms: C_7  and  N_8
REMARK    3  A    between atoms: N_8  and  C_9
REMARK    4  A    between atoms: C_9  and  C_10
REMARK    5  A    between atoms: C_14  and  N_15
REMARK                            x       y       z     vdW  Elec       q    Type
REMARK                         _______ _______ _______ _____ _____    ______ ____
ROOT
ATOM      1  N   UNL     1      46.151   7.133  11.744  0.00  0.00    +0.000 N 
ATOM      2  H   UNL     1      46.238   6.636  10.861  0.00  0.00    +0.000 HD
ENDROOT
BRANCH   1   6
ATOM      3  C   UNL     1      49.748   7.512  13.798  0.00  0.00    +0.000 A 
ATOM      4  C   UNL     1      49.760   7.730  12.432  0.00  0.00    +0.000 A 
ATOM      5  C   UNL     1      48.554   7.635  11.732  0.00  0.00    +0.000 A 
ATOM      6  C   UNL     1      47.362   7.347  12.398  0.00  0.00    +0.000 A 
ATOM      7  C   UNL     1      47.481   7.112  13.777  0.00  0.00    +0.000 A 
ATOM      8  N   UNL     1      48.629   7.197  14.502  0.00  0.00    +0.000 NA
BRANCH   3  10
ATOM      9  N   UNL     1      52.027   8.324  13.977  0.00  0.00    +0.000 N 
ATOM     10  C   UNL     1      51.035   7.589  14.564  0.00  0.00    +0.000 C 
ATOM     11  O   UNL     1      51.193   7.044  15.650  0.00  0.00    +0.000 OA
ATOM     12  H   UNL     1      52.899   8.455  14.466  0.00  0.00    +0.000 HD
ATOM     13  H   UNL     1      51.841   8.813  13.108  0.00  0.00    +0.000 HD
ENDBRANCH   3  10
ENDBRANCH   1   6
BRANCH   1  14
ATOM     14  C   UNL     1      44.964   6.712  12.480  0.00  0.00    +0.000 C 
BRANCH  14  15
ATOM     15  C   UNL     1      44.587   5.312  12.066  0.00  0.00    +0.000 A 
ATOM     16  C   UNL     1      43.789   4.505  12.879  0.00  0.00    +0.000 A 
ATOM     17  C   UNL     1      43.411   3.244  12.437  0.00  0.00    +0.000 A 
ATOM     18  C   UNL     1      43.821   2.787  11.180  0.00  0.00    +0.000 A 
ATOM     19  C   UNL     1      44.618   3.563  10.326  0.00  0.00    +0.000 A 
ATOM     20  C   UNL     1      44.997   4.824  10.807  0.00  0.00    +0.000 A 
BRANCH  19  21
ATOM     21  N   UNL     1      45.024   3.091   9.097  0.00  0.00    +0.000 N 
ATOM     22  C   UNL     1      45.034   1.660   8.757  0.00  0.00    +0.000 C 
ATOM     23  C   UNL     1      46.362   1.313   8.068  0.00  0.00    +0.000 C 
ATOM     24  O   UNL     1      46.598   2.147   6.918  0.00  0.00    +0.000 OA
ATOM     25  C   UNL     1      46.618   3.534   7.302  0.00  0.00    +0.000 C 
ATOM     26  C   UNL     1      45.288   3.966   7.944  0.00  0.00    +0.000 C 
ENDBRANCH  19  21
ENDBRANCH  14  15
ENDBRANCH   1  14
TORSDOF 5
ENDMDL
