MODEL 1
REMARK VINA RESULT:    -7.801      0.000      0.000
REMARK INTER + INTRA:         -11.960
REMARK INTER:                 -10.994
REMARK INTRA:                  -0.966
REMARK UNBOUND:                -0.966
REMARK  Name = 
REMARK  9 active torsions:
REMARK  status: ('A' for Active; 'I' for Inactive)
REMARK    1  A    between atoms: C_1  and  C_2
REMARK    2  A    between atoms: C_2  and  C_3
REMARK    3  A    between atoms: C_3  and  C_4
REMARK    4  A    between atoms: C_3  and  C_5
REMARK    5  A    between atoms: C_3  and  C_16
REMARK    6  A    between atoms: C_5  and  O_6
REMARK    7  A    between atoms: O_6  and  C_7
REMARK    8  A    between atoms: C_10  and  C_11
REMARK    9  A    between atoms: C_20  and  C_21
REMARK                            x       y       z     vdW  Elec       q    Type
REMARK                         _______ _______ _______ _____ _____    ______ ____
ROOT
ATOM      1  C   UNL     1      43.822   4.383  12.036  0.00  0.00    +0.000 C 
ATOM      2  C   UNL     1      43.669   2.928  12.534  0.00  0.00    +0.000 C 
ENDROOT
BRANCH   1   3
ATOM      3  C   UNL     1      45.222   4.923  12.462  0.00  0.00    +0.000 A 
ATOM      4  C   UNL     1      45.891   5.882  11.673  0.00  0.00    +0.000 A 
ATOM      5  C   UNL     1      47.114   6.435  12.069  0.00  0.00    +0.000 A 
ATOM      6  C   UNL     1      47.691   6.064  13.279  0.00  0.00    +0.000 A 
ATOM      7  C   UNL     1      47.050   5.128  14.090  0.00  0.00    +0.000 A 
ATOM      8  C   UNL     1      45.850   4.536  13.662  0.00  0.00    +0.000 A 
BRANCH   7   9
ATOM      9  C   UNL     1      47.646   4.814  15.417  0.00  0.00    +0.000 C 
ATOM     10  N   UNL     1      47.037   3.840  16.163  0.00  0.00    +0.000 N 
ATOM     11  O   UNL     1      48.602   5.435  15.860  0.00  0.00    +0.000 OA
ATOM     12  H   UNL     1      46.122   3.470  15.941  0.00  0.00    +0.000 HD
ATOM     13  H   UNL     1      47.357   3.745  17.117  0.00  0.00    +0.000 HD
ENDBRANCH   7   9
ENDBRANCH   1   3
BRANCH   1  15
ATOM     14  C   UNL     1      42.124   6.423  11.830  0.00  0.00    +0.000 C 
ATOM     15  C   UNL     1      42.666   5.253  12.642  0.00  0.00    +0.000 C 
ENDBRANCH   1  15
BRANCH   1  16
ATOM     16  C   UNL     1      43.764   4.416  10.477  0.00  0.00    +0.000 C 
BRANCH  16  17
ATOM     17  O   UNL     1      43.717   3.098   9.909  0.00  0.00    +0.000 OA
BRANCH  17  18
ATOM     18  C   UNL     1      44.736   2.867   9.011  0.00  0.00    +0.000 A 
ATOM     19  C   UNL     1      45.172   3.925   8.220  0.00  0.00    +0.000 A 
ATOM     20  N   UNL     1      46.169   3.808   7.303  0.00  0.00    +0.000 NA
ATOM     21  C   UNL     1      46.709   2.556   7.221  0.00  0.00    +0.000 A 
ATOM     22  C   UNL     1      46.276   1.501   8.008  0.00  0.00    +0.000 A 
ATOM     23  N   UNL     1      45.280   1.633   8.918  0.00  0.00    +0.000 NA
BRANCH  21  24
ATOM     24  C   UNL     1      47.810   2.324   6.246  0.00  0.00    +0.000 C 
ATOM     25  N   UNL     1      47.748   3.036   5.078  0.00  0.00    +0.000 N 
ATOM     26  O   UNL     1      48.721   1.540   6.471  0.00  0.00    +0.000 OA
ATOM     27  H   UNL     1      46.984   3.678   4.908  0.00  0.00    +0.000 HD
ATOM     28  H   UNL     1      48.473   2.910   4.390  0.00  0.00    +0.000 HD
ENDBRANCH  21  24
ENDBRANCH  17  18
ENDBRANCH  16  17
ENDBRANCH   1  16
TORSDOF 7
ENDMDL
MODEL 2
REMARK VINA RESULT:    -7.220      1.494      1.662
REMARK INTER + INTRA:         -11.141
REMARK INTER:                 -10.470
REMARK INTRA:                  -0.670
REMARK UNBOUND:                -0.966
REMARK  Name = 
REMARK  9 active torsions:
REMARK  status: ('A' for Active; 'I' for Inactive)
REMARK    1  A    between atoms: C_1  and  C_2
REMARK    2  A    between atoms: C_2  and  C_3
REMARK    3  A    between atoms: C_3  and  C_4
REMARK    4  A    between atoms: C_3  and  C_5
REMARK    5  A    between atoms: C_3  and  C_16
REMARK    6  A    between atoms: C_5  and  O_6
REMARK    7  A    between atoms: O_6  and  C_7
REMARK    8  A    between atoms: C_10  and  C_11
REMARK    9  A    between atoms: C_20  and  C_21
REMARK                            x       y       z     vdW  Elec       q    Type
REMARK                         _______ _______ _______ _____ _____    ______ ____
ROOT
ATOM      1  C   UNL     1      44.784   5.174  12.247  0.00  0.00    +0.000 C 
ATOM      2  C   UNL     1      45.459   3.842  12.647  0.00  0.00    +0.000 C 
ENDROOT
BRANCH   1   3
ATOM      3  C   UNL     1      45.682   6.360  12.712  0.00  0.00    +0.000 A 
ATOM      4  C   UNL     1      45.310   7.693  12.436  0.00  0.00    +0.000 A 
ATOM      5  C   UNL     1      46.059   8.777  12.905  0.00  0.00    +0.000 A 
ATOM      6  C   UNL     1      47.190   8.561  13.685  0.00  0.00    +0.000 A 
ATOM      7  C   UNL     1      47.580   7.256  13.988  0.00  0.00    +0.000 A 
ATOM      8  C   UNL     1      46.854   6.171  13.470  0.00  0.00    +0.000 A 
BRANCH   7   9
ATOM      9  C   UNL     1      48.743   7.056  14.895  0.00  0.00    +0.000 C 
ATOM     10  N   UNL     1      48.522   7.198  16.239  0.00  0.00    +0.000 N 
ATOM     11  O   UNL     1      49.867   6.835  14.466  0.00  0.00    +0.000 OA
ATOM     12  H   UNL     1      47.675   7.603  16.616  0.00  0.00    +0.000 HD
ATOM     13  H   UNL     1      49.344   7.211  16.826  0.00  0.00    +0.000 HD
ENDBRANCH   7   9
ENDBRANCH   1   3
BRANCH   1  15
ATOM     14  C   UNL     1      42.177   5.677  12.049  0.00  0.00    +0.000 C 
ATOM     15  C   UNL     1      43.361   5.241  12.903  0.00  0.00    +0.000 C 
ENDBRANCH   1  15
BRANCH   1  16
ATOM     16  C   UNL     1      44.667   5.258  10.692  0.00  0.00    +0.000 C 
BRANCH  16  17
ATOM     17  O   UNL     1      44.236   4.018  10.113  0.00  0.00    +0.000 OA
BRANCH  17  18
ATOM     18  C   UNL     1      45.103   3.548   9.151  0.00  0.00    +0.000 A 
ATOM     19  C   UNL     1      45.701   4.468   8.295  0.00  0.00    +0.000 A 
ATOM     20  N   UNL     1      46.570   4.114   7.311  0.00  0.00    +0.000 NA
ATOM     21  C   UNL     1      46.807   2.772   7.230  0.00  0.00    +0.000 A 
ATOM     22  C   UNL     1      46.213   1.853   8.082  0.00  0.00    +0.000 A 
ATOM     23  N   UNL     1      45.346   2.221   9.058  0.00  0.00    +0.000 NA
BRANCH  21  24
ATOM     24  C   UNL     1      47.747   2.281   6.185  0.00  0.00    +0.000 C 
ATOM     25  N   UNL     1      47.868   3.057   5.063  0.00  0.00    +0.000 N 
ATOM     26  O   UNL     1      48.378   1.242   6.316  0.00  0.00    +0.000 OA
ATOM     27  H   UNL     1      47.334   3.913   4.971  0.00  0.00    +0.000 HD
ATOM     28  H   UNL     1      48.494   2.764   4.330  0.00  0.00    +0.000 HD
ENDBRANCH  21  24
ENDBRANCH  17  18
ENDBRANCH  16  17
ENDBRANCH   1  16
TORSDOF 7
ENDMDL
MODEL 3
REMARK VINA RESULT:    -7.095      2.101      2.434
REMARK INTER + INTRA:         -10.964
REMARK INTER:                 -10.139
REMARK INTRA:                  -0.825
REMARK UNBOUND:                -0.966
REMARK  Name = 
REMARK  9 active torsions:
REMARK  status: ('A' for Active; 'I' for Inactive)
REMARK    1  A    between atoms: C_1  and  C_2
REMARK    2  A    between atoms: C_2  and  C_3
REMARK    3  A    between atoms: C_3  and  C_4
REMARK    4  A    between atoms: C_3  and  C_5
REMARK    5  A    between atoms: C_3  and  C_16
REMARK    6  A    between atoms: C_5  and  O_6
REMARK    7  A    between atoms: O_6  and  C_7
REMARK    8  A    between atoms: C_10  and  C_11
REMARK    9  A    between atoms: C_20  and  C_21
REMARK                            x       y       z     vdW  Elec       q    Type
REMARK                         _______ _______ _______ _____ _____    ______ ____
ROOT
ATOM      1  C   UNL     1      44.146   4.604  12.152  0.00  0.00    +0.000 C 
ATOM      2  C   UNL     1      43.286   4.145  13.351  0.00  0.00    +0.000 C 
ENDROOT
BRANCH   1   3
ATOM      3  C   UNL     1      45.335   5.464  12.677  0.00  0.00    +0.000 A 
ATOM      4  C   UNL     1      46.493   4.847  13.195  0.00  0.00    +0.000 A 
ATOM      5  C   UNL     1      47.603   5.593  13.607  0.00  0.00    +0.000 A 
ATOM      6  C   UNL     1      47.596   6.980  13.488  0.00  0.00    +0.000 A 
ATOM      7  C   UNL     1      46.473   7.622  12.968  0.00  0.00    +0.000 A 
ATOM      8  C   UNL     1      45.342   6.871  12.607  0.00  0.00    +0.000 A 
BRANCH   7   9
ATOM      9  C   UNL     1      46.526   9.096  12.773  0.00  0.00    +0.000 C 
ATOM     10  N   UNL     1      47.457   9.792  13.497  0.00  0.00    +0.000 N 
ATOM     11  O   UNL     1      45.736   9.681  12.043  0.00  0.00    +0.000 OA
ATOM     12  H   UNL     1      47.964   9.385  14.272  0.00  0.00    +0.000 HD
ATOM     13  H   UNL     1      47.380  10.799  13.470  0.00  0.00    +0.000 HD
ENDBRANCH   7   9
ENDBRANCH   1   3
BRANCH   1  15
ATOM     14  C   UNL     1      41.970   6.066  11.688  0.00  0.00    +0.000 C 
ATOM     15  C   UNL     1      43.244   5.419  11.160  0.00  0.00    +0.000 C 
ENDBRANCH   1  15
BRANCH   1  16
ATOM     16  C   UNL     1      44.753   3.358  11.432  0.00  0.00    +0.000 C 
BRANCH  16  17
ATOM     17  O   UNL     1      44.090   3.074  10.191  0.00  0.00    +0.000 OA
BRANCH  17  18
ATOM     18  C   UNL     1      44.971   2.856   9.154  0.00  0.00    +0.000 A 
ATOM     19  C   UNL     1      45.248   3.911   8.291  0.00  0.00    +0.000 A 
ATOM     20  N   UNL     1      46.101   3.806   7.236  0.00  0.00    +0.000 NA
ATOM     21  C   UNL     1      46.663   2.570   7.091  0.00  0.00    +0.000 A 
ATOM     22  C   UNL     1      46.387   1.517   7.951  0.00  0.00    +0.000 A 
ATOM     23  N   UNL     1      45.534   1.637   8.998  0.00  0.00    +0.000 NA
BRANCH  21  24
ATOM     24  C   UNL     1      47.612   2.352   5.966  0.00  0.00    +0.000 C 
ATOM     25  N   UNL     1      47.508   3.213   4.906  0.00  0.00    +0.000 N 
ATOM     26  O   UNL     1      48.441   1.453   5.982  0.00  0.00    +0.000 OA
ATOM     27  H   UNL     1      46.812   3.949   4.910  0.00  0.00    +0.000 HD
ATOM     28  H   UNL     1      48.131   3.102   4.123  0.00  0.00    +0.000 HD
ENDBRANCH  21  24
ENDBRANCH  17  18
ENDBRANCH  16  17
ENDBRANCH   1  16
TORSDOF 7
ENDMDL
MODEL 4
REMARK VINA RESULT:    -6.966      2.508      3.045
REMARK INTER + INTRA:         -10.784
REMARK INTER:                 -10.098
REMARK INTRA:                  -0.686
REMARK UNBOUND:                -0.966
REMARK  Name = 
REMARK  9 active torsions:
REMARK  status: ('A' for Active; 'I' for Inactive)
REMARK    1  A    between atoms: C_1  and  C_2
REMARK    2  A    between atoms: C_2  and  C_3
REMARK    3  A    between atoms: C_3  and  C_4
REMARK    4  A    between atoms: C_3  and  C_5
REMARK    5  A    between atoms: C_3  and  C_16
REMARK    6  A    between atoms: C_5  and  O_6
REMARK    7  A    between atoms: O_6  and  C_7
REMARK    8  A    between atoms: C_10  and  C_11
REMARK    9  A    between atoms: C_20  and  C_21
REMARK                            x       y       z     vdW  Elec       q    Type
REMARK                         _______ _______ _______ _____ _____    ______ ____
ROOT
ATOM      1  C   UNL     1      44.389   4.864  11.947  0.00  0.00    +0.000 C 
ATOM      2  C   UNL     1      45.115   3.624  12.516  0.00  0.00    +0.000 C 
ENDROOT
BRANCH   1   3
ATOM      3  C   UNL     1      45.322   6.105  12.078  0.00  0.00    +0.000 A 
ATOM      4  C   UNL     1      46.706   5.942  12.303  0.00  0.00    +0.000 A 
ATOM      5  C   UNL     1      47.576   7.037  12.353  0.00  0.00    +0.000 A 
ATOM      6  C   UNL     1      47.091   8.326  12.153  0.00  0.00    +0.000 A 
ATOM      7  C   UNL     1      45.731   8.522  11.915  0.00  0.00    +0.000 A 
ATOM      8  C   UNL     1      44.855   7.424  11.920  0.00  0.00    +0.000 A 
BRANCH   7   9
ATOM      9  C   UNL     1      45.256   9.901  11.620  0.00  0.00    +0.000 C 
ATOM     10  N   UNL     1      45.704  10.907  12.434  0.00  0.00    +0.000 N 
ATOM     11  O   UNL     1      44.450  10.129  10.728  0.00  0.00    +0.000 OA
ATOM     12  H   UNL     1      46.177  10.733  13.310  0.00  0.00    +0.000 HD
ATOM     13  H   UNL     1      45.256  11.806  12.318  0.00  0.00    +0.000 HD
ENDBRANCH   7   9
ENDBRANCH   1   3
BRANCH   1  15
ATOM     14  C   UNL     1      41.881   5.755  12.025  0.00  0.00    +0.000 C 
ATOM     15  C   UNL     1      43.046   5.071  12.731  0.00  0.00    +0.000 C 
ENDBRANCH   1  15
BRANCH   1  16
ATOM     16  C   UNL     1      44.101   4.654  10.427  0.00  0.00    +0.000 C 
BRANCH  16  17
ATOM     17  O   UNL     1      44.113   3.267  10.060  0.00  0.00    +0.000 OA
BRANCH  17  18
ATOM     18  C   UNL     1      45.020   2.987   9.061  0.00  0.00    +0.000 A 
ATOM     19  C   UNL     1      45.400   4.017   8.207  0.00  0.00    +0.000 A 
ATOM     20  N   UNL     1      46.287   3.851   7.189  0.00  0.00    +0.000 NA
ATOM     21  C   UNL     1      46.774   2.581   7.073  0.00  0.00    +0.000 A 
ATOM     22  C   UNL     1      46.397   1.553   7.924  0.00  0.00    +0.000 A 
ATOM     23  N   UNL     1      45.511   1.734   8.934  0.00  0.00    +0.000 NA
BRANCH  21  24
ATOM     24  C   UNL     1      47.754   2.296   5.988  0.00  0.00    +0.000 C 
ATOM     25  N   UNL     1      47.731   3.140   4.910  0.00  0.00    +0.000 N 
ATOM     26  O   UNL     1      48.538   1.360   6.052  0.00  0.00    +0.000 OA
ATOM     27  H   UNL     1      47.071   3.908   4.874  0.00  0.00    +0.000 HD
ATOM     28  H   UNL     1      48.377   2.985   4.154  0.00  0.00    +0.000 HD
ENDBRANCH  21  24
ENDBRANCH  17  18
ENDBRANCH  16  17
ENDBRANCH   1  16
TORSDOF 7
ENDMDL
MODEL 5
REMARK VINA RESULT:    -6.745      1.733      2.391
REMARK INTER + INTRA:         -10.471
REMARK INTER:                  -9.632
REMARK INTRA:                  -0.839
REMARK UNBOUND:                -0.966
REMARK  Name = 
REMARK  9 active torsions:
REMARK  status: ('A' for Active; 'I' for Inactive)
REMARK    1  A    between atoms: C_1  and  C_2
REMARK    2  A    between atoms: C_2  and  C_3
REMARK    3  A    between atoms: C_3  and  C_4
REMARK    4  A    between atoms: C_3  and  C_5
REMARK    5  A    between atoms: C_3  and  C_16
REMARK    6  A    between atoms: C_5  and  O_6
REMARK    7  A    between atoms: O_6  and  C_7
REMARK    8  A    between atoms: C_10  and  C_11
REMARK    9  A    between atoms: C_20  and  C_21
REMARK                            x       y       z     vdW  Elec       q    Type
REMARK                         _______ _______ _______ _____ _____    ______ ____
ROOT
ATOM      1  C   UNL     1      45.170   6.765  11.998  0.00  0.00    +0.000 C 
ATOM      2  C   UNL     1      43.913   6.000  12.472  0.00  0.00    +0.000 C 
ENDROOT
BRANCH   1   3
ATOM      3  C   UNL     1      46.330   6.515  13.009  0.00  0.00    +0.000 A 
ATOM      4  C   UNL     1      47.249   7.541  13.314  0.00  0.00    +0.000 A 
ATOM      5  C   UNL     1      48.255   7.366  14.271  0.00  0.00    +0.000 A 
ATOM      6  C   UNL     1      48.355   6.167  14.970  0.00  0.00    +0.000 A 
ATOM      7  C   UNL     1      47.454   5.136  14.703  0.00  0.00    +0.000 A 
ATOM      8  C   UNL     1      46.481   5.299  13.703  0.00  0.00    +0.000 A 
BRANCH   7   9
ATOM      9  C   UNL     1      47.531   3.898  15.525  0.00  0.00    +0.000 C 
ATOM     10  N   UNL     1      47.382   4.034  16.879  0.00  0.00    +0.000 N 
ATOM     11  O   UNL     1      47.777   2.806  15.029  0.00  0.00    +0.000 OA
ATOM     12  H   UNL     1      47.409   4.930  17.346  0.00  0.00    +0.000 HD
ATOM     13  H   UNL     1      47.587   3.215  17.434  0.00  0.00    +0.000 HD
ENDBRANCH   7   9
ENDBRANCH   1   3
BRANCH   1  15
ATOM     14  C   UNL     1      43.728   8.729  10.926  0.00  0.00    +0.000 C 
ATOM     15  C   UNL     1      44.826   8.291  11.887  0.00  0.00    +0.000 C 
ENDBRANCH   1  15
BRANCH   1  16
ATOM     16  C   UNL     1      45.631   6.213  10.612  0.00  0.00    +0.000 C 
BRANCH  16  17
ATOM     17  O   UNL     1      44.648   5.354  10.017  0.00  0.00    +0.000 OA
BRANCH  17  18
ATOM     18  C   UNL     1      45.207   4.322   9.294  0.00  0.00    +0.000 A 
ATOM     19  C   UNL     1      44.997   3.019   9.733  0.00  0.00    +0.000 A 
ATOM     20  N   UNL     1      45.501   1.929   9.096  0.00  0.00    +0.000 NA
ATOM     21  C   UNL     1      46.239   2.221   7.985  0.00  0.00    +0.000 A 
ATOM     22  C   UNL     1      46.450   3.519   7.546  0.00  0.00    +0.000 A 
ATOM     23  N   UNL     1      45.941   4.597   8.192  0.00  0.00    +0.000 NA
BRANCH  21  24
ATOM     24  C   UNL     1      46.836   1.095   7.216  0.00  0.00    +0.000 C 
ATOM     25  N   UNL     1      46.627  -0.162   7.717  0.00  0.00    +0.000 N 
ATOM     26  O   UNL     1      47.478   1.277   6.191  0.00  0.00    +0.000 OA
ATOM     27  H   UNL     1      46.096  -0.293   8.569  0.00  0.00    +0.000 HD
ATOM     28  H   UNL     1      47.012  -0.954   7.228  0.00  0.00    +0.000 HD
ENDBRANCH  21  24
ENDBRANCH  17  18
ENDBRANCH  16  17
ENDBRANCH   1  16
TORSDOF 7
ENDMDL
MODEL 6
REMARK VINA RESULT:    -6.568      3.742      6.637
REMARK INTER + INTRA:         -10.223
REMARK INTER:                  -9.483
REMARK INTRA:                  -0.740
REMARK UNBOUND:                -0.966
REMARK  Name = 
REMARK  9 active torsions:
REMARK  status: ('A' for Active; 'I' for Inactive)
REMARK    1  A    between atoms: C_1  and  C_2
REMARK    2  A    between atoms: C_2  and  C_3
REMARK    3  A    between atoms: C_3  and  C_4
REMARK    4  A    between atoms: C_3  and  C_5
REMARK    5  A    between atoms: C_3  and  C_16
REMARK    6  A    between atoms: C_5  and  O_6
REMARK    7  A    between atoms: O_6  and  C_7
REMARK    8  A    between atoms: C_10  and  C_11
REMARK    9  A    between atoms: C_20  and  C_21
REMARK                            x       y       z     vdW  Elec       q    Type
REMARK                         _______ _______ _______ _____ _____    ______ ____
ROOT
ATOM      1  C   UNL     1      48.184   4.246  17.303  0.00  0.00    +0.000 C 
ATOM      2  C   UNL     1      47.483   2.891  17.551  0.00  0.00    +0.000 C 
ENDROOT
BRANCH   1   3
ATOM      3  C   UNL     1      49.728   4.039  17.365  0.00  0.00    +0.000 A 
ATOM      4  C   UNL     1      50.598   5.147  17.444  0.00  0.00    +0.000 A 
ATOM      5  C   UNL     1      51.982   4.988  17.574  0.00  0.00    +0.000 A 
ATOM      6  C   UNL     1      52.534   3.713  17.653  0.00  0.00    +0.000 A 
ATOM      7  C   UNL     1      51.703   2.595  17.591  0.00  0.00    +0.000 A 
ATOM      8  C   UNL     1      50.320   2.762  17.407  0.00  0.00    +0.000 A 
BRANCH   7   9
ATOM      9  C   UNL     1      52.312   1.249  17.764  0.00  0.00    +0.000 C 
ATOM     10  N   UNL     1      51.484   0.233  18.163  0.00  0.00    +0.000 N 
ATOM     11  O   UNL     1      53.512   1.058  17.619  0.00  0.00    +0.000 OA
ATOM     12  H   UNL     1      50.549   0.393  18.514  0.00  0.00    +0.000 HD
ATOM     13  H   UNL     1      51.936  -0.633  18.423  0.00  0.00    +0.000 HD
ENDBRANCH   7   9
ENDBRANCH   1   3
BRANCH   1  15
ATOM     14  C   UNL     1      48.168   5.103  19.823  0.00  0.00    +0.000 C 
ATOM     15  C   UNL     1      47.700   5.275  18.383  0.00  0.00    +0.000 C 
ENDBRANCH   1  15
BRANCH   1  16
ATOM     16  C   UNL     1      47.839   4.763  15.870  0.00  0.00    +0.000 C 
BRANCH  16  17
ATOM     17  O   UNL     1      47.639   3.688  14.940  0.00  0.00    +0.000 OA
BRANCH  17  18
ATOM     18  C   UNL     1      46.767   4.017  13.925  0.00  0.00    +0.000 A 
ATOM     19  C   UNL     1      46.567   5.363  13.636  0.00  0.00    +0.000 A 
ATOM     20  N   UNL     1      45.731   5.798  12.656  0.00  0.00    +0.000 NA
ATOM     21  C   UNL     1      45.096   4.797  11.977  0.00  0.00    +0.000 A 
ATOM     22  C   UNL     1      45.294   3.455  12.263  0.00  0.00    +0.000 A 
ATOM     23  N   UNL     1      46.131   3.037  13.244  0.00  0.00    +0.000 NA
BRANCH  21  24
ATOM     24  C   UNL     1      44.158   5.170  10.882  0.00  0.00    +0.000 C 
ATOM     25  N   UNL     1      44.647   5.083   9.606  0.00  0.00    +0.000 N 
ATOM     26  O   UNL     1      43.013   5.535  11.106  0.00  0.00    +0.000 OA
ATOM     27  H   UNL     1      45.600   4.782   9.441  0.00  0.00    +0.000 HD
ATOM     28  H   UNL     1      44.046   5.324   8.835  0.00  0.00    +0.000 HD
ENDBRANCH  21  24
ENDBRANCH  17  18
ENDBRANCH  16  17
ENDBRANCH   1  16
TORSDOF 7
ENDMDL
MODEL 7
REMARK VINA RESULT:    -6.373      1.668      2.261
REMARK INTER + INTRA:          -9.947
REMARK INTER:                  -9.088
REMARK INTRA:                  -0.859
REMARK UNBOUND:                -0.966
REMARK  Name = 
REMARK  9 active torsions:
REMARK  status: ('A' for Active; 'I' for Inactive)
REMARK    1  A    between atoms: C_1  and  C_2
REMARK    2  A    between atoms: C_2  and  C_3
REMARK    3  A    between atoms: C_3  and  C_4
REMARK    4  A    between atoms: C_3  and  C_5
REMARK    5  A    between atoms: C_3  and  C_16
REMARK    6  A    between atoms: C_5  and  O_6
REMARK    7  A    between atoms: O_6  and  C_7
REMARK    8  A    between atoms: C_10  and  C_11
REMARK    9  A    between atoms: C_20  and  C_21
REMARK                            x       y       z     vdW  Elec       q    Type
REMARK                         _______ _______ _______ _____ _____    ______ ____
ROOT
ATOM      1  C   UNL     1      44.471   6.519  11.510  0.00  0.00    +0.000 C 
ATOM      2  C   UNL     1      43.005   6.120  11.792  0.00  0.00    +0.000 C 
ENDROOT
BRANCH   1   3
ATOM      3  C   UNL     1      45.396   5.838  12.564  0.00  0.00    +0.000 A 
ATOM      4  C   UNL     1      45.224   4.478  12.897  0.00  0.00    +0.000 A 
ATOM      5  C   UNL     1      46.085   3.824  13.785  0.00  0.00    +0.000 A 
ATOM      6  C   UNL     1      47.161   4.506  14.346  0.00  0.00    +0.000 A 
ATOM      7  C   UNL     1      47.368   5.848  14.029  0.00  0.00    +0.000 A 
ATOM      8  C   UNL     1      46.468   6.513  13.179  0.00  0.00    +0.000 A 
BRANCH   7   9
ATOM      9  C   UNL     1      48.574   6.528  14.576  0.00  0.00    +0.000 C 
ATOM     10  N   UNL     1      48.602   6.765  15.925  0.00  0.00    +0.000 N 
ATOM     11  O   UNL     1      49.481   6.917  13.853  0.00  0.00    +0.000 OA
ATOM     12  H   UNL     1      47.786   6.672  16.515  0.00  0.00    +0.000 HD
ATOM     13  H   UNL     1      49.350   7.359  16.256  0.00  0.00    +0.000 HD
ENDBRANCH   7   9
ENDBRANCH   1   3
BRANCH   1  15
ATOM     14  C   UNL     1      43.531   8.928  10.873  0.00  0.00    +0.000 C 
ATOM     15  C   UNL     1      44.593   8.082  11.566  0.00  0.00    +0.000 C 
ENDBRANCH   1  15
BRANCH   1  16
ATOM     16  C   UNL     1      44.899   5.994  10.104  0.00  0.00    +0.000 C 
BRANCH  16  17
ATOM     17  O   UNL     1      44.078   4.902   9.661  0.00  0.00    +0.000 OA
BRANCH  17  18
ATOM     18  C   UNL     1      44.809   3.882   9.092  0.00  0.00    +0.000 A 
ATOM     19  C   UNL     1      45.765   4.208   8.136  0.00  0.00    +0.000 A 
ATOM     20  N   UNL     1      46.541   3.281   7.512  0.00  0.00    +0.000 NA
ATOM     21  C   UNL     1      46.299   1.995   7.902  0.00  0.00    +0.000 A 
ATOM     22  C   UNL     1      45.346   1.668   8.855  0.00  0.00    +0.000 A 
ATOM     23  N   UNL     1      44.580   2.604   9.468  0.00  0.00    +0.000 NA
BRANCH  21  24
ATOM     24  C   UNL     1      47.097   0.905   7.278  0.00  0.00    +0.000 C 
ATOM     25  N   UNL     1      46.778  -0.373   7.651  0.00  0.00    +0.000 N 
ATOM     26  O   UNL     1      47.991   1.134   6.474  0.00  0.00    +0.000 OA
ATOM     27  H   UNL     1      46.037  -0.542   8.320  0.00  0.00    +0.000 HD
ATOM     28  H   UNL     1      47.293  -1.142   7.252  0.00  0.00    +0.000 HD
ENDBRANCH  21  24
ENDBRANCH  17  18
ENDBRANCH  16  17
ENDBRANCH   1  16
TORSDOF 7
ENDMDL
MODEL 8
REMARK VINA RESULT:    -6.373      2.379      7.871
REMARK INTER + INTRA:          -9.947
REMARK INTER:                  -9.257
REMARK INTRA:                  -0.690
REMARK UNBOUND:                -0.966
REMARK  Name = 
REMARK  9 active torsions:
REMARK  status: ('A' for Active; 'I' for Inactive)
REMARK    1  A    between atoms: C_1  and  C_2
REMARK    2  A    between atoms: C_2  and  C_3
REMARK    3  A    between atoms: C_3  and  C_4
REMARK    4  A    between atoms: C_3  and  C_5
REMARK    5  A    between atoms: C_3  and  C_16
REMARK    6  A    between atoms: C_5  and  O_6
REMARK    7  A    between atoms: O_6  and  C_7
REMARK    8  A    between atoms: C_10  and  C_11
REMARK    9  A    between atoms: C_20  and  C_21
REMARK                            x       y       z     vdW  Elec       q    Type
REMARK                         _______ _______ _______ _____ _____    ______ ____
ROOT
ATOM      1  C   UNL     1      46.546   6.668  12.430  0.00  0.00    +0.000 C 
ATOM      2  C   UNL     1      47.313   7.093  11.156  0.00  0.00    +0.000 C 
ENDROOT
BRANCH   1   3
ATOM      3  C   UNL     1      45.397   5.694  12.031  0.00  0.00    +0.000 A 
ATOM      4  C   UNL     1      44.163   5.723  12.715  0.00  0.00    +0.000 A 
ATOM      5  C   UNL     1      43.090   4.910  12.331  0.00  0.00    +0.000 A 
ATOM      6  C   UNL     1      43.213   4.062  11.235  0.00  0.00    +0.000 A 
ATOM      7  C   UNL     1      44.414   4.018  10.528  0.00  0.00    +0.000 A 
ATOM      8  C   UNL     1      45.504   4.797  10.951  0.00  0.00    +0.000 A 
BRANCH   7   9
ATOM      9  C   UNL     1      44.489   3.167   9.309  0.00  0.00    +0.000 C 
ATOM     10  N   UNL     1      44.544   1.810   9.494  0.00  0.00    +0.000 N 
ATOM     11  O   UNL     1      44.560   3.649   8.187  0.00  0.00    +0.000 OA
ATOM     12  H   UNL     1      44.720   1.387  10.395  0.00  0.00    +0.000 HD
ATOM     13  H   UNL     1      44.747   1.258   8.672  0.00  0.00    +0.000 HD
ENDBRANCH   7   9
ENDBRANCH   1   3
BRANCH   1  15
ATOM     14  C   UNL     1      45.670   9.179  12.296  0.00  0.00    +0.000 C 
ATOM     15  C   UNL     1      45.989   7.951  13.140  0.00  0.00    +0.000 C 
ENDBRANCH   1  15
BRANCH   1  16
ATOM     16  C   UNL     1      47.505   5.893  13.387  0.00  0.00    +0.000 C 
BRANCH  16  17
ATOM     17  O   UNL     1      46.826   4.857  14.112  0.00  0.00    +0.000 OA
BRANCH  17  18
ATOM     18  C   UNL     1      47.313   4.693  15.390  0.00  0.00    +0.000 A 
ATOM     19  C   UNL     1      48.231   5.620  15.872  0.00  0.00    +0.000 A 
ATOM     20  N   UNL     1      48.774   5.553  17.117  0.00  0.00    +0.000 NA
ATOM     21  C   UNL     1      48.344   4.491  17.859  0.00  0.00    +0.000 A 
ATOM     22  C   UNL     1      47.428   3.565  17.380  0.00  0.00    +0.000 A 
ATOM     23  N   UNL     1      46.896   3.645  16.136  0.00  0.00    +0.000 NA
BRANCH  21  24
ATOM     24  C   UNL     1      48.879   4.328  19.238  0.00  0.00    +0.000 C 
ATOM     25  N   UNL     1      48.393   3.270  19.958  0.00  0.00    +0.000 N 
ATOM     26  O   UNL     1      49.708   5.095  19.707  0.00  0.00    +0.000 OA
ATOM     27  H   UNL     1      47.704   2.647  19.554  0.00  0.00    +0.000 HD
ATOM     28  H   UNL     1      48.729   3.121  20.896  0.00  0.00    +0.000 HD
ENDBRANCH  21  24
ENDBRANCH  17  18
ENDBRANCH  16  17
ENDBRANCH   1  16
TORSDOF 7
ENDMDL
MODEL 9
REMARK VINA RESULT:    -6.280      2.581      3.284
REMARK INTER + INTRA:          -9.816
REMARK INTER:                  -8.929
REMARK INTRA:                  -0.887
REMARK UNBOUND:                -0.966
REMARK  Name = 
REMARK  9 active torsions:
REMARK  status: ('A' for Active; 'I' for Inactive)
REMARK    1  A    between atoms: C_1  and  C_2
REMARK    2  A    between atoms: C_2  and  C_3
REMARK    3  A    between atoms: C_3  and  C_4
REMARK    4  A    between atoms: C_3  and  C_5
REMARK    5  A    between atoms: C_3  and  C_16
REMARK    6  A    between atoms: C_5  and  O_6
REMARK    7  A    between atoms: O_6  and  C_7
REMARK    8  A    between atoms: C_10  and  C_11
REMARK    9  A    between atoms: C_20  and  C_21
REMARK                            x       y       z     vdW  Elec       q    Type
REMARK                         _______ _______ _______ _____ _____    ______ ____
ROOT
ATOM      1  C   UNL     1      45.241   6.619  12.024  0.00  0.00    +0.000 C 
ATOM      2  C   UNL     1      44.542   5.473  12.791  0.00  0.00    +0.000 C 
ENDROOT
BRANCH   1   3
ATOM      3  C   UNL     1      46.674   6.820  12.603  0.00  0.00    +0.000 A 
ATOM      4  C   UNL     1      47.047   6.214  13.822  0.00  0.00    +0.000 A 
ATOM      5  C   UNL     1      48.347   6.319  14.327  0.00  0.00    +0.000 A 
ATOM      6  C   UNL     1      49.321   7.013  13.615  0.00  0.00    +0.000 A 
ATOM      7  C   UNL     1      48.990   7.614  12.401  0.00  0.00    +0.000 A 
ATOM      8  C   UNL     1      47.669   7.550  11.925  0.00  0.00    +0.000 A 
BRANCH   7   9
ATOM      9  C   UNL     1      50.070   8.276  11.620  0.00  0.00    +0.000 C 
ATOM     10  N   UNL     1      51.238   7.581  11.452  0.00  0.00    +0.000 N 
ATOM     11  O   UNL     1      49.953   9.417  11.193  0.00  0.00    +0.000 OA
ATOM     12  H   UNL     1      51.459   6.745  11.977  0.00  0.00    +0.000 HD
ATOM     13  H   UNL     1      52.011   8.098  11.056  0.00  0.00    +0.000 HD
ENDBRANCH   7   9
ENDBRANCH   1   3
BRANCH   1  15
ATOM     14  C   UNL     1      44.296   8.877  10.976  0.00  0.00    +0.000 C 
ATOM     15  C   UNL     1      44.379   7.923  12.161  0.00  0.00    +0.000 C 
ENDBRANCH   1  15
BRANCH   1  16
ATOM     16  C   UNL     1      45.395   6.229  10.520  0.00  0.00    +0.000 C 
BRANCH  16  17
ATOM     17  O   UNL     1      44.627   5.065  10.181  0.00  0.00    +0.000 OA
BRANCH  17  18
ATOM     18  C   UNL     1      45.297   4.212   9.331  0.00  0.00    +0.000 A 
ATOM     19  C   UNL     1      45.235   2.846   9.584  0.00  0.00    +0.000 A 
ATOM     20  N   UNL     1      45.858   1.916   8.811  0.00  0.00    +0.000 NA
ATOM     21  C   UNL     1      46.556   2.439   7.761  0.00  0.00    +0.000 A 
ATOM     22  C   UNL     1      46.619   3.801   7.507  0.00  0.00    +0.000 A 
ATOM     23  N   UNL     1      45.993   4.716   8.288  0.00  0.00    +0.000 NA
BRANCH  21  24
ATOM     24  C   UNL     1      47.274   1.503   6.853  0.00  0.00    +0.000 C 
ATOM     25  N   UNL     1      48.325   2.025   6.148  0.00  0.00    +0.000 N 
ATOM     26  O   UNL     1      46.946   0.330   6.739  0.00  0.00    +0.000 OA
ATOM     27  H   UNL     1      48.579   3.000   6.253  0.00  0.00    +0.000 HD
ATOM     28  H   UNL     1      48.840   1.427   5.522  0.00  0.00    +0.000 HD
ENDBRANCH  21  24
ENDBRANCH  17  18
ENDBRANCH  16  17
ENDBRANCH   1  16
TORSDOF 7
ENDMDL
