MODEL 1
REMARK VINA RESULT:    -7.567      0.000      0.000
REMARK INTER + INTRA:          -9.608
REMARK INTER:                  -9.336
REMARK INTRA:                  -0.272
REMARK UNBOUND:                -0.272
REMARK  Name = 
REMARK  4 active torsions:
REMARK  status: ('A' for Active; 'I' for Inactive)
REMARK    1  A    between atoms: C_2  and  C_4
REMARK    2  A    between atoms: N_8  and  C_9
REMARK    3  A    between atoms: C_9  and  C_10
REMARK    4  A    between atoms: C_10  and  N_11
REMARK                            x       y       z     vdW  Elec       q    Type
REMARK                         _______ _______ _______ _____ _____    ______ ____
ROOT
ATOM      1  C   UNL     1      46.250   2.105   7.865  0.00  0.00    +0.000 A 
ATOM      2  C   UNL     1      46.350   3.443   7.496  0.00  0.00    +0.000 A 
ATOM      3  C   UNL     1      45.539   4.383   8.134  0.00  0.00    +0.000 A 
ATOM      4  C   UNL     1      44.671   3.977   9.147  0.00  0.00    +0.000 A 
ATOM      5  N   UNL     1      44.024   4.968   9.883  0.00  0.00    +0.000 N 
ATOM      6  N   UNL     1      44.535   2.675   9.477  0.00  0.00    +0.000 NA
ATOM      7  C   UNL     1      45.305   1.768   8.820  0.00  0.00    +0.000 A 
ATOM      8  H   UNL     1      43.454   5.576   9.301  0.00  0.00    +0.000 HD
ENDROOT
BRANCH   1  10
ATOM      9  N   UNL     1      46.826  -0.242   7.665  0.00  0.00    +0.000 N 
ATOM     10  C   UNL     1      47.111   1.051   7.308  0.00  0.00    +0.000 C 
ATOM     11  O   UNL     1      48.013   1.303   6.519  0.00  0.00    +0.000 OA
ATOM     12  H   UNL     1      47.339  -0.966   7.172  0.00  0.00    +0.000 HD
ATOM     13  H   UNL     1      45.944  -0.503   8.084  0.00  0.00    +0.000 HD
ENDBRANCH   1  10
BRANCH   5  14
ATOM     14  C   UNL     1      43.303   4.515  11.068  0.00  0.00    +0.000 C 
BRANCH  14  15
ATOM     15  C   UNL     1      44.140   4.830  12.330  0.00  0.00    +0.000 C 
BRANCH  15  16
ATOM     16  N   UNL     1      45.596   4.655  12.137  0.00  0.00    +0.000 NA
ATOM     17  C   UNL     1      46.384   5.634  12.892  0.00  0.00    +0.000 C 
ATOM     18  C   UNL     1      46.587   5.018  14.265  0.00  0.00    +0.000 C 
ATOM     19  O   UNL     1      46.363   3.613  14.116  0.00  0.00    +0.000 OA
ATOM     20  C   UNL     1      46.032   3.396  12.746  0.00  0.00    +0.000 C 
ENDBRANCH  15  16
ENDBRANCH  14  15
ENDBRANCH   5  14
TORSDOF 4
ENDMDL
MODEL 2
REMARK VINA RESULT:    -7.009      1.646      1.867
REMARK INTER + INTRA:          -8.920
REMARK INTER:                  -8.558
REMARK INTRA:                  -0.362
REMARK UNBOUND:                -0.272
REMARK  Name = 
REMARK  4 active torsions:
REMARK  status: ('A' for Active; 'I' for Inactive)
REMARK    1  A    between atoms: C_2  and  C_4
REMARK    2  A    between atoms: N_8  and  C_9
REMARK    3  A    between atoms: C_9  and  C_10
REMARK    4  A    between atoms: C_10  and  N_11
REMARK                            x       y       z     vdW  Elec       q    Type
REMARK                         _______ _______ _______ _____ _____    ______ ____
ROOT
ATOM      1  C   UNL     1      46.156   2.083   7.917  0.00  0.00    +0.000 A 
ATOM      2  C   UNL     1      45.919   3.297   7.280  0.00  0.00    +0.000 A 
ATOM      3  C   UNL     1      45.045   4.212   7.870  0.00  0.00    +0.000 A 
ATOM      4  C   UNL     1      44.452   3.912   9.096  0.00  0.00    +0.000 A 
ATOM      5  N   UNL     1      43.742   4.925   9.738  0.00  0.00    +0.000 N 
ATOM      6  N   UNL     1      44.640   2.718   9.696  0.00  0.00    +0.000 NA
ATOM      7  C   UNL     1      45.465   1.824   9.090  0.00  0.00    +0.000 A 
ATOM      8  H   UNL     1      42.973   5.279   9.174  0.00  0.00    +0.000 HD
ENDROOT
BRANCH   1  10
ATOM      9  N   UNL     1      48.245   1.560   6.801  0.00  0.00    +0.000 N 
ATOM     10  C   UNL     1      47.114   1.086   7.417  0.00  0.00    +0.000 C 
ATOM     11  O   UNL     1      46.944  -0.114   7.584  0.00  0.00    +0.000 OA
ATOM     12  H   UNL     1      48.957   0.871   6.582  0.00  0.00    +0.000 HD
ATOM     13  H   UNL     1      48.542   2.522   6.889  0.00  0.00    +0.000 HD
ENDBRANCH   1  10
BRANCH   5  14
ATOM     14  C   UNL     1      43.328   4.646  11.109  0.00  0.00    +0.000 C 
BRANCH  14  15
ATOM     15  C   UNL     1      44.080   5.591  12.075  0.00  0.00    +0.000 C 
BRANCH  15  16
ATOM     16  N   UNL     1      45.107   6.424  11.413  0.00  0.00    +0.000 NA
ATOM     17  C   UNL     1      44.892   7.858  11.629  0.00  0.00    +0.000 C 
ATOM     18  C   UNL     1      45.604   8.182  12.931  0.00  0.00    +0.000 C 
ATOM     19  O   UNL     1      46.548   7.130  13.150  0.00  0.00    +0.000 OA
ATOM     20  C   UNL     1      46.406   6.222  12.059  0.00  0.00    +0.000 C 
ENDBRANCH  15  16
ENDBRANCH  14  15
ENDBRANCH   5  14
TORSDOF 4
ENDMDL
MODEL 3
REMARK VINA RESULT:    -6.747      2.032      2.418
REMARK INTER + INTRA:          -8.596
REMARK INTER:                  -8.276
REMARK INTRA:                  -0.321
REMARK UNBOUND:                -0.272
REMARK  Name = 
REMARK  4 active torsions:
REMARK  status: ('A' for Active; 'I' for Inactive)
REMARK    1  A    between atoms: C_2  and  C_4
REMARK    2  A    between atoms: N_8  and  C_9
REMARK    3  A    between atoms: C_9  and  C_10
REMARK    4  A    between atoms: C_10  and  N_11
REMARK                            x       y       z     vdW  Elec       q    Type
REMARK                         _______ _______ _______ _____ _____    ______ ____
ROOT
ATOM      1  C   UNL     1      46.454   2.667   7.558  0.00  0.00    +0.000 A 
ATOM      2  C   UNL     1      45.892   1.699   8.384  0.00  0.00    +0.000 A 
ATOM      3  C   UNL     1      45.055   2.102   9.426  0.00  0.00    +0.000 A 
ATOM      4  C   UNL     1      44.770   3.455   9.602  0.00  0.00    +0.000 A 
ATOM      5  N   UNL     1      43.785   3.795  10.529  0.00  0.00    +0.000 N 
ATOM      6  N   UNL     1      45.349   4.403   8.835  0.00  0.00    +0.000 NA
ATOM      7  C   UNL     1      46.191   3.996   7.849  0.00  0.00    +0.000 A 
ATOM      8  H   UNL     1      44.002   3.467  11.466  0.00  0.00    +0.000 HD
ENDROOT
BRANCH   1  10
ATOM      9  N   UNL     1      47.231   3.204   5.324  0.00  0.00    +0.000 N 
ATOM     10  C   UNL     1      47.287   2.342   6.390  0.00  0.00    +0.000 C 
ATOM     11  O   UNL     1      48.038   1.376   6.381  0.00  0.00    +0.000 OA
ATOM     12  H   UNL     1      47.907   3.043   4.584  0.00  0.00    +0.000 HD
ATOM     13  H   UNL     1      46.843   4.133   5.403  0.00  0.00    +0.000 HD
ENDBRANCH   1  10
BRANCH   5  14
ATOM     14  C   UNL     1      43.360   5.191  10.526  0.00  0.00    +0.000 C 
BRANCH  14  15
ATOM     15  C   UNL     1      44.093   5.953  11.655  0.00  0.00    +0.000 C 
BRANCH  15  16
ATOM     16  N   UNL     1      45.163   6.851  11.169  0.00  0.00    +0.000 NA
ATOM     17  C   UNL     1      45.033   8.215  11.694  0.00  0.00    +0.000 C 
ATOM     18  C   UNL     1      45.769   8.209  13.021  0.00  0.00    +0.000 C 
ATOM     19  O   UNL     1      46.652   7.084  12.991  0.00  0.00    +0.000 OA
ATOM     20  C   UNL     1      46.452   6.443  11.733  0.00  0.00    +0.000 C 
ENDBRANCH  15  16
ENDBRANCH  14  15
ENDBRANCH   5  14
TORSDOF 4
ENDMDL
MODEL 4
REMARK VINA RESULT:    -6.213      2.051      6.261
REMARK INTER + INTRA:          -7.938
REMARK INTER:                  -7.560
REMARK INTRA:                  -0.378
REMARK UNBOUND:                -0.272
REMARK  Name = 
REMARK  4 active torsions:
REMARK  status: ('A' for Active; 'I' for Inactive)
REMARK    1  A    between atoms: C_2  and  C_4
REMARK    2  A    between atoms: N_8  and  C_9
REMARK    3  A    between atoms: C_9  and  C_10
REMARK    4  A    between atoms: C_10  and  N_11
REMARK                            x       y       z     vdW  Elec       q    Type
REMARK                         _______ _______ _______ _____ _____    ______ ____
ROOT
ATOM      1  C   UNL     1      45.455   5.694  12.286  0.00  0.00    +0.000 A 
ATOM      2  C   UNL     1      45.359   4.486  12.969  0.00  0.00    +0.000 A 
ATOM      3  C   UNL     1      45.027   3.332  12.257  0.00  0.00    +0.000 A 
ATOM      4  C   UNL     1      44.832   3.400  10.878  0.00  0.00    +0.000 A 
ATOM      5  N   UNL     1      44.692   2.199  10.183  0.00  0.00    +0.000 N 
ATOM      6  N   UNL     1      44.876   4.576  10.218  0.00  0.00    +0.000 NA
ATOM      7  C   UNL     1      45.163   5.696  10.932  0.00  0.00    +0.000 A 
ATOM      8  H   UNL     1      43.906   1.646  10.515  0.00  0.00    +0.000 HD
ENDROOT
BRANCH   1  10
ATOM      9  N   UNL     1      46.904   6.880  13.828  0.00  0.00    +0.000 N 
ATOM     10  C   UNL     1      45.870   6.950  12.929  0.00  0.00    +0.000 C 
ATOM     11  O   UNL     1      45.355   8.023  12.643  0.00  0.00    +0.000 OA
ATOM     12  H   UNL     1      47.268   7.767  14.161  0.00  0.00    +0.000 HD
ATOM     13  H   UNL     1      47.517   6.079  13.881  0.00  0.00    +0.000 HD
ENDBRANCH   1  10
BRANCH   5  14
ATOM     14  C   UNL     1      44.712   2.299   8.727  0.00  0.00    +0.000 C 
BRANCH  14  15
ATOM     15  C   UNL     1      45.938   1.534   8.177  0.00  0.00    +0.000 C 
BRANCH  15  16
ATOM     16  N   UNL     1      47.085   2.409   7.847  0.00  0.00    +0.000 NA
ATOM     17  C   UNL     1      47.797   1.971   6.642  0.00  0.00    +0.000 C 
ATOM     18  C   UNL     1      47.076   2.635   5.483  0.00  0.00    +0.000 C 
ATOM     19  O   UNL     1      46.350   3.736   6.034  0.00  0.00    +0.000 OA
ATOM     20  C   UNL     1      46.603   3.730   7.438  0.00  0.00    +0.000 C 
ENDBRANCH  15  16
ENDBRANCH  14  15
ENDBRANCH   5  14
TORSDOF 4
ENDMDL
MODEL 5
REMARK VINA RESULT:    -6.110      3.228      4.983
REMARK INTER + INTRA:          -7.811
REMARK INTER:                  -7.686
REMARK INTRA:                  -0.124
REMARK UNBOUND:                -0.272
REMARK  Name = 
REMARK  4 active torsions:
REMARK  status: ('A' for Active; 'I' for Inactive)
REMARK    1  A    between atoms: C_2  and  C_4
REMARK    2  A    between atoms: N_8  and  C_9
REMARK    3  A    between atoms: C_9  and  C_10
REMARK    4  A    between atoms: C_10  and  N_11
REMARK                            x       y       z     vdW  Elec       q    Type
REMARK                         _______ _______ _______ _____ _____    ______ ____
ROOT
ATOM      1  C   UNL     1      44.963   4.093  10.948  0.00  0.00    +0.000 A 
ATOM      2  C   UNL     1      45.397   5.413  11.001  0.00  0.00    +0.000 A 
ATOM      3  C   UNL     1      45.955   5.895  12.186  0.00  0.00    +0.000 A 
ATOM      4  C   UNL     1      46.097   5.043  13.281  0.00  0.00    +0.000 A 
ATOM      5  N   UNL     1      46.829   5.508  14.374  0.00  0.00    +0.000 N 
ATOM      6  N   UNL     1      45.634   3.776  13.253  0.00  0.00    +0.000 NA
ATOM      7  C   UNL     1      45.061   3.334  12.103  0.00  0.00    +0.000 A 
ATOM      8  H   UNL     1      46.436   6.357  14.773  0.00  0.00    +0.000 HD
ENDROOT
BRANCH   1  10
ATOM      9  N   UNL     1      44.050   4.309   8.711  0.00  0.00    +0.000 N 
ATOM     10  C   UNL     1      44.431   3.469   9.726  0.00  0.00    +0.000 C 
ATOM     11  O   UNL     1      44.376   2.253   9.593  0.00  0.00    +0.000 OA
ATOM     12  H   UNL     1      43.813   3.866   7.830  0.00  0.00    +0.000 HD
ATOM     13  H   UNL     1      44.330   5.279   8.682  0.00  0.00    +0.000 HD
ENDBRANCH   1  10
BRANCH   5  14
ATOM     14  C   UNL     1      47.143   4.519  15.399  0.00  0.00    +0.000 C 
BRANCH  14  15
ATOM     15  C   UNL     1      48.201   5.100  16.366  0.00  0.00    +0.000 C 
BRANCH  15  16
ATOM     16  N   UNL     1      48.453   4.252  17.552  0.00  0.00    +0.000 NA
ATOM     17  C   UNL     1      48.027   2.864  17.349  0.00  0.00    +0.000 C 
ATOM     18  C   UNL     1      49.216   2.165  16.713  0.00  0.00    +0.000 C 
ATOM     19  O   UNL     1      50.362   2.970  17.002  0.00  0.00    +0.000 OA
ATOM     20  C   UNL     1      49.895   4.090  17.752  0.00  0.00    +0.000 C 
ENDBRANCH  15  16
ENDBRANCH  14  15
ENDBRANCH   5  14
TORSDOF 4
ENDMDL
MODEL 6
REMARK VINA RESULT:    -5.944      4.201      8.341
REMARK INTER + INTRA:          -7.606
REMARK INTER:                  -7.376
REMARK INTRA:                  -0.230
REMARK UNBOUND:                -0.272
REMARK  Name = 
REMARK  4 active torsions:
REMARK  status: ('A' for Active; 'I' for Inactive)
REMARK    1  A    between atoms: C_2  and  C_4
REMARK    2  A    between atoms: N_8  and  C_9
REMARK    3  A    between atoms: C_9  and  C_10
REMARK    4  A    between atoms: C_10  and  N_11
REMARK                            x       y       z     vdW  Elec       q    Type
REMARK                         _______ _______ _______ _____ _____    ______ ____
ROOT
ATOM      1  C   UNL     1      48.490   4.136  18.308  0.00  0.00    +0.000 A 
ATOM      2  C   UNL     1      48.865   2.933  17.719  0.00  0.00    +0.000 A 
ATOM      3  C   UNL     1      48.374   2.620  16.450  0.00  0.00    +0.000 A 
ATOM      4  C   UNL     1      47.548   3.525  15.783  0.00  0.00    +0.000 A 
ATOM      5  N   UNL     1      47.238   3.260  14.450  0.00  0.00    +0.000 N 
ATOM      6  N   UNL     1      47.142   4.671  16.369  0.00  0.00    +0.000 NA
ATOM      7  C   UNL     1      47.600   4.944  17.619  0.00  0.00    +0.000 A 
ATOM      8  H   UNL     1      46.769   2.365  14.330  0.00  0.00    +0.000 HD
ENDROOT
BRANCH   1  10
ATOM      9  N   UNL     1      48.594   3.911  20.721  0.00  0.00    +0.000 N 
ATOM     10  C   UNL     1      49.011   4.592  19.606  0.00  0.00    +0.000 C 
ATOM     11  O   UNL     1      49.821   5.506  19.692  0.00  0.00    +0.000 OA
ATOM     12  H   UNL     1      49.061   4.147  21.590  0.00  0.00    +0.000 HD
ATOM     13  H   UNL     1      48.154   3.003  20.663  0.00  0.00    +0.000 HD
ENDBRANCH   1  10
BRANCH   5  14
ATOM     14  C   UNL     1      46.562   4.331  13.726  0.00  0.00    +0.000 C 
BRANCH  14  15
ATOM     15  C   UNL     1      45.632   3.718  12.653  0.00  0.00    +0.000 C 
BRANCH  15  16
ATOM     16  N   UNL     1      44.229   3.570  13.096  0.00  0.00    +0.000 NA
ATOM     17  C   UNL     1      43.485   4.832  13.037  0.00  0.00    +0.000 C 
ATOM     18  C   UNL     1      42.933   4.910  11.625  0.00  0.00    +0.000 C 
ATOM     19  O   UNL     1      42.947   3.576  11.109  0.00  0.00    +0.000 OA
ATOM     20  C   UNL     1      43.487   2.748  12.137  0.00  0.00    +0.000 C 
ENDBRANCH  15  16
ENDBRANCH  14  15
ENDBRANCH   5  14
TORSDOF 4
ENDMDL
MODEL 7
REMARK VINA RESULT:    -5.310      4.035      6.014
REMARK INTER + INTRA:          -6.824
REMARK INTER:                  -6.564
REMARK INTRA:                  -0.260
REMARK UNBOUND:                -0.272
REMARK  Name = 
REMARK  4 active torsions:
REMARK  status: ('A' for Active; 'I' for Inactive)
REMARK    1  A    between atoms: C_2  and  C_4
REMARK    2  A    between atoms: N_8  and  C_9
REMARK    3  A    between atoms: C_9  and  C_10
REMARK    4  A    between atoms: C_10  and  N_11
REMARK                            x       y       z     vdW  Elec       q    Type
REMARK                         _______ _______ _______ _____ _____    ______ ____
ROOT
ATOM      1  C   UNL     1      44.539   4.904  11.774  0.00  0.00    +0.000 A 
ATOM      2  C   UNL     1      44.937   3.575  11.871  0.00  0.00    +0.000 A 
ATOM      3  C   UNL     1      45.869   3.217  12.847  0.00  0.00    +0.000 A 
ATOM      4  C   UNL     1      46.358   4.184  13.726  0.00  0.00    +0.000 A 
ATOM      5  N   UNL     1      47.135   3.751  14.799  0.00  0.00    +0.000 N 
ATOM      6  N   UNL     1      46.012   5.483  13.607  0.00  0.00    +0.000 NA
ATOM      7  C   UNL     1      45.133   5.820  12.627  0.00  0.00    +0.000 A 
ATOM      8  H   UNL     1      47.967   3.248  14.501  0.00  0.00    +0.000 HD
ENDROOT
BRANCH   1  10
ATOM      9  N   UNL     1      42.754   6.447  11.213  0.00  0.00    +0.000 N 
ATOM     10  C   UNL     1      43.509   5.368  10.832  0.00  0.00    +0.000 C 
ATOM     11  O   UNL     1      43.362   4.852   9.732  0.00  0.00    +0.000 OA
ATOM     12  H   UNL     1      42.143   6.839  10.504  0.00  0.00    +0.000 HD
ATOM     13  H   UNL     1      43.026   7.052  11.975  0.00  0.00    +0.000 HD
ENDBRANCH   1  10
BRANCH   5  14
ATOM     14  C   UNL     1      47.441   4.756  15.813  0.00  0.00    +0.000 C 
BRANCH  14  15
ATOM     15  C   UNL     1      47.767   4.052  17.151  0.00  0.00    +0.000 C 
BRANCH  15  16
ATOM     16  N   UNL     1      48.659   4.837  18.033  0.00  0.00    +0.000 NA
ATOM     17  C   UNL     1      49.686   4.009  18.672  0.00  0.00    +0.000 C 
ATOM     18  C   UNL     1      50.844   3.971  17.691  0.00  0.00    +0.000 C 
ATOM     19  O   UNL     1      50.670   5.088  16.815  0.00  0.00    +0.000 OA
ATOM     20  C   UNL     1      49.476   5.750  17.231  0.00  0.00    +0.000 C 
ENDBRANCH  15  16
ENDBRANCH  14  15
ENDBRANCH   5  14
TORSDOF 4
ENDMDL
MODEL 8
REMARK VINA RESULT:    -5.147      3.108      4.399
REMARK INTER + INTRA:          -6.622
REMARK INTER:                  -6.252
REMARK INTRA:                  -0.370
REMARK UNBOUND:                -0.272
REMARK  Name = 
REMARK  4 active torsions:
REMARK  status: ('A' for Active; 'I' for Inactive)
REMARK    1  A    between atoms: C_2  and  C_4
REMARK    2  A    between atoms: N_8  and  C_9
REMARK    3  A    between atoms: C_9  and  C_10
REMARK    4  A    between atoms: C_10  and  N_11
REMARK                            x       y       z     vdW  Elec       q    Type
REMARK                         _______ _______ _______ _____ _____    ______ ____
ROOT
ATOM      1  C   UNL     1      44.955   3.743  10.227  0.00  0.00    +0.000 A 
ATOM      2  C   UNL     1      44.906   3.312  11.549  0.00  0.00    +0.000 A 
ATOM      3  C   UNL     1      45.195   4.221  12.568  0.00  0.00    +0.000 A 
ATOM      4  C   UNL     1      45.492   5.546  12.251  0.00  0.00    +0.000 A 
ATOM      5  N   UNL     1      45.585   6.459  13.301  0.00  0.00    +0.000 N 
ATOM      6  N   UNL     1      45.588   5.959  10.969  0.00  0.00    +0.000 NA
ATOM      7  C   UNL     1      45.341   5.052   9.988  0.00  0.00    +0.000 A 
ATOM      8  H   UNL     1      46.299   6.202  13.978  0.00  0.00    +0.000 HD
ENDROOT
BRANCH   1  10
ATOM      9  N   UNL     1      44.362   3.505   7.887  0.00  0.00    +0.000 N 
ATOM     10  C   UNL     1      44.596   2.885   9.088  0.00  0.00    +0.000 C 
ATOM     11  O   UNL     1      44.556   1.665   9.185  0.00  0.00    +0.000 OA
ATOM     12  H   UNL     1      44.248   2.896   7.083  0.00  0.00    +0.000 HD
ATOM     13  H   UNL     1      44.647   4.458   7.710  0.00  0.00    +0.000 HD
ENDBRANCH   1  10
BRANCH   5  14
ATOM     14  C   UNL     1      45.677   7.864  12.919  0.00  0.00    +0.000 C 
BRANCH  14  15
ATOM     15  C   UNL     1      47.092   8.394  13.246  0.00  0.00    +0.000 C 
BRANCH  15  16
ATOM     16  N   UNL     1      48.123   7.978  12.270  0.00  0.00    +0.000 NA
ATOM     17  C   UNL     1      48.865   9.116  11.718  0.00  0.00    +0.000 C 
ATOM     18  C   UNL     1      50.011   9.359  12.684  0.00  0.00    +0.000 C 
ATOM     19  O   UNL     1      50.178   8.149  13.428  0.00  0.00    +0.000 OA
ATOM     20  C   UNL     1      49.187   7.239  12.953  0.00  0.00    +0.000 C 
ENDBRANCH  15  16
ENDBRANCH  14  15
ENDBRANCH   5  14
TORSDOF 4
ENDMDL
MODEL 9
REMARK VINA RESULT:    -5.135      3.497      5.332
REMARK INTER + INTRA:          -6.607
REMARK INTER:                  -6.256
REMARK INTRA:                  -0.351
REMARK UNBOUND:                -0.272
REMARK  Name = 
REMARK  4 active torsions:
REMARK  status: ('A' for Active; 'I' for Inactive)
REMARK    1  A    between atoms: C_2  and  C_4
REMARK    2  A    between atoms: N_8  and  C_9
REMARK    3  A    between atoms: C_9  and  C_10
REMARK    4  A    between atoms: C_10  and  N_11
REMARK                            x       y       z     vdW  Elec       q    Type
REMARK                         _______ _______ _______ _____ _____    ______ ____
ROOT
ATOM      1  C   UNL     1      44.565   4.769  11.800  0.00  0.00    +0.000 A 
ATOM      2  C   UNL     1      44.333   6.133  11.944  0.00  0.00    +0.000 A 
ATOM      3  C   UNL     1      45.204   6.887  12.733  0.00  0.00    +0.000 A 
ATOM      4  C   UNL     1      46.303   6.274  13.333  0.00  0.00    +0.000 A 
ATOM      5  N   UNL     1      47.247   7.094  13.950  0.00  0.00    +0.000 N 
ATOM      6  N   UNL     1      46.507   4.943  13.236  0.00  0.00    +0.000 NA
ATOM      7  C   UNL     1      45.629   4.217  12.495  0.00  0.00    +0.000 A 
ATOM      8  H   UNL     1      46.845   7.659  14.694  0.00  0.00    +0.000 HD
ENDROOT
BRANCH   1  10
ATOM      9  N   UNL     1      42.993   2.939  11.547  0.00  0.00    +0.000 N 
ATOM     10  C   UNL     1      43.753   3.902  10.933  0.00  0.00    +0.000 C 
ATOM     11  O   UNL     1      43.710   4.060   9.720  0.00  0.00    +0.000 OA
ATOM     12  H   UNL     1      42.339   2.440  10.953  0.00  0.00    +0.000 HD
ATOM     13  H   UNL     1      42.798   2.959  12.538  0.00  0.00    +0.000 HD
ENDBRANCH   1  10
BRANCH   5  14
ATOM     14  C   UNL     1      48.484   6.443  14.368  0.00  0.00    +0.000 C 
BRANCH  14  15
ATOM     15  C   UNL     1      48.606   6.516  15.909  0.00  0.00    +0.000 C 
BRANCH  15  16
ATOM     16  N   UNL     1      48.904   5.213  16.543  0.00  0.00    +0.000 NA
ATOM     17  C   UNL     1      49.054   5.319  17.998  0.00  0.00    +0.000 C 
ATOM     18  C   UNL     1      47.653   5.168  18.562  0.00  0.00    +0.000 C 
ATOM     19  O   UNL     1      46.872   4.534  17.545  0.00  0.00    +0.000 OA
ATOM     20  C   UNL     1      47.742   4.328  16.433  0.00  0.00    +0.000 C 
ENDBRANCH  15  16
ENDBRANCH  14  15
ENDBRANCH   5  14
TORSDOF 4
ENDMDL
