MODEL 1
REMARK VINA RESULT:    -8.671      0.000      0.000
REMARK INTER + INTRA:         -12.253
REMARK INTER:                 -11.205
REMARK INTRA:                  -1.048
REMARK UNBOUND:                -1.048
REMARK  Name = 
REMARK  6 active torsions:
REMARK  status: ('A' for Active; 'I' for Inactive)
REMARK    1  A    between atoms: C_1  and  C_2
REMARK    2  A    between atoms: C_2  and  C_3
REMARK    3  A    between atoms: C_7  and  C_8
REMARK    4  A    between atoms: C_8  and  C_9
REMARK    5  A    between atoms: C_9  and  N_10
REMARK    6  A    between atoms: C_14  and  C_15
REMARK                            x       y       z     vdW  Elec       q    Type
REMARK                         _______ _______ _______ _____ _____    ______ ____
ROOT
ATOM      1  C   UNL     1      43.290   5.045  12.413  0.00  0.00    +0.000 C 
ENDROOT
BRANCH   1   6
ATOM      2  C   UNL     1      46.675   6.739  13.008  0.00  0.00    +0.000 A 
ATOM      3  C   UNL     1      47.409   5.661  13.536  0.00  0.00    +0.000 A 
ATOM      4  C   UNL     1      46.840   4.393  13.656  0.00  0.00    +0.000 A 
ATOM      5  C   UNL     1      45.520   4.178  13.266  0.00  0.00    +0.000 A 
ATOM      6  C   UNL     1      44.758   5.229  12.742  0.00  0.00    +0.000 A 
ATOM      7  C   UNL     1      45.353   6.495  12.598  0.00  0.00    +0.000 A 
BRANCH   2   9
ATOM      8  C   UNL     1      46.408   9.133  12.238  0.00  0.00    +0.000 C 
ATOM      9  C   UNL     1      47.311   8.124  12.952  0.00  0.00    +0.000 C 
ATOM     10  C   UNL     1      47.778   8.610  14.303  0.00  0.00    +0.000 C 
ATOM     11  C   UNL     1      49.097   8.820  14.288  0.00  0.00    +0.000 C 
ATOM     12  N   UNL     1      49.683   8.571  13.078  0.00  0.00    +0.000 NA
ATOM     13  C   UNL     1      48.694   8.187  12.327  0.00  0.00    +0.000 C 
ATOM     14  F   UNL     1      48.908   7.888  11.041  0.00  0.00    +0.000 F 
ENDBRANCH   2   9
ENDBRANCH   1   6
BRANCH   1  15
ATOM     15  C   UNL     1      43.112   4.220  11.130  0.00  0.00    +0.000 C 
BRANCH  15  16
ATOM     16  N   UNL     1      43.827   4.817   9.992  0.00  0.00    +0.000 N 
ATOM     17  C   UNL     1      44.649   3.877   9.326  0.00  0.00    +0.000 A 
ATOM     18  C   UNL     1      45.391   4.285   8.222  0.00  0.00    +0.000 A 
ATOM     19  C   UNL     1      46.198   3.363   7.553  0.00  0.00    +0.000 A 
ATOM     20  C   UNL     1      46.227   2.064   8.027  0.00  0.00    +0.000 A 
ATOM     21  N   UNL     1      45.501   1.670   9.091  0.00  0.00    +0.000 NA
ATOM     22  N   UNL     1      44.703   2.585   9.728  0.00  0.00    +0.000 NA
ATOM     23  H   UNL     1      44.399   5.613  10.264  0.00  0.00    +0.000 HD
BRANCH  20  24
ATOM     24  C   UNL     1      47.086   1.026   7.388  0.00  0.00    +0.000 C 
ATOM     25  N   UNL     1      46.759  -0.279   7.658  0.00  0.00    +0.000 N 
ATOM     26  O   UNL     1      48.035   1.313   6.671  0.00  0.00    +0.000 OA
ATOM     27  H   UNL     1      45.970  -0.506   8.254  0.00  0.00    +0.000 HD
ATOM     28  H   UNL     1      47.314  -1.019   7.254  0.00  0.00    +0.000 HD
ENDBRANCH  20  24
ENDBRANCH  15  16
ENDBRANCH   1  15
TORSDOF 5
ENDMDL
MODEL 2
REMARK VINA RESULT:    -7.646      1.671      2.369
REMARK INTER + INTRA:         -10.928
REMARK INTER:                 -10.008
REMARK INTRA:                  -0.920
REMARK UNBOUND:                -1.048
REMARK  Name = 
REMARK  6 active torsions:
REMARK  status: ('A' for Active; 'I' for Inactive)
REMARK    1  A    between atoms: C_1  and  C_2
REMARK    2  A    between atoms: C_2  and  C_3
REMARK    3  A    between atoms: C_7  and  C_8
REMARK    4  A    between atoms: C_8  and  C_9
REMARK    5  A    between atoms: C_9  and  N_10
REMARK    6  A    between atoms: C_14  and  C_15
REMARK                            x       y       z     vdW  Elec       q    Type
REMARK                         _______ _______ _______ _____ _____    ______ ____
ROOT
ATOM      1  C   UNL     1      44.034   5.113  12.248  0.00  0.00    +0.000 C 
ENDROOT
BRANCH   1   6
ATOM      2  C   UNL     1      46.585   7.950  12.604  0.00  0.00    +0.000 A 
ATOM      3  C   UNL     1      45.917   8.979  11.914  0.00  0.00    +0.000 A 
ATOM      4  C   UNL     1      44.643   8.781  11.383  0.00  0.00    +0.000 A 
ATOM      5  C   UNL     1      44.015   7.544  11.514  0.00  0.00    +0.000 A 
ATOM      6  C   UNL     1      44.651   6.495  12.188  0.00  0.00    +0.000 A 
ATOM      7  C   UNL     1      45.924   6.717  12.745  0.00  0.00    +0.000 A 
BRANCH   2   9
ATOM      8  C   UNL     1      48.795   9.104  12.181  0.00  0.00    +0.000 C 
ATOM      9  C   UNL     1      48.002   8.185  13.115  0.00  0.00    +0.000 C 
ATOM     10  C   UNL     1      48.038   8.642  14.553  0.00  0.00    +0.000 C 
ATOM     11  C   UNL     1      48.713   7.763  15.300  0.00  0.00    +0.000 C 
ATOM     12  N   UNL     1      49.211   6.705  14.593  0.00  0.00    +0.000 NA
ATOM     13  C   UNL     1      48.823   6.935  13.374  0.00  0.00    +0.000 C 
ATOM     14  F   UNL     1      49.172   6.096  12.393  0.00  0.00    +0.000 F 
ENDBRANCH   2   9
ENDBRANCH   1   6
BRANCH   1  15
ATOM     15  C   UNL     1      43.547   4.667  10.861  0.00  0.00    +0.000 C 
BRANCH  15  16
ATOM     16  N   UNL     1      43.894   3.264  10.584  0.00  0.00    +0.000 N 
ATOM     17  C   UNL     1      44.768   3.140   9.478  0.00  0.00    +0.000 A 
ATOM     18  C   UNL     1      45.195   1.874   9.088  0.00  0.00    +0.000 A 
ATOM     19  C   UNL     1      46.064   1.742   8.005  0.00  0.00    +0.000 A 
ATOM     20  C   UNL     1      46.466   2.893   7.353  0.00  0.00    +0.000 A 
ATOM     21  N   UNL     1      46.059   4.118   7.738  0.00  0.00    +0.000 NA
ATOM     22  N   UNL     1      45.216   4.231   8.814  0.00  0.00    +0.000 NA
ATOM     23  H   UNL     1      43.074   2.685  10.418  0.00  0.00    +0.000 HD
BRANCH  20  24
ATOM     24  C   UNL     1      47.370   2.837   6.168  0.00  0.00    +0.000 C 
ATOM     25  N   UNL     1      48.696   2.603   6.429  0.00  0.00    +0.000 N 
ATOM     26  O   UNL     1      46.961   2.999   5.026  0.00  0.00    +0.000 OA
ATOM     27  H   UNL     1      49.024   2.469   7.380  0.00  0.00    +0.000 HD
ATOM     28  H   UNL     1      49.349   2.561   5.661  0.00  0.00    +0.000 HD
ENDBRANCH  20  24
ENDBRANCH  15  16
ENDBRANCH   1  15
TORSDOF 5
ENDMDL
MODEL 3
REMARK VINA RESULT:    -7.446      1.705      1.987
REMARK INTER + INTRA:         -10.670
REMARK INTER:                  -9.876
REMARK INTRA:                  -0.794
REMARK UNBOUND:                -1.048
REMARK  Name = 
REMARK  6 active torsions:
REMARK  status: ('A' for Active; 'I' for Inactive)
REMARK    1  A    between atoms: C_1  and  C_2
REMARK    2  A    between atoms: C_2  and  C_3
REMARK    3  A    between atoms: C_7  and  C_8
REMARK    4  A    between atoms: C_8  and  C_9
REMARK    5  A    between atoms: C_9  and  N_10
REMARK    6  A    between atoms: C_14  and  C_15
REMARK                            x       y       z     vdW  Elec       q    Type
REMARK                         _______ _______ _______ _____ _____    ______ ____
ROOT
ATOM      1  C   UNL     1      44.043   6.086  12.216  0.00  0.00    +0.000 C 
ENDROOT
BRANCH   1   6
ATOM      2  C   UNL     1      47.672   7.105  12.909  0.00  0.00    +0.000 A 
ATOM      3  C   UNL     1      48.043   6.108  13.829  0.00  0.00    +0.000 A 
ATOM      4  C   UNL     1      47.157   5.092  14.187  0.00  0.00    +0.000 A 
ATOM      5  C   UNL     1      45.873   5.060  13.646  0.00  0.00    +0.000 A 
ATOM      6  C   UNL     1      45.467   6.039  12.733  0.00  0.00    +0.000 A 
ATOM      7  C   UNL     1      46.380   7.041  12.357  0.00  0.00    +0.000 A 
BRANCH   2   9
ATOM      8  C   UNL     1      49.466   7.936  11.333  0.00  0.00    +0.000 C 
ATOM      9  C   UNL     1      48.646   8.234  12.591  0.00  0.00    +0.000 C 
ATOM     10  C   UNL     1      47.980   9.588  12.547  0.00  0.00    +0.000 C 
ATOM     11  C   UNL     1      48.511  10.393  13.473  0.00  0.00    +0.000 C 
ATOM     12  N   UNL     1      49.514   9.815  14.198  0.00  0.00    +0.000 NA
ATOM     13  C   UNL     1      49.599   8.614  13.710  0.00  0.00    +0.000 C 
ATOM     14  F   UNL     1      50.523   7.766  14.176  0.00  0.00    +0.000 F 
ENDBRANCH   2   9
ENDBRANCH   1   6
BRANCH   1  15
ATOM     15  C   UNL     1      43.977   5.654  10.744  0.00  0.00    +0.000 C 
BRANCH  15  16
ATOM     16  N   UNL     1      44.070   4.193  10.598  0.00  0.00    +0.000 N 
ATOM     17  C   UNL     1      44.892   3.817   9.510  0.00  0.00    +0.000 A 
ATOM     18  C   UNL     1      45.086   2.466   9.239  0.00  0.00    +0.000 A 
ATOM     19  C   UNL     1      45.903   2.085   8.173  0.00  0.00    +0.000 A 
ATOM     20  C   UNL     1      46.490   3.084   7.419  0.00  0.00    +0.000 A 
ATOM     21  N   UNL     1      46.309   4.390   7.689  0.00  0.00    +0.000 NA
ATOM     22  N   UNL     1      45.515   4.748   8.748  0.00  0.00    +0.000 NA
ATOM     23  H   UNL     1      43.159   3.753  10.484  0.00  0.00    +0.000 HD
BRANCH  20  24
ATOM     24  C   UNL     1      47.353   2.762   6.245  0.00  0.00    +0.000 C 
ATOM     25  N   UNL     1      48.688   2.593   6.505  0.00  0.00    +0.000 N 
ATOM     26  O   UNL     1      46.903   2.662   5.111  0.00  0.00    +0.000 OA
ATOM     27  H   UNL     1      49.051   2.677   7.449  0.00  0.00    +0.000 HD
ATOM     28  H   UNL     1      49.315   2.380   5.743  0.00  0.00    +0.000 HD
ENDBRANCH  20  24
ENDBRANCH  15  16
ENDBRANCH   1  15
TORSDOF 5
ENDMDL
MODEL 4
REMARK VINA RESULT:    -7.141      3.574      7.356
REMARK INTER + INTRA:         -10.276
REMARK INTER:                  -9.112
REMARK INTRA:                  -1.164
REMARK UNBOUND:                -1.048
REMARK  Name = 
REMARK  6 active torsions:
REMARK  status: ('A' for Active; 'I' for Inactive)
REMARK    1  A    between atoms: C_1  and  C_2
REMARK    2  A    between atoms: C_2  and  C_3
REMARK    3  A    between atoms: C_7  and  C_8
REMARK    4  A    between atoms: C_8  and  C_9
REMARK    5  A    between atoms: C_9  and  N_10
REMARK    6  A    between atoms: C_14  and  C_15
REMARK                            x       y       z     vdW  Elec       q    Type
REMARK                         _______ _______ _______ _____ _____    ______ ____
ROOT
ATOM      1  C   UNL     1      48.979   8.884  12.435  0.00  0.00    +0.000 C 
ENDROOT
BRANCH   1   6
ATOM      2  C   UNL     1      45.608   7.120  11.977  0.00  0.00    +0.000 A 
ATOM      3  C   UNL     1      44.746   8.232  11.924  0.00  0.00    +0.000 A 
ATOM      4  C   UNL     1      45.245   9.532  11.986  0.00  0.00    +0.000 A 
ATOM      5  C   UNL     1      46.614   9.753  12.119  0.00  0.00    +0.000 A 
ATOM      6  C   UNL     1      47.501   8.671  12.181  0.00  0.00    +0.000 A 
ATOM      7  C   UNL     1      46.988   7.364  12.087  0.00  0.00    +0.000 A 
BRANCH   2   9
ATOM      8  C   UNL     1      45.946   4.710  12.662  0.00  0.00    +0.000 C 
ATOM      9  C   UNL     1      45.020   5.713  11.970  0.00  0.00    +0.000 C 
ATOM     10  C   UNL     1      43.607   5.666  12.497  0.00  0.00    +0.000 C 
ATOM     11  C   UNL     1      42.777   5.214  11.553  0.00  0.00    +0.000 C 
ATOM     12  N   UNL     1      43.397   4.893  10.379  0.00  0.00    +0.000 NA
ATOM     13  C   UNL     1      44.648   5.164  10.604  0.00  0.00    +0.000 C 
ATOM     14  F   UNL     1      45.563   4.933   9.656  0.00  0.00    +0.000 F 
ENDBRANCH   2   9
ENDBRANCH   1   6
BRANCH   1  15
ATOM     15  C   UNL     1      49.572   7.720  13.242  0.00  0.00    +0.000 C 
BRANCH  15  16
ATOM     16  N   UNL     1      49.583   8.004  14.685  0.00  0.00    +0.000 N 
ATOM     17  C   UNL     1      49.042   6.937  15.442  0.00  0.00    +0.000 A 
ATOM     18  C   UNL     1      48.983   7.049  16.828  0.00  0.00    +0.000 A 
ATOM     19  C   UNL     1      48.460   5.999  17.584  0.00  0.00    +0.000 A 
ATOM     20  C   UNL     1      48.012   4.877  16.910  0.00  0.00    +0.000 A 
ATOM     21  N   UNL     1      48.078   4.768  15.570  0.00  0.00    +0.000 NA
ATOM     22  N   UNL     1      48.608   5.803  14.843  0.00  0.00    +0.000 NA
ATOM     23  H   UNL     1      49.079   8.856  14.919  0.00  0.00    +0.000 HD
BRANCH  20  24
ATOM     24  C   UNL     1      47.411   3.724  17.642  0.00  0.00    +0.000 C 
ATOM     25  N   UNL     1      48.050   3.340  18.793  0.00  0.00    +0.000 N 
ATOM     26  O   UNL     1      46.413   3.142  17.238  0.00  0.00    +0.000 OA
ATOM     27  H   UNL     1      48.877   3.829  19.119  0.00  0.00    +0.000 HD
ATOM     28  H   UNL     1      47.686   2.560  19.321  0.00  0.00    +0.000 HD
ENDBRANCH  20  24
ENDBRANCH  15  16
ENDBRANCH   1  15
TORSDOF 5
ENDMDL
MODEL 5
REMARK VINA RESULT:    -7.066      4.554      7.745
REMARK INTER + INTRA:         -10.179
REMARK INTER:                  -9.515
REMARK INTRA:                  -0.664
REMARK UNBOUND:                -1.048
REMARK  Name = 
REMARK  6 active torsions:
REMARK  status: ('A' for Active; 'I' for Inactive)
REMARK    1  A    between atoms: C_1  and  C_2
REMARK    2  A    between atoms: C_2  and  C_3
REMARK    3  A    between atoms: C_7  and  C_8
REMARK    4  A    between atoms: C_8  and  C_9
REMARK    5  A    between atoms: C_9  and  N_10
REMARK    6  A    between atoms: C_14  and  C_15
REMARK                            x       y       z     vdW  Elec       q    Type
REMARK                         _______ _______ _______ _____ _____    ______ ____
ROOT
ATOM      1  C   UNL     1      49.005   7.111  14.539  0.00  0.00    +0.000 C 
ENDROOT
BRANCH   1   6
ATOM      2  C   UNL     1      45.725   6.336  12.717  0.00  0.00    +0.000 A 
ATOM      3  C   UNL     1      45.231   7.639  12.519  0.00  0.00    +0.000 A 
ATOM      4  C   UNL     1      45.964   8.755  12.921  0.00  0.00    +0.000 A 
ATOM      5  C   UNL     1      47.199   8.594  13.547  0.00  0.00    +0.000 A 
ATOM      6  C   UNL     1      47.718   7.313  13.766  0.00  0.00    +0.000 A 
ATOM      7  C   UNL     1      46.983   6.196  13.328  0.00  0.00    +0.000 A 
BRANCH   2   9
ATOM      8  C   UNL     1      45.559   3.814  12.646  0.00  0.00    +0.000 C 
ATOM      9  C   UNL     1      44.867   5.139  12.320  0.00  0.00    +0.000 C 
ATOM     10  C   UNL     1      43.463   5.217  12.870  0.00  0.00    +0.000 C 
ATOM     11  C   UNL     1      42.576   5.239  11.871  0.00  0.00    +0.000 C 
ATOM     12  N   UNL     1      43.141   5.166  10.629  0.00  0.00    +0.000 NA
ATOM     13  C   UNL     1      44.417   5.106  10.870  0.00  0.00    +0.000 C 
ATOM     14  F   UNL     1      45.284   4.991   9.858  0.00  0.00    +0.000 F 
ENDBRANCH   2   9
ENDBRANCH   1   6
BRANCH   1  15
ATOM     15  C   UNL     1      48.743   7.106  16.052  0.00  0.00    +0.000 C 
BRANCH  15  16
ATOM     16  N   UNL     1      48.078   5.868  16.488  0.00  0.00    +0.000 N 
ATOM     17  C   UNL     1      49.007   4.866  16.859  0.00  0.00    +0.000 A 
ATOM     18  C   UNL     1      48.536   3.633  17.300  0.00  0.00    +0.000 A 
ATOM     19  C   UNL     1      49.444   2.642  17.676  0.00  0.00    +0.000 A 
ATOM     20  C   UNL     1      50.793   2.933  17.589  0.00  0.00    +0.000 A 
ATOM     21  N   UNL     1      51.245   4.130  17.171  0.00  0.00    +0.000 NA
ATOM     22  N   UNL     1      50.341   5.098  16.818  0.00  0.00    +0.000 NA
ATOM     23  H   UNL     1      47.456   5.488  15.779  0.00  0.00    +0.000 HD
BRANCH  20  24
ATOM     24  C   UNL     1      51.828   1.919  17.943  0.00  0.00    +0.000 C 
ATOM     25  N   UNL     1      51.438   0.606  17.868  0.00  0.00    +0.000 N 
ATOM     26  O   UNL     1      52.958   2.233  18.292  0.00  0.00    +0.000 OA
ATOM     27  H   UNL     1      50.499   0.357  17.577  0.00  0.00    +0.000 HD
ATOM     28  H   UNL     1      52.100  -0.118  18.104  0.00  0.00    +0.000 HD
ENDBRANCH  20  24
ENDBRANCH  15  16
ENDBRANCH   1  15
TORSDOF 5
ENDMDL
MODEL 6
REMARK VINA RESULT:    -6.552      4.195      6.209
REMARK INTER + INTRA:          -9.515
REMARK INTER:                  -8.463
REMARK INTRA:                  -1.052
REMARK UNBOUND:                -1.048
REMARK  Name = 
REMARK  6 active torsions:
REMARK  status: ('A' for Active; 'I' for Inactive)
REMARK    1  A    between atoms: C_1  and  C_2
REMARK    2  A    between atoms: C_2  and  C_3
REMARK    3  A    between atoms: C_7  and  C_8
REMARK    4  A    between atoms: C_8  and  C_9
REMARK    5  A    between atoms: C_9  and  N_10
REMARK    6  A    between atoms: C_14  and  C_15
REMARK                            x       y       z     vdW  Elec       q    Type
REMARK                         _______ _______ _______ _____ _____    ______ ____
ROOT
ATOM      1  C   UNL     1      48.891   8.091  14.783  0.00  0.00    +0.000 C 
ENDROOT
BRANCH   1   6
ATOM      2  C   UNL     1      48.608   5.770  17.819  0.00  0.00    +0.000 A 
ATOM      3  C   UNL     1      48.411   6.716  18.842  0.00  0.00    +0.000 A 
ATOM      4  C   UNL     1      48.322   8.078  18.557  0.00  0.00    +0.000 A 
ATOM      5  C   UNL     1      48.444   8.528  17.244  0.00  0.00    +0.000 A 
ATOM      6  C   UNL     1      48.647   7.617  16.201  0.00  0.00    +0.000 A 
ATOM      7  C   UNL     1      48.705   6.243  16.498  0.00  0.00    +0.000 A 
BRANCH   2   9
ATOM      8  C   UNL     1      48.771   4.081  19.693  0.00  0.00    +0.000 C 
ATOM      9  C   UNL     1      48.763   4.297  18.177  0.00  0.00    +0.000 C 
ATOM     10  C   UNL     1      47.767   3.412  17.466  0.00  0.00    +0.000 C 
ATOM     11  C   UNL     1      48.405   2.525  16.697  0.00  0.00    +0.000 C 
ATOM     12  N   UNL     1      49.767   2.619  16.757  0.00  0.00    +0.000 NA
ATOM     13  C   UNL     1      49.974   3.600  17.584  0.00  0.00    +0.000 C 
ATOM     14  F   UNL     1      51.225   3.950  17.905  0.00  0.00    +0.000 F 
ENDBRANCH   2   9
ENDBRANCH   1   6
BRANCH   1  15
ATOM     15  C   UNL     1      48.883   6.913  13.799  0.00  0.00    +0.000 C 
BRANCH  15  16
ATOM     16  N   UNL     1      48.104   7.215  12.589  0.00  0.00    +0.000 N 
ATOM     17  C   UNL     1      47.031   6.311  12.406  0.00  0.00    +0.000 A 
ATOM     18  C   UNL     1      46.193   6.464  11.305  0.00  0.00    +0.000 A 
ATOM     19  C   UNL     1      45.127   5.584  11.121  0.00  0.00    +0.000 A 
ATOM     20  C   UNL     1      44.948   4.578  12.054  0.00  0.00    +0.000 A 
ATOM     21  N   UNL     1      45.755   4.438  13.123  0.00  0.00    +0.000 NA
ATOM     22  N   UNL     1      46.790   5.320  13.297  0.00  0.00    +0.000 NA
ATOM     23  H   UNL     1      48.675   7.216  11.747  0.00  0.00    +0.000 HD
BRANCH  20  24
ATOM     24  C   UNL     1      43.851   3.578  11.914  0.00  0.00    +0.000 C 
ATOM     25  N   UNL     1      44.041   2.379  12.552  0.00  0.00    +0.000 N 
ATOM     26  O   UNL     1      42.841   3.803  11.260  0.00  0.00    +0.000 OA
ATOM     27  H   UNL     1      44.882   2.203  13.092  0.00  0.00    +0.000 HD
ATOM     28  H   UNL     1      43.330   1.666  12.482  0.00  0.00    +0.000 HD
ENDBRANCH  20  24
ENDBRANCH  15  16
ENDBRANCH   1  15
TORSDOF 5
ENDMDL
MODEL 7
REMARK VINA RESULT:    -6.508      5.555      6.879
REMARK INTER + INTRA:          -9.458
REMARK INTER:                  -8.740
REMARK INTRA:                  -0.718
REMARK UNBOUND:                -1.048
REMARK  Name = 
REMARK  6 active torsions:
REMARK  status: ('A' for Active; 'I' for Inactive)
REMARK    1  A    between atoms: C_1  and  C_2
REMARK    2  A    between atoms: C_2  and  C_3
REMARK    3  A    between atoms: C_7  and  C_8
REMARK    4  A    between atoms: C_8  and  C_9
REMARK    5  A    between atoms: C_9  and  N_10
REMARK    6  A    between atoms: C_14  and  C_15
REMARK                            x       y       z     vdW  Elec       q    Type
REMARK                         _______ _______ _______ _____ _____    ______ ____
ROOT
ATOM      1  C   UNL     1      47.180   3.733  17.292  0.00  0.00    +0.000 C 
ENDROOT
BRANCH   1   6
ATOM      2  C   UNL     1      50.647   4.501  18.732  0.00  0.00    +0.000 A 
ATOM      3  C   UNL     1      50.298   5.373  19.780  0.00  0.00    +0.000 A 
ATOM      4  C   UNL     1      48.964   5.674  20.052  0.00  0.00    +0.000 A 
ATOM      5  C   UNL     1      47.948   5.123  19.273  0.00  0.00    +0.000 A 
ATOM      6  C   UNL     1      48.258   4.256  18.218  0.00  0.00    +0.000 A 
ATOM      7  C   UNL     1      49.606   3.937  17.973  0.00  0.00    +0.000 A 
BRANCH   2   9
ATOM      8  C   UNL     1      52.612   5.112  17.264  0.00  0.00    +0.000 C 
ATOM      9  C   UNL     1      52.119   4.247  18.426  0.00  0.00    +0.000 C 
ATOM     10  C   UNL     1      52.999   4.351  19.648  0.00  0.00    +0.000 C 
ATOM     11  C   UNL     1      53.613   3.187  19.876  0.00  0.00    +0.000 C 
ATOM     12  N   UNL     1      53.319   2.218  18.958  0.00  0.00    +0.000 NA
ATOM     13  C   UNL     1      52.491   2.802  18.144  0.00  0.00    +0.000 C 
ATOM     14  F   UNL     1      52.016   2.138  17.084  0.00  0.00    +0.000 F 
ENDBRANCH   2   9
ENDBRANCH   1   6
BRANCH   1  15
ATOM     15  C   UNL     1      47.631   3.805  15.826  0.00  0.00    +0.000 C 
BRANCH  15  16
ATOM     16  N   UNL     1      47.126   5.013  15.156  0.00  0.00    +0.000 N 
ATOM     17  C   UNL     1      46.390   4.706  13.987  0.00  0.00    +0.000 A 
ATOM     18  C   UNL     1      45.839   5.742  13.238  0.00  0.00    +0.000 A 
ATOM     19  C   UNL     1      45.105   5.449  12.089  0.00  0.00    +0.000 A 
ATOM     20  C   UNL     1      44.957   4.120  11.736  0.00  0.00    +0.000 A 
ATOM     21  N   UNL     1      45.483   3.119  12.467  0.00  0.00    +0.000 NA
ATOM     22  N   UNL     1      46.190   3.423  13.602  0.00  0.00    +0.000 NA
ATOM     23  H   UNL     1      47.869   5.664  14.911  0.00  0.00    +0.000 HD
BRANCH  20  24
ATOM     24  C   UNL     1      44.212   3.723  10.506  0.00  0.00    +0.000 C 
ATOM     25  N   UNL     1      44.289   4.591   9.447  0.00  0.00    +0.000 N 
ATOM     26  O   UNL     1      43.559   2.690  10.442  0.00  0.00    +0.000 OA
ATOM     27  H   UNL     1      44.834   5.445   9.511  0.00  0.00    +0.000 HD
ATOM     28  H   UNL     1      43.797   4.371   8.594  0.00  0.00    +0.000 HD
ENDBRANCH  20  24
ENDBRANCH  15  16
ENDBRANCH   1  15
TORSDOF 5
ENDMDL
MODEL 8
REMARK VINA RESULT:    -5.961      4.278      8.616
REMARK INTER + INTRA:          -8.752
REMARK INTER:                  -8.030
REMARK INTRA:                  -0.721
REMARK UNBOUND:                -1.048
REMARK  Name = 
REMARK  6 active torsions:
REMARK  status: ('A' for Active; 'I' for Inactive)
REMARK    1  A    between atoms: C_1  and  C_2
REMARK    2  A    between atoms: C_2  and  C_3
REMARK    3  A    between atoms: C_7  and  C_8
REMARK    4  A    between atoms: C_8  and  C_9
REMARK    5  A    between atoms: C_9  and  N_10
REMARK    6  A    between atoms: C_14  and  C_15
REMARK                            x       y       z     vdW  Elec       q    Type
REMARK                         _______ _______ _______ _____ _____    ______ ____
ROOT
ATOM      1  C   UNL     1      47.897   7.835  12.536  0.00  0.00    +0.000 C 
ENDROOT
BRANCH   1   6
ATOM      2  C   UNL     1      45.348   5.032  11.960  0.00  0.00    +0.000 A 
ATOM      3  C   UNL     1      45.744   4.121  12.956  0.00  0.00    +0.000 A 
ATOM      4  C   UNL     1      46.784   4.422  13.835  0.00  0.00    +0.000 A 
ATOM      5  C   UNL     1      47.464   5.634  13.726  0.00  0.00    +0.000 A 
ATOM      6  C   UNL     1      47.103   6.561  12.742  0.00  0.00    +0.000 A 
ATOM      7  C   UNL     1      46.031   6.258  11.882  0.00  0.00    +0.000 A 
BRANCH   2   9
ATOM      8  C   UNL     1      43.025   5.552  11.106  0.00  0.00    +0.000 C 
ATOM      9  C   UNL     1      44.248   4.641  10.978  0.00  0.00    +0.000 C 
ATOM     10  C   UNL     1      44.745   4.524   9.557  0.00  0.00    +0.000 C 
ATOM     11  C   UNL     1      44.563   3.280   9.105  0.00  0.00    +0.000 C 
ATOM     12  N   UNL     1      43.967   2.445  10.009  0.00  0.00    +0.000 NA
ATOM     13  C   UNL     1      43.785   3.197  11.053  0.00  0.00    +0.000 C 
ATOM     14  F   UNL     1      43.181   2.698  12.138  0.00  0.00    +0.000 F 
ENDBRANCH   2   9
ENDBRANCH   1   6
BRANCH   1  15
ATOM     15  C   UNL     1      48.905   8.046  13.675  0.00  0.00    +0.000 C 
BRANCH  15  16
ATOM     16  N   UNL     1      48.442   9.060  14.634  0.00  0.00    +0.000 N 
ATOM     17  C   UNL     1      48.422   8.569  15.961  0.00  0.00    +0.000 A 
ATOM     18  C   UNL     1      48.011   9.410  16.991  0.00  0.00    +0.000 A 
ATOM     19  C   UNL     1      47.997   8.937  18.304  0.00  0.00    +0.000 A 
ATOM     20  C   UNL     1      48.394   7.632  18.527  0.00  0.00    +0.000 A 
ATOM     21  N   UNL     1      48.800   6.823  17.530  0.00  0.00    +0.000 NA
ATOM     22  N   UNL     1      48.822   7.307  16.247  0.00  0.00    +0.000 NA
ATOM     23  H   UNL     1      47.518   9.420  14.407  0.00  0.00    +0.000 HD
BRANCH  20  24
ATOM     24  C   UNL     1      48.379   7.041  19.897  0.00  0.00    +0.000 C 
ATOM     25  N   UNL     1      48.167   7.917  20.930  0.00  0.00    +0.000 N 
ATOM     26  O   UNL     1      48.554   5.846  20.095  0.00  0.00    +0.000 OA
ATOM     27  H   UNL     1      48.022   8.906  20.755  0.00  0.00    +0.000 HD
ATOM     28  H   UNL     1      48.154   7.567  21.877  0.00  0.00    +0.000 HD
ENDBRANCH  20  24
ENDBRANCH  15  16
ENDBRANCH   1  15
TORSDOF 5
ENDMDL
