MODEL 1
REMARK VINA RESULT:    -9.381      0.000      0.000
REMARK INTER + INTRA:         -12.702
REMARK INTER:                 -12.123
REMARK INTRA:                  -0.579
REMARK UNBOUND:                -0.579
REMARK  Name = 
REMARK  5 active torsions:
REMARK  status: ('A' for Active; 'I' for Inactive)
REMARK    1  A    between atoms: C_2  and  C_4
REMARK    2  A    between atoms: C_7  and  N_8
REMARK    3  A    between atoms: N_8  and  C_9
REMARK    4  A    between atoms: C_9  and  C_10
REMARK    5  A    between atoms: C_14  and  C_15
REMARK                            x       y       z     vdW  Elec       q    Type
REMARK                         _______ _______ _______ _____ _____    ______ ____
ROOT
ATOM      1  C   UNL     1      43.871   5.065  11.397  0.00  0.00    +0.000 C 
ATOM      2  C   UNL     1      43.099   4.039  12.218  0.00  0.00    +0.000 C 
ATOM      3  C   UNL     1      42.658   5.465  12.212  0.00  0.00    +0.000 C 
ENDROOT
BRANCH   1   4
ATOM      4  C   UNL     1      45.255   5.497  11.876  0.00  0.00    +0.000 A 
ATOM      5  C   UNL     1      45.978   6.513  11.234  0.00  0.00    +0.000 A 
ATOM      6  C   UNL     1      47.199   6.960  11.737  0.00  0.00    +0.000 A 
ATOM      7  C   UNL     1      47.709   6.421  12.919  0.00  0.00    +0.000 A 
ATOM      8  C   UNL     1      47.019   5.421  13.618  0.00  0.00    +0.000 A 
ATOM      9  C   UNL     1      45.820   4.953  13.049  0.00  0.00    +0.000 A 
BRANCH   8  10
ATOM     10  C   UNL     1      47.472   4.943  14.941  0.00  0.00    +0.000 A 
ATOM     11  C   UNL     1      48.238   5.755  15.792  0.00  0.00    +0.000 A 
ATOM     12  C   UNL     1      48.608   5.314  17.059  0.00  0.00    +0.000 A 
ATOM     13  C   UNL     1      48.191   4.058  17.465  0.00  0.00    +0.000 A 
ATOM     14  N   UNL     1      47.460   3.232  16.691  0.00  0.00    +0.000 NA
ATOM     15  C   UNL     1      47.125   3.693  15.458  0.00  0.00    +0.000 A 
ENDBRANCH   8  10
ENDBRANCH   1   4
BRANCH   1  16
ATOM     16  N   UNL     1      43.792   4.865   9.934  0.00  0.00    +0.000 N 
ATOM     17  H   UNL     1      42.843   4.889   9.565  0.00  0.00    +0.000 HD
BRANCH  16  21
ATOM     18  C   UNL     1      46.366   2.288   7.773  0.00  0.00    +0.000 A 
ATOM     19  C   UNL     1      45.490   1.747   8.718  0.00  0.00    +0.000 A 
ATOM     20  C   UNL     1      44.636   2.587   9.443  0.00  0.00    +0.000 A 
ATOM     21  C   UNL     1      44.593   3.963   9.202  0.00  0.00    +0.000 A 
ATOM     22  C   UNL     1      45.505   4.494   8.276  0.00  0.00    +0.000 A 
ATOM     23  C   UNL     1      46.386   3.670   7.570  0.00  0.00    +0.000 A 
BRANCH  18  25
ATOM     24  N   UNL     1      48.452   2.045   6.543  0.00  0.00    +0.000 N 
ATOM     25  C   UNL     1      47.321   1.439   7.017  0.00  0.00    +0.000 C 
ATOM     26  O   UNL     1      47.126   0.242   6.851  0.00  0.00    +0.000 OA
ATOM     27  H   UNL     1      49.138   1.438   6.112  0.00  0.00    +0.000 HD
ATOM     28  H   UNL     1      48.764   2.945   6.877  0.00  0.00    +0.000 HD
ENDBRANCH  18  25
ENDBRANCH  16  21
ENDBRANCH   1  16
TORSDOF 5
ENDMDL
MODEL 2
REMARK VINA RESULT:    -9.366      2.088      3.608
REMARK INTER + INTRA:         -12.683
REMARK INTER:                 -11.417
REMARK INTRA:                  -1.267
REMARK UNBOUND:                -0.579
REMARK  Name = 
REMARK  5 active torsions:
REMARK  status: ('A' for Active; 'I' for Inactive)
REMARK    1  A    between atoms: C_2  and  C_4
REMARK    2  A    between atoms: C_7  and  N_8
REMARK    3  A    between atoms: N_8  and  C_9
REMARK    4  A    between atoms: C_9  and  C_10
REMARK    5  A    between atoms: C_14  and  C_15
REMARK                            x       y       z     vdW  Elec       q    Type
REMARK                         _______ _______ _______ _____ _____    ______ ____
ROOT
ATOM      1  C   UNL     1      43.807   5.027  11.412  0.00  0.00    +0.000 C 
ATOM      2  C   UNL     1      42.476   5.319  12.094  0.00  0.00    +0.000 C 
ATOM      3  C   UNL     1      42.982   6.239  11.033  0.00  0.00    +0.000 C 
ENDROOT
BRANCH   1   4
ATOM      4  C   UNL     1      45.097   5.233  12.203  0.00  0.00    +0.000 A 
ATOM      5  C   UNL     1      45.602   4.250  13.067  0.00  0.00    +0.000 A 
ATOM      6  C   UNL     1      46.828   4.414  13.711  0.00  0.00    +0.000 A 
ATOM      7  C   UNL     1      47.595   5.555  13.476  0.00  0.00    +0.000 A 
ATOM      8  C   UNL     1      47.154   6.559  12.603  0.00  0.00    +0.000 A 
ATOM      9  C   UNL     1      45.886   6.388  12.018  0.00  0.00    +0.000 A 
BRANCH   8  10
ATOM     10  C   UNL     1      48.015   7.702  12.234  0.00  0.00    +0.000 A 
ATOM     11  C   UNL     1      49.363   7.523  11.887  0.00  0.00    +0.000 A 
ATOM     12  C   UNL     1      50.147   8.600  11.484  0.00  0.00    +0.000 A 
ATOM     13  C   UNL     1      49.560   9.853  11.422  0.00  0.00    +0.000 A 
ATOM     14  N   UNL     1      48.275  10.087  11.748  0.00  0.00    +0.000 NA
ATOM     15  C   UNL     1      47.543   9.014  12.144  0.00  0.00    +0.000 A 
ENDBRANCH   8  10
ENDBRANCH   1   4
BRANCH   1  16
ATOM     16  N   UNL     1      43.815   3.802  10.584  0.00  0.00    +0.000 N 
ATOM     17  H   UNL     1      43.545   2.960  11.090  0.00  0.00    +0.000 HD
BRANCH  16  21
ATOM     18  C   UNL     1      46.566   2.764   7.536  0.00  0.00    +0.000 A 
ATOM     19  C   UNL     1      46.249   4.109   7.745  0.00  0.00    +0.000 A 
ATOM     20  C   UNL     1      45.338   4.467   8.746  0.00  0.00    +0.000 A 
ATOM     21  C   UNL     1      44.774   3.508   9.593  0.00  0.00    +0.000 A 
ATOM     22  C   UNL     1      45.075   2.160   9.345  0.00  0.00    +0.000 A 
ATOM     23  C   UNL     1      45.958   1.787   8.327  0.00  0.00    +0.000 A 
BRANCH  18  25
ATOM     24  N   UNL     1      47.407   3.007   5.265  0.00  0.00    +0.000 N 
ATOM     25  C   UNL     1      47.489   2.338   6.454  0.00  0.00    +0.000 C 
ATOM     26  O   UNL     1      48.313   1.448   6.625  0.00  0.00    +0.000 OA
ATOM     27  H   UNL     1      48.102   2.771   4.569  0.00  0.00    +0.000 HD
ATOM     28  H   UNL     1      46.934   3.894   5.175  0.00  0.00    +0.000 HD
ENDBRANCH  18  25
ENDBRANCH  16  21
ENDBRANCH   1  16
TORSDOF 5
ENDMDL
MODEL 3
REMARK VINA RESULT:    -8.407      2.353      2.983
REMARK INTER + INTRA:         -11.443
REMARK INTER:                 -10.933
REMARK INTRA:                  -0.511
REMARK UNBOUND:                -0.579
REMARK  Name = 
REMARK  5 active torsions:
REMARK  status: ('A' for Active; 'I' for Inactive)
REMARK    1  A    between atoms: C_2  and  C_4
REMARK    2  A    between atoms: C_7  and  N_8
REMARK    3  A    between atoms: N_8  and  C_9
REMARK    4  A    between atoms: C_9  and  C_10
REMARK    5  A    between atoms: C_14  and  C_15
REMARK                            x       y       z     vdW  Elec       q    Type
REMARK                         _______ _______ _______ _____ _____    ______ ____
ROOT
ATOM      1  C   UNL     1      44.264   4.472  11.657  0.00  0.00    +0.000 C 
ATOM      2  C   UNL     1      44.963   3.438  12.532  0.00  0.00    +0.000 C 
ATOM      3  C   UNL     1      43.628   3.968  12.936  0.00  0.00    +0.000 C 
ENDROOT
BRANCH   1   4
ATOM      4  C   UNL     1      44.815   5.895  11.620  0.00  0.00    +0.000 A 
ATOM      5  C   UNL     1      43.982   7.008  11.435  0.00  0.00    +0.000 A 
ATOM      6  C   UNL     1      44.485   8.307  11.496  0.00  0.00    +0.000 A 
ATOM      7  C   UNL     1      45.834   8.522  11.779  0.00  0.00    +0.000 A 
ATOM      8  C   UNL     1      46.710   7.450  11.998  0.00  0.00    +0.000 A 
ATOM      9  C   UNL     1      46.180   6.153  11.869  0.00  0.00    +0.000 A 
BRANCH   8  10
ATOM     10  C   UNL     1      48.105   7.662  12.438  0.00  0.00    +0.000 A 
ATOM     11  C   UNL     1      49.160   7.747  11.516  0.00  0.00    +0.000 A 
ATOM     12  C   UNL     1      50.460   8.006  11.940  0.00  0.00    +0.000 A 
ATOM     13  C   UNL     1      50.686   8.191  13.293  0.00  0.00    +0.000 A 
ATOM     14  N   UNL     1      49.716   8.116  14.225  0.00  0.00    +0.000 NA
ATOM     15  C   UNL     1      48.461   7.854  13.775  0.00  0.00    +0.000 A 
ENDBRANCH   8  10
ENDBRANCH   1   4
BRANCH   1  16
ATOM     16  N   UNL     1      43.846   3.969  10.331  0.00  0.00    +0.000 N 
ATOM     17  H   UNL     1      42.986   3.424  10.349  0.00  0.00    +0.000 HD
BRANCH  16  21
ATOM     18  C   UNL     1      46.634   2.667   7.421  0.00  0.00    +0.000 A 
ATOM     19  C   UNL     1      45.960   1.720   8.198  0.00  0.00    +0.000 A 
ATOM     20  C   UNL     1      45.039   2.136   9.167  0.00  0.00    +0.000 A 
ATOM     21  C   UNL     1      44.726   3.487   9.340  0.00  0.00    +0.000 A 
ATOM     22  C   UNL     1      45.439   4.426   8.577  0.00  0.00    +0.000 A 
ATOM     23  C   UNL     1      46.386   4.025   7.630  0.00  0.00    +0.000 A 
BRANCH  18  25
ATOM     24  N   UNL     1      47.781   3.066   5.312  0.00  0.00    +0.000 N 
ATOM     25  C   UNL     1      47.654   2.271   6.417  0.00  0.00    +0.000 C 
ATOM     26  O   UNL     1      48.375   1.295   6.582  0.00  0.00    +0.000 OA
ATOM     27  H   UNL     1      48.541   2.841   4.683  0.00  0.00    +0.000 HD
ATOM     28  H   UNL     1      47.397   3.999   5.270  0.00  0.00    +0.000 HD
ENDBRANCH  18  25
ENDBRANCH  16  21
ENDBRANCH   1  16
TORSDOF 5
ENDMDL
MODEL 4
REMARK VINA RESULT:    -7.963      2.965      7.498
REMARK INTER + INTRA:         -10.870
REMARK INTER:                  -9.794
REMARK INTRA:                  -1.076
REMARK UNBOUND:                -0.579
REMARK  Name = 
REMARK  5 active torsions:
REMARK  status: ('A' for Active; 'I' for Inactive)
REMARK    1  A    between atoms: C_2  and  C_4
REMARK    2  A    between atoms: C_7  and  N_8
REMARK    3  A    between atoms: N_8  and  C_9
REMARK    4  A    between atoms: C_9  and  C_10
REMARK    5  A    between atoms: C_14  and  C_15
REMARK                            x       y       z     vdW  Elec       q    Type
REMARK                         _______ _______ _______ _____ _____    ______ ____
ROOT
ATOM      1  C   UNL     1      46.195   7.273  12.359  0.00  0.00    +0.000 C 
ATOM      2  C   UNL     1      46.355   8.655  11.736  0.00  0.00    +0.000 C 
ATOM      3  C   UNL     1      45.597   8.502  13.013  0.00  0.00    +0.000 C 
ENDROOT
BRANCH   1   4
ATOM      4  C   UNL     1      45.261   6.269  11.687  0.00  0.00    +0.000 A 
ATOM      5  C   UNL     1      43.867   6.349  11.823  0.00  0.00    +0.000 A 
ATOM      6  C   UNL     1      43.023   5.482  11.130  0.00  0.00    +0.000 A 
ATOM      7  C   UNL     1      43.557   4.535  10.256  0.00  0.00    +0.000 A 
ATOM      8  C   UNL     1      44.940   4.426  10.060  0.00  0.00    +0.000 A 
ATOM      9  C   UNL     1      45.764   5.276  10.821  0.00  0.00    +0.000 A 
BRANCH   8  10
ATOM     10  C   UNL     1      45.513   3.529   9.034  0.00  0.00    +0.000 A 
ATOM     11  C   UNL     1      46.151   4.035   7.891  0.00  0.00    +0.000 A 
ATOM     12  C   UNL     1      46.739   3.180   6.963  0.00  0.00    +0.000 A 
ATOM     13  C   UNL     1      46.688   1.817   7.201  0.00  0.00    +0.000 A 
ATOM     14  N   UNL     1      46.085   1.273   8.276  0.00  0.00    +0.000 NA
ATOM     15  C   UNL     1      45.516   2.138   9.156  0.00  0.00    +0.000 A 
ENDBRANCH   8  10
ENDBRANCH   1   4
BRANCH   1  16
ATOM     16  N   UNL     1      47.455   6.671  12.843  0.00  0.00    +0.000 N 
ATOM     17  H   UNL     1      47.972   6.163  12.128  0.00  0.00    +0.000 HD
BRANCH  16  21
ATOM     18  C   UNL     1      47.993   4.676  16.540  0.00  0.00    +0.000 A 
ATOM     19  C   UNL     1      48.657   5.884  16.310  0.00  0.00    +0.000 A 
ATOM     20  C   UNL     1      48.492   6.553  15.091  0.00  0.00    +0.000 A 
ATOM     21  C   UNL     1      47.624   6.069  14.108  0.00  0.00    +0.000 A 
ATOM     22  C   UNL     1      46.994   4.836  14.341  0.00  0.00    +0.000 A 
ATOM     23  C   UNL     1      47.177   4.142  15.541  0.00  0.00    +0.000 A 
BRANCH  18  25
ATOM     24  N   UNL     1      47.300   2.891  18.043  0.00  0.00    +0.000 N 
ATOM     25  C   UNL     1      48.178   3.910  17.799  0.00  0.00    +0.000 C 
ATOM     26  O   UNL     1      49.096   4.154  18.572  0.00  0.00    +0.000 OA
ATOM     27  H   UNL     1      47.492   2.319  18.855  0.00  0.00    +0.000 HD
ATOM     28  H   UNL     1      46.708   2.502  17.323  0.00  0.00    +0.000 HD
ENDBRANCH  18  25
ENDBRANCH  16  21
ENDBRANCH   1  16
TORSDOF 5
ENDMDL
MODEL 5
REMARK VINA RESULT:    -7.145      2.650      4.447
REMARK INTER + INTRA:          -9.813
REMARK INTER:                  -8.887
REMARK INTRA:                  -0.926
REMARK UNBOUND:                -0.579
REMARK  Name = 
REMARK  5 active torsions:
REMARK  status: ('A' for Active; 'I' for Inactive)
REMARK    1  A    between atoms: C_2  and  C_4
REMARK    2  A    between atoms: C_7  and  N_8
REMARK    3  A    between atoms: N_8  and  C_9
REMARK    4  A    between atoms: C_9  and  C_10
REMARK    5  A    between atoms: C_14  and  C_15
REMARK                            x       y       z     vdW  Elec       q    Type
REMARK                         _______ _______ _______ _____ _____    ______ ____
ROOT
ATOM      1  C   UNL     1      48.006   8.017  12.489  0.00  0.00    +0.000 C 
ATOM      2  C   UNL     1      48.637   9.137  11.672  0.00  0.00    +0.000 C 
ATOM      3  C   UNL     1      49.056   7.724  11.437  0.00  0.00    +0.000 C 
ENDROOT
BRANCH   1   4
ATOM      4  C   UNL     1      48.382   7.881  13.963  0.00  0.00    +0.000 A 
ATOM      5  C   UNL     1      48.657   9.000  14.763  0.00  0.00    +0.000 A 
ATOM      6  C   UNL     1      48.908   8.869  16.128  0.00  0.00    +0.000 A 
ATOM      7  C   UNL     1      48.857   7.612  16.731  0.00  0.00    +0.000 A 
ATOM      8  C   UNL     1      48.563   6.461  15.987  0.00  0.00    +0.000 A 
ATOM      9  C   UNL     1      48.374   6.624  14.602  0.00  0.00    +0.000 A 
BRANCH   8  10
ATOM     10  C   UNL     1      48.364   5.146  16.633  0.00  0.00    +0.000 A 
ATOM     11  C   UNL     1      49.331   4.597  17.489  0.00  0.00    +0.000 A 
ATOM     12  C   UNL     1      49.106   3.386  18.138  0.00  0.00    +0.000 A 
ATOM     13  C   UNL     1      47.899   2.742  17.927  0.00  0.00    +0.000 A 
ATOM     14  N   UNL     1      46.936   3.217  17.113  0.00  0.00    +0.000 NA
ATOM     15  C   UNL     1      47.194   4.397  16.491  0.00  0.00    +0.000 A 
ENDBRANCH   8  10
ENDBRANCH   1   4
BRANCH   1  16
ATOM     16  N   UNL     1      46.566   7.805  12.228  0.00  0.00    +0.000 N 
ATOM     17  H   UNL     1      45.952   8.318  12.860  0.00  0.00    +0.000 HD
BRANCH  16  21
ATOM     18  C   UNL     1      44.661   4.158  11.228  0.00  0.00    +0.000 A 
ATOM     19  C   UNL     1      45.274   4.909  10.222  0.00  0.00    +0.000 A 
ATOM     20  C   UNL     1      45.904   6.120  10.537  0.00  0.00    +0.000 A 
ATOM     21  C   UNL     1      45.989   6.573  11.857  0.00  0.00    +0.000 A 
ATOM     22  C   UNL     1      45.337   5.824  12.849  0.00  0.00    +0.000 A 
ATOM     23  C   UNL     1      44.675   4.631  12.542  0.00  0.00    +0.000 A 
BRANCH  18  25
ATOM     24  N   UNL     1      44.409   2.139   9.891  0.00  0.00    +0.000 N 
ATOM     25  C   UNL     1      43.940   2.894  10.930  0.00  0.00    +0.000 C 
ATOM     26  O   UNL     1      42.988   2.522  11.604  0.00  0.00    +0.000 OA
ATOM     27  H   UNL     1      43.969   1.238   9.757  0.00  0.00    +0.000 HD
ATOM     28  H   UNL     1      45.325   2.279   9.491  0.00  0.00    +0.000 HD
ENDBRANCH  18  25
ENDBRANCH  16  21
ENDBRANCH   1  16
TORSDOF 5
ENDMDL
MODEL 6
REMARK VINA RESULT:    -7.109      2.974      4.723
REMARK INTER + INTRA:          -9.766
REMARK INTER:                  -8.550
REMARK INTRA:                  -1.216
REMARK UNBOUND:                -0.579
REMARK  Name = 
REMARK  5 active torsions:
REMARK  status: ('A' for Active; 'I' for Inactive)
REMARK    1  A    between atoms: C_2  and  C_4
REMARK    2  A    between atoms: C_7  and  N_8
REMARK    3  A    between atoms: N_8  and  C_9
REMARK    4  A    between atoms: C_9  and  C_10
REMARK    5  A    between atoms: C_14  and  C_15
REMARK                            x       y       z     vdW  Elec       q    Type
REMARK                         _______ _______ _______ _____ _____    ______ ____
ROOT
ATOM      1  C   UNL     1      48.196   8.158  12.515  0.00  0.00    +0.000 C 
ATOM      2  C   UNL     1      49.014   9.133  11.677  0.00  0.00    +0.000 C 
ATOM      3  C   UNL     1      49.282   7.668  11.579  0.00  0.00    +0.000 C 
ENDROOT
BRANCH   1   4
ATOM      4  C   UNL     1      48.442   8.100  14.021  0.00  0.00    +0.000 A 
ATOM      5  C   UNL     1      48.308   9.232  14.837  0.00  0.00    +0.000 A 
ATOM      6  C   UNL     1      48.444   9.145  16.223  0.00  0.00    +0.000 A 
ATOM      7  C   UNL     1      48.685   7.910  16.825  0.00  0.00    +0.000 A 
ATOM      8  C   UNL     1      48.803   6.740  16.063  0.00  0.00    +0.000 A 
ATOM      9  C   UNL     1      48.720   6.876  14.665  0.00  0.00    +0.000 A 
BRANCH   8  10
ATOM     10  C   UNL     1      48.916   5.408  16.693  0.00  0.00    +0.000 A 
ATOM     11  C   UNL     1      47.868   4.476  16.631  0.00  0.00    +0.000 A 
ATOM     12  C   UNL     1      48.009   3.204  17.178  0.00  0.00    +0.000 A 
ATOM     13  C   UNL     1      49.214   2.875  17.774  0.00  0.00    +0.000 A 
ATOM     14  N   UNL     1      50.252   3.728  17.869  0.00  0.00    +0.000 NA
ATOM     15  C   UNL     1      50.076   4.963  17.332  0.00  0.00    +0.000 A 
ENDBRANCH   8  10
ENDBRANCH   1   4
BRANCH   1  16
ATOM     16  N   UNL     1      46.765   8.087  12.149  0.00  0.00    +0.000 N 
ATOM     17  H   UNL     1      46.196   8.821  12.567  0.00  0.00    +0.000 HD
BRANCH  16  21
ATOM     18  C   UNL     1      44.705   4.425  11.623  0.00  0.00    +0.000 A 
ATOM     19  C   UNL     1      44.854   4.949  12.910  0.00  0.00    +0.000 A 
ATOM     20  C   UNL     1      45.537   6.157  13.100  0.00  0.00    +0.000 A 
ATOM     21  C   UNL     1      46.028   6.892  12.017  0.00  0.00    +0.000 A 
ATOM     22  C   UNL     1      45.901   6.333  10.736  0.00  0.00    +0.000 A 
ATOM     23  C   UNL     1      45.251   5.111  10.537  0.00  0.00    +0.000 A 
BRANCH  18  25
ATOM     24  N   UNL     1      43.729   2.366  12.480  0.00  0.00    +0.000 N 
ATOM     25  C   UNL     1      44.031   3.123  11.383  0.00  0.00    +0.000 C 
ATOM     26  O   UNL     1      43.727   2.755  10.255  0.00  0.00    +0.000 OA
ATOM     27  H   UNL     1      43.188   1.528  12.311  0.00  0.00    +0.000 HD
ATOM     28  H   UNL     1      43.728   2.745  13.416  0.00  0.00    +0.000 HD
ENDBRANCH  18  25
ENDBRANCH  16  21
ENDBRANCH   1  16
TORSDOF 5
ENDMDL
