MODEL 1
REMARK VINA RESULT:    -7.823      0.000      0.000
REMARK INTER + INTRA:         -11.681
REMARK INTER:                 -10.567
REMARK INTRA:                  -1.114
REMARK UNBOUND:                -1.114
REMARK  Name = 
REMARK  6 active torsions:
REMARK  status: ('A' for Active; 'I' for Inactive)
REMARK    1  A    between atoms: C_2  and  C_25
REMARK    2  A    between atoms: N_3  and  C_4
REMARK    3  A    between atoms: C_4  and  C_5
REMARK    4  A    between atoms: C_8  and  C_9
REMARK    5  A    between atoms: C_9  and  N_10
REMARK    6  A    between atoms: C_11  and  C_13
REMARK                            x       y       z     vdW  Elec       q    Type
REMARK                         _______ _______ _______ _____ _____    ______ ____
ROOT
ATOM      1  C   UNL     1      44.915   5.665  10.787  0.00  0.00    +0.000 A 
ATOM      2  C   UNL     1      44.273   6.246  11.889  0.00  0.00    +0.000 A 
ATOM      3  C   UNL     1      44.982   7.059  12.782  0.00  0.00    +0.000 A 
ATOM      4  C   UNL     1      46.343   7.323  12.580  0.00  0.00    +0.000 A 
ATOM      5  C   UNL     1      46.983   6.742  11.478  0.00  0.00    +0.000 A 
ATOM      6  C   UNL     1      46.275   5.931  10.584  0.00  0.00    +0.000 A 
ENDROOT
BRANCH   1   7
ATOM      7  C   UNL     1      44.158   4.765   9.845  0.00  0.00    +0.000 C 
BRANCH   7  10
ATOM      8  O   UNL     1      45.130   2.181   9.794  0.00  0.00    +0.000 OA
ATOM      9  C   UNL     1      45.442   2.919   8.860  0.00  0.00    +0.000 C 
ATOM     10  N   UNL     1      45.001   4.225   8.807  0.00  0.00    +0.000 N 
ATOM     11  H   UNL     1      45.272   4.812   8.030  0.00  0.00    +0.000 HD
BRANCH   9  12
ATOM     12  C   UNL     1      46.276   2.471   7.762  0.00  0.00    +0.000 A 
ATOM     13  C   UNL     1      46.905   1.244   7.638  0.00  0.00    +0.000 A 
ATOM     14  N   UNL     1      47.651   1.060   6.488  0.00  0.00    +0.000 NA
ATOM     15  C   UNL     1      47.587   2.148   5.755  0.00  0.00    +0.000 A 
ATOM     16  S   UNL     1      46.641   3.432   6.388  0.00  0.00    +0.000 S 
ENDBRANCH   9  12
ENDBRANCH   7  10
ENDBRANCH   1   7
BRANCH   4  17
ATOM     17  C   UNL     1      47.116   8.190  13.541  0.00  0.00    +0.000 C 
BRANCH  17  18
ATOM     18  N   UNL     1      47.528   7.454  14.710  0.00  0.00    +0.000 N 
ATOM     19  C   UNL     1      48.775   6.883  14.781  0.00  0.00    +0.000 C 
ATOM     20  O   UNL     1      49.604   7.024  13.885  0.00  0.00    +0.000 OA
ATOM     21  H   UNL     1      46.798   7.140  15.342  0.00  0.00    +0.000 HD
BRANCH  19  22
ATOM     22  C   UNL     1      49.096   6.144  16.009  0.00  0.00    +0.000 A 
ATOM     23  C   UNL     1      50.177   6.539  16.787  0.00  0.00    +0.000 A 
ATOM     24  S   UNL     1      50.380   5.609  18.202  0.00  0.00    +0.000 S 
ATOM     25  C   UNL     1      49.064   4.610  17.799  0.00  0.00    +0.000 A 
ATOM     26  N   UNL     1      48.704   3.571  18.599  0.00  0.00    +0.000 NA
ATOM     27  C   UNL     1      47.712   2.874  18.154  0.00  0.00    +0.000 A 
ATOM     28  N   UNL     1      47.044   3.125  16.986  0.00  0.00    +0.000 N 
ATOM     29  C   UNL     1      47.349   4.183  16.162  0.00  0.00    +0.000 A 
ATOM     30  O   UNL     1      46.702   4.407  15.145  0.00  0.00    +0.000 OA
ATOM     31  C   UNL     1      48.467   4.991  16.609  0.00  0.00    +0.000 A 
ATOM     32  H   UNL     1      46.269   2.545  16.697  0.00  0.00    +0.000 HD
ENDBRANCH  19  22
ENDBRANCH  17  18
ENDBRANCH   4  17
TORSDOF 6
ENDMDL
MODEL 2
REMARK VINA RESULT:    -7.005      4.824      9.261
REMARK INTER + INTRA:         -10.575
REMARK INTER:                  -9.822
REMARK INTRA:                  -0.753
REMARK UNBOUND:                -1.114
REMARK  Name = 
REMARK  6 active torsions:
REMARK  status: ('A' for Active; 'I' for Inactive)
REMARK    1  A    between atoms: C_2  and  C_25
REMARK    2  A    between atoms: N_3  and  C_4
REMARK    3  A    between atoms: C_4  and  C_5
REMARK    4  A    between atoms: C_8  and  C_9
REMARK    5  A    between atoms: C_9  and  N_10
REMARK    6  A    between atoms: C_11  and  C_13
REMARK                            x       y       z     vdW  Elec       q    Type
REMARK                         _______ _______ _______ _____ _____    ______ ____
ROOT
ATOM      1  C   UNL     1      51.470   3.195  17.697  0.00  0.00    +0.000 A 
ATOM      2  C   UNL     1      50.761   2.083  17.225  0.00  0.00    +0.000 A 
ATOM      3  C   UNL     1      49.379   2.156  17.007  0.00  0.00    +0.000 A 
ATOM      4  C   UNL     1      48.683   3.350  17.238  0.00  0.00    +0.000 A 
ATOM      5  C   UNL     1      49.394   4.460  17.711  0.00  0.00    +0.000 A 
ATOM      6  C   UNL     1      50.774   4.388  17.927  0.00  0.00    +0.000 A 
ENDROOT
BRANCH   1   7
ATOM      7  C   UNL     1      52.950   3.104  17.961  0.00  0.00    +0.000 C 
BRANCH   7  10
ATOM      8  O   UNL     1      54.289   1.320  19.589  0.00  0.00    +0.000 OA
ATOM      9  C   UNL     1      54.163   1.015  18.405  0.00  0.00    +0.000 C 
ATOM     10  N   UNL     1      53.509   1.849  17.521  0.00  0.00    +0.000 N 
ATOM     11  H   UNL     1      53.420   1.577  16.551  0.00  0.00    +0.000 HD
BRANCH   9  12
ATOM     12  C   UNL     1      54.679  -0.227  17.863  0.00  0.00    +0.000 A 
ATOM     13  C   UNL     1      55.056  -0.473  16.554  0.00  0.00    +0.000 A 
ATOM     14  N   UNL     1      55.519  -1.749  16.287  0.00  0.00    +0.000 NA
ATOM     15  C   UNL     1      55.483  -2.458  17.393  0.00  0.00    +0.000 A 
ATOM     16  S   UNL     1      54.907  -1.651  18.792  0.00  0.00    +0.000 S 
ENDBRANCH   9  12
ENDBRANCH   7  10
ENDBRANCH   1   7
BRANCH   4  17
ATOM     17  C   UNL     1      47.194   3.435  17.015  0.00  0.00    +0.000 C 
BRANCH  17  18
ATOM     18  N   UNL     1      46.860   4.434  16.030  0.00  0.00    +0.000 N 
ATOM     19  C   UNL     1      46.985   4.171  14.688  0.00  0.00    +0.000 C 
ATOM     20  O   UNL     1      47.327   3.067  14.273  0.00  0.00    +0.000 OA
ATOM     21  H   UNL     1      46.799   5.396  16.347  0.00  0.00    +0.000 HD
BRANCH  19  22
ATOM     22  C   UNL     1      46.630   5.257  13.765  0.00  0.00    +0.000 A 
ATOM     23  C   UNL     1      47.536   6.283  13.529  0.00  0.00    +0.000 A 
ATOM     24  S   UNL     1      46.990   7.434  12.395  0.00  0.00    +0.000 S 
ATOM     25  C   UNL     1      45.500   6.633  12.220  0.00  0.00    +0.000 A 
ATOM     26  N   UNL     1      44.538   7.121  11.391  0.00  0.00    +0.000 NA
ATOM     27  C   UNL     1      43.444   6.434  11.382  0.00  0.00    +0.000 A 
ATOM     28  N   UNL     1      43.228   5.301  12.121  0.00  0.00    +0.000 N 
ATOM     29  C   UNL     1      44.182   4.752  12.944  0.00  0.00    +0.000 A 
ATOM     30  O   UNL     1      43.973   3.711  13.557  0.00  0.00    +0.000 OA
ATOM     31  C   UNL     1      45.427   5.493  13.003  0.00  0.00    +0.000 A 
ATOM     32  H   UNL     1      42.350   4.804  12.063  0.00  0.00    +0.000 HD
ENDBRANCH  19  22
ENDBRANCH  17  18
ENDBRANCH   4  17
TORSDOF 6
ENDMDL
MODEL 3
REMARK VINA RESULT:    -6.862      1.802      2.127
REMARK INTER + INTRA:         -10.383
REMARK INTER:                  -9.493
REMARK INTRA:                  -0.890
REMARK UNBOUND:                -1.114
REMARK  Name = 
REMARK  6 active torsions:
REMARK  status: ('A' for Active; 'I' for Inactive)
REMARK    1  A    between atoms: C_2  and  C_25
REMARK    2  A    between atoms: N_3  and  C_4
REMARK    3  A    between atoms: C_4  and  C_5
REMARK    4  A    between atoms: C_8  and  C_9
REMARK    5  A    between atoms: C_9  and  N_10
REMARK    6  A    between atoms: C_11  and  C_13
REMARK                            x       y       z     vdW  Elec       q    Type
REMARK                         _______ _______ _______ _____ _____    ______ ____
ROOT
ATOM      1  C   UNL     1      44.917   4.510  11.758  0.00  0.00    +0.000 A 
ATOM      2  C   UNL     1      45.659   4.193  12.905  0.00  0.00    +0.000 A 
ATOM      3  C   UNL     1      46.398   5.178  13.571  0.00  0.00    +0.000 A 
ATOM      4  C   UNL     1      46.395   6.503  13.117  0.00  0.00    +0.000 A 
ATOM      5  C   UNL     1      45.653   6.818  11.971  0.00  0.00    +0.000 A 
ATOM      6  C   UNL     1      44.913   5.835  11.305  0.00  0.00    +0.000 A 
ENDROOT
BRANCH   1   7
ATOM      7  C   UNL     1      44.148   3.443  11.025  0.00  0.00    +0.000 C 
BRANCH   7  10
ATOM      8  O   UNL     1      44.501   4.204   8.394  0.00  0.00    +0.000 OA
ATOM      9  C   UNL     1      45.087   3.190   8.770  0.00  0.00    +0.000 C 
ATOM     10  N   UNL     1      44.965   2.738  10.068  0.00  0.00    +0.000 N 
ATOM     11  H   UNL     1      45.456   1.901  10.353  0.00  0.00    +0.000 HD
BRANCH   9  12
ATOM     12  C   UNL     1      45.940   2.414   7.891  0.00  0.00    +0.000 A 
ATOM     13  C   UNL     1      46.287   1.081   8.028  0.00  0.00    +0.000 A 
ATOM     14  N   UNL     1      47.121   0.569   7.050  0.00  0.00    +0.000 NA
ATOM     15  C   UNL     1      47.403   1.518   6.187  0.00  0.00    +0.000 A 
ATOM     16  S   UNL     1      46.695   3.050   6.488  0.00  0.00    +0.000 S 
ENDBRANCH   9  12
ENDBRANCH   7  10
ENDBRANCH   1   7
BRANCH   4  17
ATOM     17  C   UNL     1      47.196   7.568  13.824  0.00  0.00    +0.000 C 
BRANCH  17  18
ATOM     18  N   UNL     1      48.383   7.024  14.435  0.00  0.00    +0.000 N 
ATOM     19  C   UNL     1      49.159   7.788  15.272  0.00  0.00    +0.000 C 
ATOM     20  O   UNL     1      48.847   8.936  15.577  0.00  0.00    +0.000 OA
ATOM     21  H   UNL     1      48.770   6.180  14.026  0.00  0.00    +0.000 HD
BRANCH  19  22
ATOM     22  C   UNL     1      50.354   7.146  15.836  0.00  0.00    +0.000 A 
ATOM     23  C   UNL     1      51.608   7.692  15.591  0.00  0.00    +0.000 A 
ATOM     24  S   UNL     1      52.881   6.857  16.359  0.00  0.00    +0.000 S 
ATOM     25  C   UNL     1      51.808   5.703  17.001  0.00  0.00    +0.000 A 
ATOM     26  N   UNL     1      52.265   4.670  17.759  0.00  0.00    +0.000 NA
ATOM     27  C   UNL     1      51.347   3.850  18.150  0.00  0.00    +0.000 A 
ATOM     28  N   UNL     1      50.015   3.972  17.858  0.00  0.00    +0.000 N 
ATOM     29  C   UNL     1      49.503   5.018  17.125  0.00  0.00    +0.000 A 
ATOM     30  O   UNL     1      48.299   5.122  16.919  0.00  0.00    +0.000 OA
ATOM     31  C   UNL     1      50.495   5.962  16.648  0.00  0.00    +0.000 A 
ATOM     32  H   UNL     1      49.345   3.299  18.201  0.00  0.00    +0.000 HD
ENDBRANCH  19  22
ENDBRANCH  17  18
ENDBRANCH   4  17
TORSDOF 6
ENDMDL
MODEL 4
REMARK VINA RESULT:    -6.763      2.151      3.663
REMARK INTER + INTRA:         -10.249
REMARK INTER:                  -9.395
REMARK INTRA:                  -0.854
REMARK UNBOUND:                -1.114
REMARK  Name = 
REMARK  6 active torsions:
REMARK  status: ('A' for Active; 'I' for Inactive)
REMARK    1  A    between atoms: C_2  and  C_25
REMARK    2  A    between atoms: N_3  and  C_4
REMARK    3  A    between atoms: C_4  and  C_5
REMARK    4  A    between atoms: C_8  and  C_9
REMARK    5  A    between atoms: C_9  and  N_10
REMARK    6  A    between atoms: C_11  and  C_13
REMARK                            x       y       z     vdW  Elec       q    Type
REMARK                         _______ _______ _______ _____ _____    ______ ____
ROOT
ATOM      1  C   UNL     1      44.955   4.324  11.425  0.00  0.00    +0.000 A 
ATOM      2  C   UNL     1      45.058   5.588  12.023  0.00  0.00    +0.000 A 
ATOM      3  C   UNL     1      45.679   5.740  13.268  0.00  0.00    +0.000 A 
ATOM      4  C   UNL     1      46.227   4.635  13.933  0.00  0.00    +0.000 A 
ATOM      5  C   UNL     1      46.123   3.373  13.334  0.00  0.00    +0.000 A 
ATOM      6  C   UNL     1      45.504   3.220  12.088  0.00  0.00    +0.000 A 
ENDROOT
BRANCH   1   7
ATOM      7  C   UNL     1      44.259   4.158  10.100  0.00  0.00    +0.000 C 
BRANCH   7  10
ATOM      8  O   UNL     1      44.796   1.618   9.159  0.00  0.00    +0.000 OA
ATOM      9  C   UNL     1      45.388   2.554   8.623  0.00  0.00    +0.000 C 
ATOM     10  N   UNL     1      45.180   3.855   9.031  0.00  0.00    +0.000 N 
ATOM     11  H   UNL     1      45.680   4.607   8.576  0.00  0.00    +0.000 HD
BRANCH   9  12
ATOM     12  C   UNL     1      46.326   2.358   7.535  0.00  0.00    +0.000 A 
ATOM     13  C   UNL     1      47.180   1.284   7.352  0.00  0.00    +0.000 A 
ATOM     14  N   UNL     1      47.984   1.333   6.228  0.00  0.00    +0.000 NA
ATOM     15  C   UNL     1      47.737   2.445   5.573  0.00  0.00    +0.000 A 
ATOM     16  S   UNL     1      46.545   3.475   6.251  0.00  0.00    +0.000 S 
ENDBRANCH   9  12
ENDBRANCH   7  10
ENDBRANCH   1   7
BRANCH   4  17
ATOM     17  C   UNL     1      46.889   4.789  15.279  0.00  0.00    +0.000 C 
BRANCH  17  18
ATOM     18  N   UNL     1      47.819   5.891  15.292  0.00  0.00    +0.000 N 
ATOM     19  C   UNL     1      48.964   5.840  16.049  0.00  0.00    +0.000 C 
ATOM     20  O   UNL     1      49.269   4.841  16.695  0.00  0.00    +0.000 OA
ATOM     21  H   UNL     1      47.480   6.788  14.958  0.00  0.00    +0.000 HD
BRANCH  19  22
ATOM     22  C   UNL     1      49.841   7.017  16.004  0.00  0.00    +0.000 A 
ATOM     23  C   UNL     1      50.332   7.555  17.187  0.00  0.00    +0.000 A 
ATOM     24  S   UNL     1      51.375   8.884  16.955  0.00  0.00    +0.000 S 
ATOM     25  C   UNL     1      51.163   8.824  15.268  0.00  0.00    +0.000 A 
ATOM     26  N   UNL     1      51.777   9.725  14.454  0.00  0.00    +0.000 NA
ATOM     27  C   UNL     1      51.499   9.587  13.201  0.00  0.00    +0.000 A 
ATOM     28  N   UNL     1      50.669   8.626  12.687  0.00  0.00    +0.000 N 
ATOM     29  C   UNL     1      50.055   7.674  13.466  0.00  0.00    +0.000 A 
ATOM     30  O   UNL     1      49.353   6.800  12.969  0.00  0.00    +0.000 OA
ATOM     31  C   UNL     1      50.322   7.793  14.886  0.00  0.00    +0.000 A 
ATOM     32  H   UNL     1      50.499   8.566  11.693  0.00  0.00    +0.000 HD
ENDBRANCH  19  22
ENDBRANCH  17  18
ENDBRANCH   4  17
TORSDOF 6
ENDMDL
MODEL 5
REMARK VINA RESULT:    -6.762      2.014      2.250
REMARK INTER + INTRA:         -10.248
REMARK INTER:                  -9.367
REMARK INTRA:                  -0.880
REMARK UNBOUND:                -1.114
REMARK  Name = 
REMARK  6 active torsions:
REMARK  status: ('A' for Active; 'I' for Inactive)
REMARK    1  A    between atoms: C_2  and  C_25
REMARK    2  A    between atoms: N_3  and  C_4
REMARK    3  A    between atoms: C_4  and  C_5
REMARK    4  A    between atoms: C_8  and  C_9
REMARK    5  A    between atoms: C_9  and  N_10
REMARK    6  A    between atoms: C_11  and  C_13
REMARK                            x       y       z     vdW  Elec       q    Type
REMARK                         _______ _______ _______ _____ _____    ______ ____
ROOT
ATOM      1  C   UNL     1      45.135   5.726  11.608  0.00  0.00    +0.000 A 
ATOM      2  C   UNL     1      45.239   7.124  11.608  0.00  0.00    +0.000 A 
ATOM      3  C   UNL     1      46.125   7.773  12.476  0.00  0.00    +0.000 A 
ATOM      4  C   UNL     1      46.939   7.038  13.348  0.00  0.00    +0.000 A 
ATOM      5  C   UNL     1      46.833   5.641  13.346  0.00  0.00    +0.000 A 
ATOM      6  C   UNL     1      45.950   4.991  12.477  0.00  0.00    +0.000 A 
ENDROOT
BRANCH   1   7
ATOM      7  C   UNL     1      44.158   5.031  10.695  0.00  0.00    +0.000 C 
BRANCH   7  10
ATOM      8  O   UNL     1      45.650   5.146   8.374  0.00  0.00    +0.000 OA
ATOM      9  C   UNL     1      45.476   4.037   8.877  0.00  0.00    +0.000 C 
ATOM     10  N   UNL     1      44.743   3.888  10.036  0.00  0.00    +0.000 N 
ATOM     11  H   UNL     1      44.612   2.966  10.430  0.00  0.00    +0.000 HD
BRANCH   9  12
ATOM     12  C   UNL     1      46.028   2.827   8.300  0.00  0.00    +0.000 A 
ATOM     13  C   UNL     1      45.718   1.522   8.644  0.00  0.00    +0.000 A 
ATOM     14  N   UNL     1      46.386   0.536   7.941  0.00  0.00    +0.000 NA
ATOM     15  C   UNL     1      47.199   1.101   7.077  0.00  0.00    +0.000 A 
ATOM     16  S   UNL     1      47.207   2.815   7.054  0.00  0.00    +0.000 S 
ENDBRANCH   9  12
ENDBRANCH   7  10
ENDBRANCH   1   7
BRANCH   4  17
ATOM     17  C   UNL     1      47.890   7.730  14.292  0.00  0.00    +0.000 C 
BRANCH  17  18
ATOM     18  N   UNL     1      48.218   6.898  15.422  0.00  0.00    +0.000 N 
ATOM     19  C   UNL     1      49.392   7.075  16.113  0.00  0.00    +0.000 C 
ATOM     20  O   UNL     1      50.176   7.979  15.835  0.00  0.00    +0.000 OA
ATOM     21  H   UNL     1      47.708   6.025  15.520  0.00  0.00    +0.000 HD
BRANCH  19  22
ATOM     22  C   UNL     1      49.639   6.170  17.242  0.00  0.00    +0.000 A 
ATOM     23  C   UNL     1      50.627   5.198  17.141  0.00  0.00    +0.000 A 
ATOM     24  S   UNL     1      50.821   4.267  18.556  0.00  0.00    +0.000 S 
ATOM     25  C   UNL     1      49.553   5.091  19.336  0.00  0.00    +0.000 A 
ATOM     26  N   UNL     1      49.178   4.759  20.601  0.00  0.00    +0.000 NA
ATOM     27  C   UNL     1      48.179   5.440  21.056  0.00  0.00    +0.000 A 
ATOM     28  N   UNL     1      47.527   6.427  20.365  0.00  0.00    +0.000 N 
ATOM     29  C   UNL     1      47.893   6.819  19.099  0.00  0.00    +0.000 A 
ATOM     30  O   UNL     1      47.317   7.737  18.524  0.00  0.00    +0.000 OA
ATOM     31  C   UNL     1      49.002   6.075  18.534  0.00  0.00    +0.000 A 
ATOM     32  H   UNL     1      46.756   6.928  20.782  0.00  0.00    +0.000 HD
ENDBRANCH  19  22
ENDBRANCH  17  18
ENDBRANCH   4  17
TORSDOF 6
ENDMDL
MODEL 6
REMARK VINA RESULT:    -6.713      4.812      9.303
REMARK INTER + INTRA:         -10.182
REMARK INTER:                  -9.143
REMARK INTRA:                  -1.039
REMARK UNBOUND:                -1.114
REMARK  Name = 
REMARK  6 active torsions:
REMARK  status: ('A' for Active; 'I' for Inactive)
REMARK    1  A    between atoms: C_2  and  C_25
REMARK    2  A    between atoms: N_3  and  C_4
REMARK    3  A    between atoms: C_4  and  C_5
REMARK    4  A    between atoms: C_8  and  C_9
REMARK    5  A    between atoms: C_9  and  N_10
REMARK    6  A    between atoms: C_11  and  C_13
REMARK                            x       y       z     vdW  Elec       q    Type
REMARK                         _______ _______ _______ _____ _____    ______ ____
ROOT
ATOM      1  C   UNL     1      51.516   2.905  17.720  0.00  0.00    +0.000 A 
ATOM      2  C   UNL     1      50.697   1.906  17.175  0.00  0.00    +0.000 A 
ATOM      3  C   UNL     1      49.343   2.154  16.918  0.00  0.00    +0.000 A 
ATOM      4  C   UNL     1      48.785   3.411  17.182  0.00  0.00    +0.000 A 
ATOM      5  C   UNL     1      49.605   4.408  17.726  0.00  0.00    +0.000 A 
ATOM      6  C   UNL     1      50.958   4.162  17.982  0.00  0.00    +0.000 A 
ENDROOT
BRANCH   1   7
ATOM      7  C   UNL     1      52.964   2.626  18.025  0.00  0.00    +0.000 C 
BRANCH   7  10
ATOM      8  O   UNL     1      54.491   0.908  19.556  0.00  0.00    +0.000 OA
ATOM      9  C   UNL     1      54.128   0.507  18.452  0.00  0.00    +0.000 C 
ATOM     10  N   UNL     1      53.364   1.300  17.621  0.00  0.00    +0.000 N 
ATOM     11  H   UNL     1      53.080   0.949  16.717  0.00  0.00    +0.000 HD
BRANCH   9  12
ATOM     12  C   UNL     1      54.468  -0.812  17.955  0.00  0.00    +0.000 A 
ATOM     13  C   UNL     1      54.905  -1.138  16.682  0.00  0.00    +0.000 A 
ATOM     14  N   UNL     1      55.164  -2.477  16.454  0.00  0.00    +0.000 NA
ATOM     15  C   UNL     1      54.915  -3.154  17.552  0.00  0.00    +0.000 A 
ATOM     16  S   UNL     1      54.371  -2.242  18.898  0.00  0.00    +0.000 S 
ENDBRANCH   9  12
ENDBRANCH   7  10
ENDBRANCH   1   7
BRANCH   4  17
ATOM     17  C   UNL     1      47.326   3.684  16.915  0.00  0.00    +0.000 C 
BRANCH  17  18
ATOM     18  N   UNL     1      47.148   4.648  15.858  0.00  0.00    +0.000 N 
ATOM     19  C   UNL     1      47.158   4.260  14.541  0.00  0.00    +0.000 C 
ATOM     20  O   UNL     1      47.260   3.080  14.213  0.00  0.00    +0.000 OA
ATOM     21  H   UNL     1      47.291   5.625  16.093  0.00  0.00    +0.000 HD
BRANCH  19  22
ATOM     22  C   UNL     1      46.980   5.319  13.538  0.00  0.00    +0.000 A 
ATOM     23  C   UNL     1      45.945   5.225  12.616  0.00  0.00    +0.000 A 
ATOM     24  S   UNL     1      45.847   6.559  11.557  0.00  0.00    +0.000 S 
ATOM     25  C   UNL     1      47.219   7.283  12.257  0.00  0.00    +0.000 A 
ATOM     26  N   UNL     1      47.698   8.467  11.790  0.00  0.00    +0.000 NA
ATOM     27  C   UNL     1      48.765   8.883  12.388  0.00  0.00    +0.000 A 
ATOM     28  N   UNL     1      49.390   8.226  13.414  0.00  0.00    +0.000 N 
ATOM     29  C   UNL     1      48.923   7.045  13.941  0.00  0.00    +0.000 A 
ATOM     30  O   UNL     1      49.481   6.505  14.890  0.00  0.00    +0.000 OA
ATOM     31  C   UNL     1      47.734   6.526  13.295  0.00  0.00    +0.000 A 
ATOM     32  H   UNL     1      50.219   8.609  13.846  0.00  0.00    +0.000 HD
ENDBRANCH  19  22
ENDBRANCH  17  18
ENDBRANCH   4  17
TORSDOF 6
ENDMDL
MODEL 7
REMARK VINA RESULT:    -6.576      4.521      7.231
REMARK INTER + INTRA:          -9.997
REMARK INTER:                  -9.136
REMARK INTRA:                  -0.860
REMARK UNBOUND:                -1.114
REMARK  Name = 
REMARK  6 active torsions:
REMARK  status: ('A' for Active; 'I' for Inactive)
REMARK    1  A    between atoms: C_2  and  C_25
REMARK    2  A    between atoms: N_3  and  C_4
REMARK    3  A    between atoms: C_4  and  C_5
REMARK    4  A    between atoms: C_8  and  C_9
REMARK    5  A    between atoms: C_9  and  N_10
REMARK    6  A    between atoms: C_11  and  C_13
REMARK                            x       y       z     vdW  Elec       q    Type
REMARK                         _______ _______ _______ _____ _____    ______ ____
ROOT
ATOM      1  C   UNL     1      50.576   8.925  11.248  0.00  0.00    +0.000 A 
ATOM      2  C   UNL     1      50.144   7.632  11.574  0.00  0.00    +0.000 A 
ATOM      3  C   UNL     1      48.870   7.420  12.114  0.00  0.00    +0.000 A 
ATOM      4  C   UNL     1      47.994   8.494  12.322  0.00  0.00    +0.000 A 
ATOM      5  C   UNL     1      48.428   9.785  11.996  0.00  0.00    +0.000 A 
ATOM      6  C   UNL     1      49.700   9.998  11.454  0.00  0.00    +0.000 A 
ENDROOT
BRANCH   1   7
ATOM      7  C   UNL     1      51.958   9.154  10.696  0.00  0.00    +0.000 C 
BRANCH   7  10
ATOM      8  O   UNL     1      53.825   7.124  10.825  0.00  0.00    +0.000 OA
ATOM      9  C   UNL     1      53.220   7.265   9.764  0.00  0.00    +0.000 C 
ATOM     10  N   UNL     1      52.272   8.255   9.612  0.00  0.00    +0.000 N 
ATOM     11  H   UNL     1      51.788   8.353   8.729  0.00  0.00    +0.000 HD
BRANCH   9  12
ATOM     12  C   UNL     1      53.453   6.409   8.616  0.00  0.00    +0.000 A 
ATOM     13  C   UNL     1      52.754   6.408   7.421  0.00  0.00    +0.000 A 
ATOM     14  N   UNL     1      53.172   5.488   6.477  0.00  0.00    +0.000 NA
ATOM     15  C   UNL     1      54.177   4.798   6.966  0.00  0.00    +0.000 A 
ATOM     16  S   UNL     1      54.675   5.207   8.555  0.00  0.00    +0.000 S 
ENDBRANCH   9  12
ENDBRANCH   7  10
ENDBRANCH   1   7
BRANCH   4  17
ATOM     17  C   UNL     1      46.624   8.275  12.912  0.00  0.00    +0.000 C 
BRANCH  17  18
ATOM     18  N   UNL     1      46.133   6.947  12.640  0.00  0.00    +0.000 N 
ATOM     19  C   UNL     1      45.009   6.753  11.875  0.00  0.00    +0.000 C 
ATOM     20  O   UNL     1      44.414   7.690  11.348  0.00  0.00    +0.000 OA
ATOM     21  H   UNL     1      46.466   6.198  13.239  0.00  0.00    +0.000 HD
BRANCH  19  22
ATOM     22  C   UNL     1      44.583   5.363  11.665  0.00  0.00    +0.000 A 
ATOM     23  C   UNL     1      43.875   4.703  12.662  0.00  0.00    +0.000 A 
ATOM     24  S   UNL     1      43.413   3.117  12.238  0.00  0.00    +0.000 S 
ATOM     25  C   UNL     1      44.190   3.236  10.729  0.00  0.00    +0.000 A 
ATOM     26  N   UNL     1      44.194   2.189   9.861  0.00  0.00    +0.000 NA
ATOM     27  C   UNL     1      44.851   2.404   8.771  0.00  0.00    +0.000 A 
ATOM     28  N   UNL     1      45.498   3.572   8.466  0.00  0.00    +0.000 N 
ATOM     29  C   UNL     1      45.492   4.668   9.297  0.00  0.00    +0.000 A 
ATOM     30  O   UNL     1      46.043   5.715   8.975  0.00  0.00    +0.000 OA
ATOM     31  C   UNL     1      44.779   4.475  10.544  0.00  0.00    +0.000 A 
ATOM     32  H   UNL     1      45.989   3.680   7.590  0.00  0.00    +0.000 HD
ENDBRANCH  19  22
ENDBRANCH  17  18
ENDBRANCH   4  17
TORSDOF 6
ENDMDL
MODEL 8
REMARK VINA RESULT:    -6.457      3.599      8.487
REMARK INTER + INTRA:          -9.835
REMARK INTER:                  -8.883
REMARK INTRA:                  -0.952
REMARK UNBOUND:                -1.114
REMARK  Name = 
REMARK  6 active torsions:
REMARK  status: ('A' for Active; 'I' for Inactive)
REMARK    1  A    between atoms: C_2  and  C_25
REMARK    2  A    between atoms: N_3  and  C_4
REMARK    3  A    between atoms: C_4  and  C_5
REMARK    4  A    between atoms: C_8  and  C_9
REMARK    5  A    between atoms: C_9  and  N_10
REMARK    6  A    between atoms: C_11  and  C_13
REMARK                            x       y       z     vdW  Elec       q    Type
REMARK                         _______ _______ _______ _____ _____    ______ ____
ROOT
ATOM      1  C   UNL     1      49.670   4.488  17.646  0.00  0.00    +0.000 A 
ATOM      2  C   UNL     1      50.450   5.602  17.308  0.00  0.00    +0.000 A 
ATOM      3  C   UNL     1      50.017   6.507  16.332  0.00  0.00    +0.000 A 
ATOM      4  C   UNL     1      48.786   6.329  15.688  0.00  0.00    +0.000 A 
ATOM      5  C   UNL     1      48.007   5.215  16.027  0.00  0.00    +0.000 A 
ATOM      6  C   UNL     1      48.438   4.310  17.004  0.00  0.00    +0.000 A 
ENDROOT
BRANCH   1   7
ATOM      7  C   UNL     1      50.151   3.498  18.674  0.00  0.00    +0.000 C 
BRANCH   7  10
ATOM      8  O   UNL     1      51.031   1.369  17.151  0.00  0.00    +0.000 OA
ATOM      9  C   UNL     1      51.887   2.058  17.703  0.00  0.00    +0.000 C 
ATOM     10  N   UNL     1      51.536   3.140  18.483  0.00  0.00    +0.000 N 
ATOM     11  H   UNL     1      52.258   3.691  18.928  0.00  0.00    +0.000 HD
BRANCH   9  12
ATOM     12  C   UNL     1      53.306   1.790  17.568  0.00  0.00    +0.000 A 
ATOM     13  C   UNL     1      54.333   2.718  17.551  0.00  0.00    +0.000 A 
ATOM     14  N   UNL     1      55.610   2.206  17.410  0.00  0.00    +0.000 NA
ATOM     15  C   UNL     1      55.539   0.898  17.314  0.00  0.00    +0.000 A 
ATOM     16  S   UNL     1      53.967   0.217  17.392  0.00  0.00    +0.000 S 
ENDBRANCH   9  12
ENDBRANCH   7  10
ENDBRANCH   1   7
BRANCH   4  17
ATOM     17  C   UNL     1      48.316   7.294  14.629  0.00  0.00    +0.000 C 
BRANCH  17  18
ATOM     18  N   UNL     1      47.073   6.871  14.036  0.00  0.00    +0.000 N 
ATOM     19  C   UNL     1      47.000   6.549  12.703  0.00  0.00    +0.000 C 
ATOM     20  O   UNL     1      47.994   6.553  11.980  0.00  0.00    +0.000 OA
ATOM     21  H   UNL     1      46.220   7.078  14.547  0.00  0.00    +0.000 HD
BRANCH  19  22
ATOM     22  C   UNL     1      45.686   6.140  12.191  0.00  0.00    +0.000 A 
ATOM     23  C   UNL     1      44.841   7.088  11.628  0.00  0.00    +0.000 A 
ATOM     24  S   UNL     1      43.379   6.440  11.037  0.00  0.00    +0.000 S 
ATOM     25  C   UNL     1      43.798   4.877  11.562  0.00  0.00    +0.000 A 
ATOM     26  N   UNL     1      42.950   3.829  11.381  0.00  0.00    +0.000 NA
ATOM     27  C   UNL     1      43.378   2.708  11.860  0.00  0.00    +0.000 A 
ATOM     28  N   UNL     1      44.579   2.540  12.497  0.00  0.00    +0.000 N 
ATOM     29  C   UNL     1      45.482   3.562  12.672  0.00  0.00    +0.000 A 
ATOM     30  O   UNL     1      46.569   3.368  13.206  0.00  0.00    +0.000 OA
ATOM     31  C   UNL     1      45.044   4.847  12.164  0.00  0.00    +0.000 A 
ATOM     32  H   UNL     1      44.860   1.634  12.843  0.00  0.00    +0.000 HD
ENDBRANCH  19  22
ENDBRANCH  17  18
ENDBRANCH   4  17
TORSDOF 6
ENDMDL
MODEL 9
REMARK VINA RESULT:    -6.373      3.098      8.719
REMARK INTER + INTRA:          -9.723
REMARK INTER:                  -8.820
REMARK INTRA:                  -0.903
REMARK UNBOUND:                -1.114
REMARK  Name = 
REMARK  6 active torsions:
REMARK  status: ('A' for Active; 'I' for Inactive)
REMARK    1  A    between atoms: C_2  and  C_25
REMARK    2  A    between atoms: N_3  and  C_4
REMARK    3  A    between atoms: C_4  and  C_5
REMARK    4  A    between atoms: C_8  and  C_9
REMARK    5  A    between atoms: C_9  and  N_10
REMARK    6  A    between atoms: C_11  and  C_13
REMARK                            x       y       z     vdW  Elec       q    Type
REMARK                         _______ _______ _______ _____ _____    ______ ____
ROOT
ATOM      1  C   UNL     1      50.335   6.808  16.157  0.00  0.00    +0.000 A 
ATOM      2  C   UNL     1      50.823   7.567  15.085  0.00  0.00    +0.000 A 
ATOM      3  C   UNL     1      50.026   7.808  13.959  0.00  0.00    +0.000 A 
ATOM      4  C   UNL     1      48.718   7.311  13.891  0.00  0.00    +0.000 A 
ATOM      5  C   UNL     1      48.231   6.554  14.964  0.00  0.00    +0.000 A 
ATOM      6  C   UNL     1      49.026   6.314  16.090  0.00  0.00    +0.000 A 
ENDROOT
BRANCH   1   7
ATOM      7  C   UNL     1      51.205   6.524  17.354  0.00  0.00    +0.000 C 
BRANCH   7  10
ATOM      8  O   UNL     1      50.723   4.586  19.260  0.00  0.00    +0.000 OA
ATOM      9  C   UNL     1      51.459   4.283  18.323  0.00  0.00    +0.000 C 
ATOM     10  N   UNL     1      51.754   5.191  17.327  0.00  0.00    +0.000 N 
ATOM     11  H   UNL     1      52.363   4.918  16.568  0.00  0.00    +0.000 HD
BRANCH   9  12
ATOM     12  C   UNL     1      52.055   2.967  18.198  0.00  0.00    +0.000 A 
ATOM     13  C   UNL     1      53.268   2.547  18.717  0.00  0.00    +0.000 A 
ATOM     14  N   UNL     1      53.616   1.234  18.456  0.00  0.00    +0.000 NA
ATOM     15  C   UNL     1      52.670   0.674  17.737  0.00  0.00    +0.000 A 
ATOM     16  S   UNL     1      51.329   1.668  17.344  0.00  0.00    +0.000 S 
ENDBRANCH   9  12
ENDBRANCH   7  10
ENDBRANCH   1   7
BRANCH   4  17
ATOM     17  C   UNL     1      47.856   7.559  12.679  0.00  0.00    +0.000 C 
BRANCH  17  18
ATOM     18  N   UNL     1      47.128   6.376  12.292  0.00  0.00    +0.000 N 
ATOM     19  C   UNL     1      45.755   6.361  12.290  0.00  0.00    +0.000 C 
ATOM     20  O   UNL     1      45.096   7.362  12.558  0.00  0.00    +0.000 OA
ATOM     21  H   UNL     1      47.638   5.498  12.290  0.00  0.00    +0.000 HD
BRANCH  19  22
ATOM     22  C   UNL     1      45.107   5.104  11.890  0.00  0.00    +0.000 A 
ATOM     23  C   UNL     1      44.418   4.355  12.836  0.00  0.00    +0.000 A 
ATOM     24  S   UNL     1      43.683   2.955  12.199  0.00  0.00    +0.000 S 
ATOM     25  C   UNL     1      44.305   3.270  10.647  0.00  0.00    +0.000 A 
ATOM     26  N   UNL     1      44.062   2.422   9.612  0.00  0.00    +0.000 NA
ATOM     27  C   UNL     1      44.625   2.763   8.500  0.00  0.00    +0.000 A 
ATOM     28  N   UNL     1      45.402   3.877   8.329  0.00  0.00    +0.000 N 
ATOM     29  C   UNL     1      45.647   4.780   9.337  0.00  0.00    +0.000 A 
ATOM     30  O   UNL     1      46.311   5.792   9.139  0.00  0.00    +0.000 OA
ATOM     31  C   UNL     1      45.049   4.436  10.612  0.00  0.00    +0.000 A 
ATOM     32  H   UNL     1      45.809   4.092   7.430  0.00  0.00    +0.000 HD
ENDBRANCH  19  22
ENDBRANCH  17  18
ENDBRANCH   4  17
TORSDOF 6
ENDMDL
