MODEL 1
REMARK VINA RESULT:    -8.318      0.000      0.000
REMARK INTER + INTRA:         -12.392
REMARK INTER:                 -11.236
REMARK INTRA:                  -1.157
REMARK UNBOUND:                -1.157
REMARK  Name = 
REMARK  7 active torsions:
REMARK  status: ('A' for Active; 'I' for Inactive)
REMARK    1  A    between atoms: C_1  and  C_2
REMARK    2  A    between atoms: C_2  and  N_3
REMARK    3  A    between atoms: C_2  and  C_12
REMARK    4  A    between atoms: C_4  and  C_6
REMARK    5  A    between atoms: C_15  and  C_16
REMARK    6  A    between atoms: C_16  and  N_17
REMARK    7  A    between atoms: C_18  and  C_20
REMARK                            x       y       z     vdW  Elec       q    Type
REMARK                         _______ _______ _______ _____ _____    ______ ____
ROOT
ATOM      1  C   UNL     1      45.640   5.099  11.857  0.00  0.00    +0.000 A 
ATOM      2  C   UNL     1      46.295   6.244  11.378  0.00  0.00    +0.000 A 
ATOM      3  C   UNL     1      47.272   6.887  12.142  0.00  0.00    +0.000 A 
ATOM      4  C   UNL     1      47.623   6.398  13.406  0.00  0.00    +0.000 A 
ATOM      5  C   UNL     1      46.956   5.269  13.898  0.00  0.00    +0.000 A 
ATOM      6  C   UNL     1      45.981   4.623  13.132  0.00  0.00    +0.000 A 
ENDROOT
BRANCH   1   8
ATOM      7  C   UNL     1      43.366   5.322  10.758  0.00  0.00    +0.000 C 
ATOM      8  C   UNL     1      44.584   4.423  11.002  0.00  0.00    +0.000 C 
BRANCH   8   9
ATOM      9  N   UNL     1      45.156   3.964   9.742  0.00  0.00    +0.000 N 
ATOM     10  C   UNL     1      44.889   2.705   9.257  0.00  0.00    +0.000 C 
ATOM     11  O   UNL     1      44.199   1.900   9.882  0.00  0.00    +0.000 OA
ATOM     12  H   UNL     1      45.636   4.635   9.160  0.00  0.00    +0.000 HD
BRANCH  10  13
ATOM     13  C   UNL     1      45.465   2.391   7.876  0.00  0.00    +0.000 C 
ATOM     14  C   UNL     1      46.120   3.615   7.220  0.00  0.00    +0.000 C 
ATOM     15  C   UNL     1      46.911   3.228   5.970  0.00  0.00    +0.000 C 
ATOM     16  C   UNL     1      47.878   2.083   6.246  0.00  0.00    +0.000 C 
ATOM     17  N   UNL     1      47.153   0.920   6.753  0.00  0.00    +0.000 NA
ATOM     18  C   UNL     1      46.478   1.240   8.017  0.00  0.00    +0.000 C 
ATOM     19  H   UNL     1      47.813   0.160   6.921  0.00  0.00    +0.000 HD
ENDBRANCH  10  13
ENDBRANCH   8   9
ENDBRANCH   1   8
BRANCH   4  20
ATOM     20  C   UNL     1      48.661   7.093  14.246  0.00  0.00    +0.000 C 
BRANCH  20  21
ATOM     21  N   UNL     1      48.310   7.052  15.643  0.00  0.00    +0.000 N 
ATOM     22  C   UNL     1      49.148   6.491  16.571  0.00  0.00    +0.000 C 
ATOM     23  O   UNL     1      50.251   6.044  16.264  0.00  0.00    +0.000 OA
ATOM     24  H   UNL     1      47.337   7.213  15.879  0.00  0.00    +0.000 HD
BRANCH  22  25
ATOM     25  C   UNL     1      48.690   6.506  17.965  0.00  0.00    +0.000 A 
ATOM     26  C   UNL     1      48.730   5.337  18.715  0.00  0.00    +0.000 A 
ATOM     27  S   UNL     1      48.213   5.539  20.327  0.00  0.00    +0.000 S 
ATOM     28  C   UNL     1      47.865   7.184  20.066  0.00  0.00    +0.000 A 
ATOM     29  N   UNL     1      47.352   7.955  21.062  0.00  0.00    +0.000 NA
ATOM     30  C   UNL     1      47.104   9.174  20.717  0.00  0.00    +0.000 A 
ATOM     31  N   UNL     1      47.328   9.694  19.469  0.00  0.00    +0.000 N 
ATOM     32  C   UNL     1      47.874   8.962  18.442  0.00  0.00    +0.000 A 
ATOM     33  O   UNL     1      48.102   9.471  17.349  0.00  0.00    +0.000 OA
ATOM     34  C   UNL     1      48.159   7.578  18.773  0.00  0.00    +0.000 A 
ATOM     35  H   UNL     1      47.120  10.660  19.267  0.00  0.00    +0.000 HD
ENDBRANCH  22  25
ENDBRANCH  20  21
ENDBRANCH   4  20
TORSDOF 6
ENDMDL
MODEL 2
REMARK VINA RESULT:    -8.264      1.283      2.114
REMARK INTER + INTRA:         -12.319
REMARK INTER:                 -11.172
REMARK INTRA:                  -1.147
REMARK UNBOUND:                -1.157
REMARK  Name = 
REMARK  7 active torsions:
REMARK  status: ('A' for Active; 'I' for Inactive)
REMARK    1  A    between atoms: C_1  and  C_2
REMARK    2  A    between atoms: C_2  and  N_3
REMARK    3  A    between atoms: C_2  and  C_12
REMARK    4  A    between atoms: C_4  and  C_6
REMARK    5  A    between atoms: C_15  and  C_16
REMARK    6  A    between atoms: C_16  and  N_17
REMARK    7  A    between atoms: C_18  and  C_20
REMARK                            x       y       z     vdW  Elec       q    Type
REMARK                         _______ _______ _______ _____ _____    ______ ____
ROOT
ATOM      1  C   UNL     1      45.642   5.101  11.869  0.00  0.00    +0.000 A 
ATOM      2  C   UNL     1      46.284   6.244  11.368  0.00  0.00    +0.000 A 
ATOM      3  C   UNL     1      47.251   6.915  12.121  0.00  0.00    +0.000 A 
ATOM      4  C   UNL     1      47.605   6.455  13.395  0.00  0.00    +0.000 A 
ATOM      5  C   UNL     1      46.952   5.328  13.908  0.00  0.00    +0.000 A 
ATOM      6  C   UNL     1      45.987   4.654  13.154  0.00  0.00    +0.000 A 
ENDROOT
BRANCH   1   8
ATOM      7  C   UNL     1      43.354   5.259  10.790  0.00  0.00    +0.000 C 
ATOM      8  C   UNL     1      44.597   4.394  11.025  0.00  0.00    +0.000 C 
BRANCH   8   9
ATOM      9  N   UNL     1      45.170   3.946   9.761  0.00  0.00    +0.000 N 
ATOM     10  C   UNL     1      44.888   2.699   9.255  0.00  0.00    +0.000 C 
ATOM     11  O   UNL     1      44.183   1.895   9.863  0.00  0.00    +0.000 OA
ATOM     12  H   UNL     1      45.663   4.620   9.193  0.00  0.00    +0.000 HD
BRANCH  10  13
ATOM     13  C   UNL     1      45.467   2.398   7.872  0.00  0.00    +0.000 C 
ATOM     14  C   UNL     1      46.114   3.632   7.225  0.00  0.00    +0.000 C 
ATOM     15  C   UNL     1      46.909   3.259   5.973  0.00  0.00    +0.000 C 
ATOM     16  C   UNL     1      47.884   2.119   6.242  0.00  0.00    +0.000 C 
ATOM     17  N   UNL     1      47.167   0.947   6.741  0.00  0.00    +0.000 NA
ATOM     18  C   UNL     1      46.489   1.255   8.007  0.00  0.00    +0.000 C 
ATOM     19  H   UNL     1      47.832   0.191   6.905  0.00  0.00    +0.000 HD
ENDBRANCH  10  13
ENDBRANCH   8   9
ENDBRANCH   1   8
BRANCH   4  20
ATOM     20  C   UNL     1      48.632   7.180  14.223  0.00  0.00    +0.000 C 
BRANCH  20  21
ATOM     21  N   UNL     1      48.372   7.017  15.632  0.00  0.00    +0.000 N 
ATOM     22  C   UNL     1      48.980   7.816  16.564  0.00  0.00    +0.000 C 
ATOM     23  O   UNL     1      49.732   8.734  16.243  0.00  0.00    +0.000 OA
ATOM     24  H   UNL     1      47.937   6.148  15.923  0.00  0.00    +0.000 HD
BRANCH  22  25
ATOM     25  C   UNL     1      48.640   7.562  17.970  0.00  0.00    +0.000 A 
ATOM     26  C   UNL     1      48.162   8.600  18.759  0.00  0.00    +0.000 A 
ATOM     27  S   UNL     1      47.766   8.125  20.348  0.00  0.00    +0.000 S 
ATOM     28  C   UNL     1      48.270   6.528  20.054  0.00  0.00    +0.000 A 
ATOM     29  N   UNL     1      48.219   5.587  21.036  0.00  0.00    +0.000 NA
ATOM     30  C   UNL     1      48.665   4.427  20.687  0.00  0.00    +0.000 A 
ATOM     31  N   UNL     1      49.151   4.119  19.443  0.00  0.00    +0.000 N 
ATOM     32  C   UNL     1      49.193   5.027  18.411  0.00  0.00    +0.000 A 
ATOM     33  O   UNL     1      49.594   4.706  17.297  0.00  0.00    +0.000 OA
ATOM     34  C   UNL     1      48.716   6.354  18.756  0.00  0.00    +0.000 A 
ATOM     35  H   UNL     1      49.476   3.188  19.231  0.00  0.00    +0.000 HD
ENDBRANCH  22  25
ENDBRANCH  20  21
ENDBRANCH   4  20
TORSDOF 6
ENDMDL
MODEL 3
REMARK VINA RESULT:    -7.555      2.563      3.369
REMARK INTER + INTRA:         -11.362
REMARK INTER:                 -10.224
REMARK INTRA:                  -1.139
REMARK UNBOUND:                -1.157
REMARK  Name = 
REMARK  7 active torsions:
REMARK  status: ('A' for Active; 'I' for Inactive)
REMARK    1  A    between atoms: C_1  and  C_2
REMARK    2  A    between atoms: C_2  and  N_3
REMARK    3  A    between atoms: C_2  and  C_12
REMARK    4  A    between atoms: C_4  and  C_6
REMARK    5  A    between atoms: C_15  and  C_16
REMARK    6  A    between atoms: C_16  and  N_17
REMARK    7  A    between atoms: C_18  and  C_20
REMARK                            x       y       z     vdW  Elec       q    Type
REMARK                         _______ _______ _______ _____ _____    ______ ____
ROOT
ATOM      1  C   UNL     1      45.346   5.944  12.031  0.00  0.00    +0.000 A 
ATOM      2  C   UNL     1      46.573   5.417  12.463  0.00  0.00    +0.000 A 
ATOM      3  C   UNL     1      47.503   6.216  13.134  0.00  0.00    +0.000 A 
ATOM      4  C   UNL     1      47.226   7.563  13.394  0.00  0.00    +0.000 A 
ATOM      5  C   UNL     1      46.012   8.099  12.945  0.00  0.00    +0.000 A 
ATOM      6  C   UNL     1      45.080   7.299  12.277  0.00  0.00    +0.000 A 
ENDROOT
BRANCH   1   8
ATOM      7  C   UNL     1      43.030   5.760  11.016  0.00  0.00    +0.000 C 
ATOM      8  C   UNL     1      44.357   5.049  11.306  0.00  0.00    +0.000 C 
BRANCH   8   9
ATOM      9  N   UNL     1      44.943   4.515  10.082  0.00  0.00    +0.000 N 
ATOM     10  C   UNL     1      44.631   3.252   9.638  0.00  0.00    +0.000 C 
ATOM     11  O   UNL     1      43.886   2.504  10.271  0.00  0.00    +0.000 OA
ATOM     12  H   UNL     1      45.470   5.140   9.491  0.00  0.00    +0.000 HD
BRANCH  10  13
ATOM     13  C   UNL     1      45.231   2.857   8.287  0.00  0.00    +0.000 C 
ATOM     14  C   UNL     1      46.106   3.967   7.687  0.00  0.00    +0.000 C 
ATOM     15  C   UNL     1      46.900   3.467   6.479  0.00  0.00    +0.000 C 
ATOM     16  C   UNL     1      47.659   2.184   6.794  0.00  0.00    +0.000 C 
ATOM     17  N   UNL     1      46.734   1.146   7.244  0.00  0.00    +0.000 NA
ATOM     18  C   UNL     1      46.044   1.563   8.471  0.00  0.00    +0.000 C 
ATOM     19  H   UNL     1      47.257   0.292   7.440  0.00  0.00    +0.000 HD
ENDBRANCH  10  13
ENDBRANCH   8   9
ENDBRANCH   1   8
BRANCH   4  20
ATOM     20  C   UNL     1      48.227   8.439  14.100  0.00  0.00    +0.000 C 
BRANCH  20  21
ATOM     21  N   UNL     1      49.248   7.647  14.739  0.00  0.00    +0.000 N 
ATOM     22  C   UNL     1      49.361   7.601  16.104  0.00  0.00    +0.000 C 
ATOM     23  O   UNL     1      48.573   8.188  16.842  0.00  0.00    +0.000 OA
ATOM     24  H   UNL     1      50.022   7.339  14.161  0.00  0.00    +0.000 HD
BRANCH  22  25
ATOM     25  C   UNL     1      50.436   6.761  16.647  0.00  0.00    +0.000 A 
ATOM     26  C   UNL     1      51.685   7.316  16.892  0.00  0.00    +0.000 A 
ATOM     27  S   UNL     1      52.801   6.220  17.570  0.00  0.00    +0.000 S 
ATOM     28  C   UNL     1      51.672   4.949  17.508  0.00  0.00    +0.000 A 
ATOM     29  N   UNL     1      52.006   3.698  17.924  0.00  0.00    +0.000 NA
ATOM     30  C   UNL     1      51.066   2.823  17.789  0.00  0.00    +0.000 A 
ATOM     31  N   UNL     1      49.821   3.087  17.283  0.00  0.00    +0.000 N 
ATOM     32  C   UNL     1      49.428   4.341  16.880  0.00  0.00    +0.000 A 
ATOM     33  O   UNL     1      48.290   4.551  16.471  0.00  0.00    +0.000 OA
ATOM     34  C   UNL     1      50.454   5.360  16.997  0.00  0.00    +0.000 A 
ATOM     35  H   UNL     1      49.126   2.358  17.212  0.00  0.00    +0.000 HD
ENDBRANCH  22  25
ENDBRANCH  20  21
ENDBRANCH   4  20
TORSDOF 6
ENDMDL
MODEL 4
REMARK VINA RESULT:    -7.316      5.450      9.785
REMARK INTER + INTRA:         -11.039
REMARK INTER:                  -9.984
REMARK INTRA:                  -1.055
REMARK UNBOUND:                -1.157
REMARK  Name = 
REMARK  7 active torsions:
REMARK  status: ('A' for Active; 'I' for Inactive)
REMARK    1  A    between atoms: C_1  and  C_2
REMARK    2  A    between atoms: C_2  and  N_3
REMARK    3  A    between atoms: C_2  and  C_12
REMARK    4  A    between atoms: C_4  and  C_6
REMARK    5  A    between atoms: C_15  and  C_16
REMARK    6  A    between atoms: C_16  and  N_17
REMARK    7  A    between atoms: C_18  and  C_20
REMARK                            x       y       z     vdW  Elec       q    Type
REMARK                         _______ _______ _______ _____ _____    ______ ____
ROOT
ATOM      1  C   UNL     1      51.427   3.401  17.751  0.00  0.00    +0.000 A 
ATOM      2  C   UNL     1      50.655   4.559  17.927  0.00  0.00    +0.000 A 
ATOM      3  C   UNL     1      49.282   4.556  17.666  0.00  0.00    +0.000 A 
ATOM      4  C   UNL     1      48.645   3.390  17.227  0.00  0.00    +0.000 A 
ATOM      5  C   UNL     1      49.416   2.237  17.028  0.00  0.00    +0.000 A 
ATOM      6  C   UNL     1      50.788   2.239  17.292  0.00  0.00    +0.000 A 
ENDROOT
BRANCH   1   8
ATOM      7  C   UNL     1      53.224   4.024  19.427  0.00  0.00    +0.000 C 
ATOM      8  C   UNL     1      52.916   3.437  18.044  0.00  0.00    +0.000 C 
BRANCH   8   9
ATOM      9  N   UNL     1      53.505   2.112  17.896  0.00  0.00    +0.000 N 
ATOM     10  C   UNL     1      54.719   1.939  17.275  0.00  0.00    +0.000 C 
ATOM     11  O   UNL     1      55.337   2.881  16.779  0.00  0.00    +0.000 OA
ATOM     12  H   UNL     1      53.075   1.339  18.383  0.00  0.00    +0.000 HD
BRANCH  10  13
ATOM     13  C   UNL     1      55.271   0.513  17.282  0.00  0.00    +0.000 C 
ATOM     14  C   UNL     1      55.438  -0.045  18.703  0.00  0.00    +0.000 C 
ATOM     15  C   UNL     1      55.739  -1.545  18.687  0.00  0.00    +0.000 C 
ATOM     16  C   UNL     1      54.734  -2.313  17.836  0.00  0.00    +0.000 C 
ATOM     17  N   UNL     1      54.729  -1.794  16.469  0.00  0.00    +0.000 NA
ATOM     18  C   UNL     1      54.330  -0.381  16.453  0.00  0.00    +0.000 C 
ATOM     19  H   UNL     1      54.061  -2.327  15.911  0.00  0.00    +0.000 HD
ENDBRANCH  10  13
ENDBRANCH   8   9
ENDBRANCH   1   8
BRANCH   4  20
ATOM     20  C   UNL     1      47.170   3.378  16.925  0.00  0.00    +0.000 C 
BRANCH  20  21
ATOM     21  N   UNL     1      46.838   4.358  15.921  0.00  0.00    +0.000 N 
ATOM     22  C   UNL     1      46.992   4.088  14.587  0.00  0.00    +0.000 C 
ATOM     23  O   UNL     1      47.370   2.991  14.184  0.00  0.00    +0.000 OA
ATOM     24  H   UNL     1      46.735   5.319  16.231  0.00  0.00    +0.000 HD
BRANCH  22  25
ATOM     25  C   UNL     1      46.621   5.159  13.653  0.00  0.00    +0.000 A 
ATOM     26  C   UNL     1      47.516   6.190  13.399  0.00  0.00    +0.000 A 
ATOM     27  S   UNL     1      46.952   7.320  12.253  0.00  0.00    +0.000 S 
ATOM     28  C   UNL     1      45.469   6.502  12.097  0.00  0.00    +0.000 A 
ATOM     29  N   UNL     1      44.496   6.972  11.270  0.00  0.00    +0.000 NA
ATOM     30  C   UNL     1      43.410   6.274  11.273  0.00  0.00    +0.000 A 
ATOM     31  N   UNL     1      43.211   5.144  12.023  0.00  0.00    +0.000 N 
ATOM     32  C   UNL     1      44.175   4.614  12.848  0.00  0.00    +0.000 A 
ATOM     33  O   UNL     1      43.979   3.576  13.472  0.00  0.00    +0.000 OA
ATOM     34  C   UNL     1      45.413   5.371  12.891  0.00  0.00    +0.000 A 
ATOM     35  H   UNL     1      42.340   4.637  11.973  0.00  0.00    +0.000 HD
ENDBRANCH  22  25
ENDBRANCH  20  21
ENDBRANCH   4  20
TORSDOF 6
ENDMDL
MODEL 5
REMARK VINA RESULT:    -7.070      5.841      8.933
REMARK INTER + INTRA:         -10.707
REMARK INTER:                  -9.542
REMARK INTRA:                  -1.165
REMARK UNBOUND:                -1.157
REMARK  Name = 
REMARK  7 active torsions:
REMARK  status: ('A' for Active; 'I' for Inactive)
REMARK    1  A    between atoms: C_1  and  C_2
REMARK    2  A    between atoms: C_2  and  N_3
REMARK    3  A    between atoms: C_2  and  C_12
REMARK    4  A    between atoms: C_4  and  C_6
REMARK    5  A    between atoms: C_15  and  C_16
REMARK    6  A    between atoms: C_16  and  N_17
REMARK    7  A    between atoms: C_18  and  C_20
REMARK                            x       y       z     vdW  Elec       q    Type
REMARK                         _______ _______ _______ _____ _____    ______ ____
ROOT
ATOM      1  C   UNL     1      47.523   8.274  12.225  0.00  0.00    +0.000 A 
ATOM      2  C   UNL     1      48.424   7.199  12.163  0.00  0.00    +0.000 A 
ATOM      3  C   UNL     1      49.774   7.408  11.868  0.00  0.00    +0.000 A 
ATOM      4  C   UNL     1      50.259   8.699  11.633  0.00  0.00    +0.000 A 
ATOM      5  C   UNL     1      49.359   9.772  11.671  0.00  0.00    +0.000 A 
ATOM      6  C   UNL     1      48.009   9.565  11.970  0.00  0.00    +0.000 A 
ENDROOT
BRANCH   1   8
ATOM      7  C   UNL     1      45.224   9.298  12.536  0.00  0.00    +0.000 C 
ATOM      8  C   UNL     1      46.063   8.014  12.549  0.00  0.00    +0.000 C 
BRANCH   8   9
ATOM      9  N   UNL     1      45.503   7.014  11.648  0.00  0.00    +0.000 N 
ATOM     10  C   UNL     1      45.060   5.801  12.119  0.00  0.00    +0.000 C 
ATOM     11  O   UNL     1      45.157   5.489  13.306  0.00  0.00    +0.000 OA
ATOM     12  H   UNL     1      45.314   7.282  10.693  0.00  0.00    +0.000 HD
BRANCH  10  13
ATOM     13  C   UNL     1      44.399   4.889  11.085  0.00  0.00    +0.000 C 
ATOM     14  C   UNL     1      45.140   4.891   9.741  0.00  0.00    +0.000 C 
ATOM     15  C   UNL     1      44.626   3.789   8.812  0.00  0.00    +0.000 C 
ATOM     16  C   UNL     1      44.606   2.432   9.505  0.00  0.00    +0.000 C 
ATOM     17  N   UNL     1      43.779   2.491  10.709  0.00  0.00    +0.000 NA
ATOM     18  C   UNL     1      44.324   3.464  11.664  0.00  0.00    +0.000 C 
ATOM     19  H   UNL     1      43.767   1.572  11.153  0.00  0.00    +0.000 HD
ENDBRANCH  10  13
ENDBRANCH   8   9
ENDBRANCH   1   8
BRANCH   4  20
ATOM     20  C   UNL     1      51.707   8.934  11.296  0.00  0.00    +0.000 C 
BRANCH  20  21
ATOM     21  N   UNL     1      52.037   8.379  10.008  0.00  0.00    +0.000 N 
ATOM     22  C   UNL     1      53.169   8.763   9.338  0.00  0.00    +0.000 C 
ATOM     23  O   UNL     1      53.975   9.555   9.822  0.00  0.00    +0.000 OA
ATOM     24  H   UNL     1      51.295   7.902   9.507  0.00  0.00    +0.000 HD
BRANCH  22  25
ATOM     25  C   UNL     1      53.407   8.131   8.034  0.00  0.00    +0.000 A 
ATOM     26  C   UNL     1      53.446   8.913   6.888  0.00  0.00    +0.000 A 
ATOM     27  S   UNL     1      53.784   8.032   5.468  0.00  0.00    +0.000 S 
ATOM     28  C   UNL     1      53.836   6.565   6.326  0.00  0.00    +0.000 A 
ATOM     29  N   UNL     1      54.063   5.388   5.684  0.00  0.00    +0.000 NA
ATOM     30  C   UNL     1      54.041   4.349   6.450  0.00  0.00    +0.000 A 
ATOM     31  N   UNL     1      53.821   4.381   7.802  0.00  0.00    +0.000 N 
ATOM     32  C   UNL     1      53.620   5.549   8.499  0.00  0.00    +0.000 A 
ATOM     33  O   UNL     1      53.469   5.545   9.717  0.00  0.00    +0.000 OA
ATOM     34  C   UNL     1      53.619   6.747   7.680  0.00  0.00    +0.000 A 
ATOM     35  H   UNL     1      53.826   3.532   8.347  0.00  0.00    +0.000 HD
ENDBRANCH  22  25
ENDBRANCH  20  21
ENDBRANCH   4  20
TORSDOF 6
ENDMDL
MODEL 6
REMARK VINA RESULT:    -6.978      3.910      5.606
REMARK INTER + INTRA:         -10.582
REMARK INTER:                  -9.465
REMARK INTRA:                  -1.118
REMARK UNBOUND:                -1.157
REMARK  Name = 
REMARK  7 active torsions:
REMARK  status: ('A' for Active; 'I' for Inactive)
REMARK    1  A    between atoms: C_1  and  C_2
REMARK    2  A    between atoms: C_2  and  N_3
REMARK    3  A    between atoms: C_2  and  C_12
REMARK    4  A    between atoms: C_4  and  C_6
REMARK    5  A    between atoms: C_15  and  C_16
REMARK    6  A    between atoms: C_16  and  N_17
REMARK    7  A    between atoms: C_18  and  C_20
REMARK                            x       y       z     vdW  Elec       q    Type
REMARK                         _______ _______ _______ _____ _____    ______ ____
ROOT
ATOM      1  C   UNL     1      45.258   6.216  12.016  0.00  0.00    +0.000 A 
ATOM      2  C   UNL     1      46.442   5.854  12.678  0.00  0.00    +0.000 A 
ATOM      3  C   UNL     1      47.284   6.823  13.229  0.00  0.00    +0.000 A 
ATOM      4  C   UNL     1      46.960   8.182  13.137  0.00  0.00    +0.000 A 
ATOM      5  C   UNL     1      45.791   8.549  12.458  0.00  0.00    +0.000 A 
ATOM      6  C   UNL     1      44.946   7.580  11.910  0.00  0.00    +0.000 A 
ENDROOT
BRANCH   1   8
ATOM      7  C   UNL     1      42.933   5.635  11.189  0.00  0.00    +0.000 C 
ATOM      8  C   UNL     1      44.364   5.138  11.430  0.00  0.00    +0.000 C 
BRANCH   8   9
ATOM      9  N   UNL     1      44.942   4.595  10.207  0.00  0.00    +0.000 N 
ATOM     10  C   UNL     1      44.567   3.361   9.731  0.00  0.00    +0.000 C 
ATOM     11  O   UNL     1      43.768   2.646  10.334  0.00  0.00    +0.000 OA
ATOM     12  H   UNL     1      45.517   5.200   9.639  0.00  0.00    +0.000 HD
BRANCH  10  13
ATOM     13  C   UNL     1      45.170   2.959   8.384  0.00  0.00    +0.000 C 
ATOM     14  C   UNL     1      46.092   4.043   7.807  0.00  0.00    +0.000 C 
ATOM     15  C   UNL     1      46.884   3.526   6.604  0.00  0.00    +0.000 C 
ATOM     16  C   UNL     1      47.592   2.213   6.916  0.00  0.00    +0.000 C 
ATOM     17  N   UNL     1      46.623   1.205   7.342  0.00  0.00    +0.000 NA
ATOM     18  C   UNL     1      45.933   1.634   8.565  0.00  0.00    +0.000 C 
ATOM     19  H   UNL     1      47.113   0.330   7.535  0.00  0.00    +0.000 HD
ENDBRANCH  10  13
ENDBRANCH   8   9
ENDBRANCH   1   8
BRANCH   4  20
ATOM     20  C   UNL     1      47.868   9.236  13.711  0.00  0.00    +0.000 C 
BRANCH  20  21
ATOM     21  N   UNL     1      49.199   9.124  13.169  0.00  0.00    +0.000 N 
ATOM     22  C   UNL     1      50.264   8.788  13.964  0.00  0.00    +0.000 C 
ATOM     23  O   UNL     1      50.127   8.521  15.156  0.00  0.00    +0.000 OA
ATOM     24  H   UNL     1      49.364   9.543  12.260  0.00  0.00    +0.000 HD
BRANCH  22  25
ATOM     25  C   UNL     1      51.574   8.701  13.307  0.00  0.00    +0.000 A 
ATOM     26  C   UNL     1      52.700   9.197  13.950  0.00  0.00    +0.000 A 
ATOM     27  S   UNL     1      54.145   8.970  13.074  0.00  0.00    +0.000 S 
ATOM     28  C   UNL     1      53.310   8.250  11.779  0.00  0.00    +0.000 A 
ATOM     29  N   UNL     1      53.971   7.837  10.664  0.00  0.00    +0.000 NA
ATOM     30  C   UNL     1      53.212   7.341   9.746  0.00  0.00    +0.000 A 
ATOM     31  N   UNL     1      51.851   7.214   9.844  0.00  0.00    +0.000 N 
ATOM     32  C   UNL     1      51.143   7.587  10.962  0.00  0.00    +0.000 A 
ATOM     33  O   UNL     1      49.930   7.418  11.033  0.00  0.00    +0.000 OA
ATOM     34  C   UNL     1      51.950   8.165  12.020  0.00  0.00    +0.000 A 
ATOM     35  H   UNL     1      51.314   6.808   9.092  0.00  0.00    +0.000 HD
ENDBRANCH  22  25
ENDBRANCH  20  21
ENDBRANCH   4  20
TORSDOF 6
ENDMDL
MODEL 7
REMARK VINA RESULT:    -6.973      5.127      8.735
REMARK INTER + INTRA:         -10.575
REMARK INTER:                  -9.371
REMARK INTRA:                  -1.204
REMARK UNBOUND:                -1.157
REMARK  Name = 
REMARK  7 active torsions:
REMARK  status: ('A' for Active; 'I' for Inactive)
REMARK    1  A    between atoms: C_1  and  C_2
REMARK    2  A    between atoms: C_2  and  N_3
REMARK    3  A    between atoms: C_2  and  C_12
REMARK    4  A    between atoms: C_4  and  C_6
REMARK    5  A    between atoms: C_15  and  C_16
REMARK    6  A    between atoms: C_16  and  N_17
REMARK    7  A    between atoms: C_18  and  C_20
REMARK                            x       y       z     vdW  Elec       q    Type
REMARK                         _______ _______ _______ _____ _____    ______ ____
ROOT
ATOM      1  C   UNL     1      50.629   8.629  11.889  0.00  0.00    +0.000 A 
ATOM      2  C   UNL     1      49.776   9.708  11.608  0.00  0.00    +0.000 A 
ATOM      3  C   UNL     1      48.388   9.570  11.697  0.00  0.00    +0.000 A 
ATOM      4  C   UNL     1      47.818   8.349  12.074  0.00  0.00    +0.000 A 
ATOM      5  C   UNL     1      48.664   7.264  12.333  0.00  0.00    +0.000 A 
ATOM      6  C   UNL     1      50.052   7.402  12.249  0.00  0.00    +0.000 A 
ENDROOT
BRANCH   1   8
ATOM      7  C   UNL     1      52.841   8.591  13.127  0.00  0.00    +0.000 C 
ATOM      8  C   UNL     1      52.132   8.812  11.785  0.00  0.00    +0.000 C 
BRANCH   8   9
ATOM      9  N   UNL     1      52.688   7.947  10.751  0.00  0.00    +0.000 N 
ATOM     10  C   UNL     1      52.865   8.400   9.465  0.00  0.00    +0.000 C 
ATOM     11  O   UNL     1      52.523   9.531   9.121  0.00  0.00    +0.000 OA
ATOM     12  H   UNL     1      53.074   7.056  11.028  0.00  0.00    +0.000 HD
BRANCH  10  13
ATOM     13  C   UNL     1      53.555   7.427   8.509  0.00  0.00    +0.000 C 
ATOM     14  C   UNL     1      53.985   6.126   9.203  0.00  0.00    +0.000 C 
ATOM     15  C   UNL     1      54.432   5.069   8.192  0.00  0.00    +0.000 C 
ATOM     16  C   UNL     1      53.398   4.870   7.089  0.00  0.00    +0.000 C 
ATOM     17  N   UNL     1      53.140   6.134   6.404  0.00  0.00    +0.000 NA
ATOM     18  C   UNL     1      52.600   7.130   7.338  0.00  0.00    +0.000 C 
ATOM     19  H   UNL     1      52.456   5.980   5.662  0.00  0.00    +0.000 HD
ENDBRANCH  10  13
ENDBRANCH   8   9
ENDBRANCH   1   8
BRANCH   4  20
ATOM     20  C   UNL     1      46.324   8.183  12.156  0.00  0.00    +0.000 C 
BRANCH  20  21
ATOM     21  N   UNL     1      45.937   6.822  11.880  0.00  0.00    +0.000 N 
ATOM     22  C   UNL     1      44.659   6.511  11.494  0.00  0.00    +0.000 C 
ATOM     23  O   UNL     1      43.804   7.376  11.319  0.00  0.00    +0.000 OA
ATOM     24  H   UNL     1      46.551   6.090  12.220  0.00  0.00    +0.000 HD
BRANCH  22  25
ATOM     25  C   UNL     1      44.377   5.093  11.237  0.00  0.00    +0.000 A 
ATOM     26  C   UNL     1      43.601   4.373  12.135  0.00  0.00    +0.000 A 
ATOM     27  S   UNL     1      43.326   2.758  11.661  0.00  0.00    +0.000 S 
ATOM     28  C   UNL     1      44.281   2.948  10.267  0.00  0.00    +0.000 A 
ATOM     29  N   UNL     1      44.485   1.909   9.414  0.00  0.00    +0.000 NA
ATOM     30  C   UNL     1      45.257   2.181   8.416  0.00  0.00    +0.000 A 
ATOM     31  N   UNL     1      45.839   3.401   8.190  0.00  0.00    +0.000 N 
ATOM     32  C   UNL     1      45.636   4.489   9.006  0.00  0.00    +0.000 A 
ATOM     33  O   UNL     1      46.137   5.579   8.750  0.00  0.00    +0.000 OA
ATOM     34  C   UNL     1      44.786   4.231  10.153  0.00  0.00    +0.000 A 
ATOM     35  H   UNL     1      46.427   3.552   7.383  0.00  0.00    +0.000 HD
ENDBRANCH  22  25
ENDBRANCH  20  21
ENDBRANCH   4  20
TORSDOF 6
ENDMDL
MODEL 8
REMARK VINA RESULT:    -6.667      4.070      5.228
REMARK INTER + INTRA:         -10.162
REMARK INTER:                  -9.256
REMARK INTRA:                  -0.905
REMARK UNBOUND:                -1.157
REMARK  Name = 
REMARK  7 active torsions:
REMARK  status: ('A' for Active; 'I' for Inactive)
REMARK    1  A    between atoms: C_1  and  C_2
REMARK    2  A    between atoms: C_2  and  N_3
REMARK    3  A    between atoms: C_2  and  C_12
REMARK    4  A    between atoms: C_4  and  C_6
REMARK    5  A    between atoms: C_15  and  C_16
REMARK    6  A    between atoms: C_16  and  N_17
REMARK    7  A    between atoms: C_18  and  C_20
REMARK                            x       y       z     vdW  Elec       q    Type
REMARK                         _______ _______ _______ _____ _____    ______ ____
ROOT
ATOM      1  C   UNL     1      45.427   6.187  11.551  0.00  0.00    +0.000 A 
ATOM      2  C   UNL     1      44.884   7.477  11.445  0.00  0.00    +0.000 A 
ATOM      3  C   UNL     1      45.611   8.600  11.849  0.00  0.00    +0.000 A 
ATOM      4  C   UNL     1      46.904   8.460  12.366  0.00  0.00    +0.000 A 
ATOM      5  C   UNL     1      47.442   7.173  12.495  0.00  0.00    +0.000 A 
ATOM      6  C   UNL     1      46.716   6.050  12.087  0.00  0.00    +0.000 A 
ENDROOT
BRANCH   1   8
ATOM      7  C   UNL     1      43.120   5.316  10.960  0.00  0.00    +0.000 C 
ATOM      8  C   UNL     1      44.611   4.988  11.100  0.00  0.00    +0.000 C 
BRANCH   8   9
ATOM      9  N   UNL     1      45.144   4.437   9.861  0.00  0.00    +0.000 N 
ATOM     10  C   UNL     1      44.890   3.136   9.494  0.00  0.00    +0.000 C 
ATOM     11  O   UNL     1      44.245   2.373  10.212  0.00  0.00    +0.000 OA
ATOM     12  H   UNL     1      45.584   5.067   9.206  0.00  0.00    +0.000 HD
BRANCH  10  13
ATOM     13  C   UNL     1      45.418   2.718   8.121  0.00  0.00    +0.000 C 
ATOM     14  C   UNL     1      46.283   3.807   7.469  0.00  0.00    +0.000 C 
ATOM     15  C   UNL     1      47.010   3.281   6.230  0.00  0.00    +0.000 C 
ATOM     16  C   UNL     1      47.761   1.988   6.523  0.00  0.00    +0.000 C 
ATOM     17  N   UNL     1      46.840   0.971   7.026  0.00  0.00    +0.000 NA
ATOM     18  C   UNL     1      46.216   1.411   8.280  0.00  0.00    +0.000 C 
ATOM     19  H   UNL     1      47.356   0.109   7.205  0.00  0.00    +0.000 HD
ENDBRANCH  10  13
ENDBRANCH   8   9
ENDBRANCH   1   8
BRANCH   4  20
ATOM     20  C   UNL     1      47.691   9.660  12.823  0.00  0.00    +0.000 C 
BRANCH  20  21
ATOM     21  N   UNL     1      48.970   9.269  13.359  0.00  0.00    +0.000 N 
ATOM     22  C   UNL     1      50.126   9.891  12.965  0.00  0.00    +0.000 C 
ATOM     23  O   UNL     1      50.121  10.836  12.180  0.00  0.00    +0.000 OA
ATOM     24  H   UNL     1      49.018   8.371  13.829  0.00  0.00    +0.000 HD
BRANCH  22  25
ATOM     25  C   UNL     1      51.372   9.412  13.578  0.00  0.00    +0.000 A 
ATOM     26  C   UNL     1      51.644   9.712  14.906  0.00  0.00    +0.000 A 
ATOM     27  S   UNL     1      53.103   9.037  15.475  0.00  0.00    +0.000 S 
ATOM     28  C   UNL     1      53.450   8.366  13.951  0.00  0.00    +0.000 A 
ATOM     29  N   UNL     1      54.596   7.665  13.742  0.00  0.00    +0.000 NA
ATOM     30  C   UNL     1      54.749   7.242  12.532  0.00  0.00    +0.000 A 
ATOM     31  N   UNL     1      53.857   7.451  11.513  0.00  0.00    +0.000 N 
ATOM     32  C   UNL     1      52.671   8.126  11.685  0.00  0.00    +0.000 A 
ATOM     33  O   UNL     1      51.874   8.257  10.761  0.00  0.00    +0.000 OA
ATOM     34  C   UNL     1      52.457   8.636  13.026  0.00  0.00    +0.000 A 
ATOM     35  H   UNL     1      54.032   7.085  10.589  0.00  0.00    +0.000 HD
ENDBRANCH  22  25
ENDBRANCH  20  21
ENDBRANCH   4  20
TORSDOF 6
ENDMDL
MODEL 9
REMARK VINA RESULT:    -5.783      5.143      7.290
REMARK INTER + INTRA:          -8.969
REMARK INTER:                  -8.673
REMARK INTRA:                  -0.295
REMARK UNBOUND:                -1.157
REMARK  Name = 
REMARK  7 active torsions:
REMARK  status: ('A' for Active; 'I' for Inactive)
REMARK    1  A    between atoms: C_1  and  C_2
REMARK    2  A    between atoms: C_2  and  N_3
REMARK    3  A    between atoms: C_2  and  C_12
REMARK    4  A    between atoms: C_4  and  C_6
REMARK    5  A    between atoms: C_15  and  C_16
REMARK    6  A    between atoms: C_16  and  N_17
REMARK    7  A    between atoms: C_18  and  C_20
REMARK                            x       y       z     vdW  Elec       q    Type
REMARK                         _______ _______ _______ _____ _____    ______ ____
ROOT
ATOM      1  C   UNL     1      46.290   6.480  12.507  0.00  0.00    +0.000 A 
ATOM      2  C   UNL     1      47.687   6.425  12.633  0.00  0.00    +0.000 A 
ATOM      3  C   UNL     1      48.466   7.579  12.513  0.00  0.00    +0.000 A 
ATOM      4  C   UNL     1      47.867   8.819  12.268  0.00  0.00    +0.000 A 
ATOM      5  C   UNL     1      46.475   8.876  12.119  0.00  0.00    +0.000 A 
ATOM      6  C   UNL     1      45.695   7.723  12.244  0.00  0.00    +0.000 A 
ENDROOT
BRANCH   1   8
ATOM      7  C   UNL     1      44.022   5.491  13.060  0.00  0.00    +0.000 C 
ATOM      8  C   UNL     1      45.471   5.210  12.645  0.00  0.00    +0.000 C 
BRANCH   8   9
ATOM      9  N   UNL     1      45.521   4.426  11.417  0.00  0.00    +0.000 N 
ATOM     10  C   UNL     1      44.563   4.572  10.442  0.00  0.00    +0.000 C 
ATOM     11  O   UNL     1      43.603   5.330  10.581  0.00  0.00    +0.000 OA
ATOM     12  H   UNL     1      46.349   3.879  11.231  0.00  0.00    +0.000 HD
BRANCH  10  13
ATOM     13  C   UNL     1      44.793   3.769   9.161  0.00  0.00    +0.000 C 
ATOM     14  C   UNL     1      45.870   4.394   8.262  0.00  0.00    +0.000 C 
ATOM     15  C   UNL     1      46.271   3.453   7.125  0.00  0.00    +0.000 C 
ATOM     16  C   UNL     1      46.625   2.063   7.641  0.00  0.00    +0.000 C 
ATOM     17  N   UNL     1      45.500   1.496   8.381  0.00  0.00    +0.000 NA
ATOM     18  C   UNL     1      45.174   2.328   9.546  0.00  0.00    +0.000 C 
ATOM     19  H   UNL     1      45.750   0.563   8.709  0.00  0.00    +0.000 HD
ENDBRANCH  10  13
ENDBRANCH   8   9
ENDBRANCH   1   8
BRANCH   4  20
ATOM     20  C   UNL     1      48.698  10.066  12.118  0.00  0.00    +0.000 C 
BRANCH  20  21
ATOM     21  N   UNL     1      49.662   9.922  11.056  0.00  0.00    +0.000 N 
ATOM     22  C   UNL     1      51.001  10.106  11.282  0.00  0.00    +0.000 C 
ATOM     23  O   UNL     1      51.444  10.353  12.401  0.00  0.00    +0.000 OA
ATOM     24  H   UNL     1      49.307   9.934  10.106  0.00  0.00    +0.000 HD
BRANCH  22  25
ATOM     25  C   UNL     1      51.892   9.932  10.128  0.00  0.00    +0.000 A 
ATOM     26  C   UNL     1      52.321  11.045   9.416  0.00  0.00    +0.000 A 
ATOM     27  S   UNL     1      53.390  10.673   8.142  0.00  0.00    +0.000 S 
ATOM     28  C   UNL     1      53.276   9.006   8.461  0.00  0.00    +0.000 A 
ATOM     29  N   UNL     1      53.945   8.101   7.696  0.00  0.00    +0.000 NA
ATOM     30  C   UNL     1      53.741   6.870   8.027  0.00  0.00    +0.000 A 
ATOM     31  N   UNL     1      52.936   6.461   9.057  0.00  0.00    +0.000 N 
ATOM     32  C   UNL     1      52.266   7.339   9.876  0.00  0.00    +0.000 A 
ATOM     33  O   UNL     1      51.588   6.940  10.818  0.00  0.00    +0.000 OA
ATOM     34  C   UNL     1      52.450   8.738   9.538  0.00  0.00    +0.000 A 
ATOM     35  H   UNL     1      52.826   5.481   9.270  0.00  0.00    +0.000 HD
ENDBRANCH  22  25
ENDBRANCH  20  21
ENDBRANCH   4  20
TORSDOF 6
ENDMDL
