MODEL 1
REMARK VINA RESULT:    -7.726      0.000      0.000
REMARK INTER + INTRA:         -12.032
REMARK INTER:                 -10.888
REMARK INTRA:                  -1.144
REMARK UNBOUND:                -1.144
REMARK  Name = 
REMARK  7 active torsions:
REMARK  status: ('A' for Active; 'I' for Inactive)
REMARK    1  A    between atoms: C_2  and  C_19
REMARK    2  A    between atoms: N_3  and  C_4
REMARK    3  A    between atoms: C_4  and  C_5
REMARK    4  A    between atoms: C_8  and  C_9
REMARK    5  A    between atoms: C_9  and  N_10
REMARK    6  A    between atoms: N_10  and  C_11
REMARK    7  A    between atoms: C_11  and  C_12
REMARK                            x       y       z     vdW  Elec       q    Type
REMARK                         _______ _______ _______ _____ _____    ______ ____
ROOT
ATOM      1  C   UNL     1      46.816   7.898  13.186  0.00  0.00    +0.000 C 
ENDROOT
BRANCH   1   2
ATOM      2  C   UNL     1      46.018   6.938  12.341  0.00  0.00    +0.000 A 
ATOM      3  C   UNL     1      46.430   6.643  11.039  0.00  0.00    +0.000 A 
ATOM      4  C   UNL     1      45.708   5.744  10.252  0.00  0.00    +0.000 A 
ATOM      5  C   UNL     1      44.555   5.120  10.749  0.00  0.00    +0.000 A 
ATOM      6  C   UNL     1      44.119   5.447  12.041  0.00  0.00    +0.000 A 
ATOM      7  C   UNL     1      44.842   6.352  12.828  0.00  0.00    +0.000 A 
BRANCH   5   8
ATOM      8  C   UNL     1      43.790   4.132   9.894  0.00  0.00    +0.000 C 
BRANCH   8   9
ATOM      9  N   UNL     1      44.278   4.149   8.513  0.00  0.00    +0.000 NA
ATOM     10  H   UNL     1      44.975   4.890   8.422  0.00  0.00    +0.000 HD
BRANCH   9  11
ATOM     11  C   UNL     1      44.877   2.865   8.125  0.00  0.00    +0.000 C 
BRANCH  11  12
ATOM     12  C   UNL     1      46.418   3.005   7.986  0.00  0.00    +0.000 C 
ATOM     13  C   UNL     1      47.088   1.778   7.390  0.00  0.00    +0.000 C 
ATOM     14  C   UNL     1      46.987   1.999   5.893  0.00  0.00    +0.000 C 
ATOM     15  C   UNL     1      46.941   3.511   5.727  0.00  0.00    +0.000 C 
ATOM     16  N   UNL     1      46.807   4.088   7.067  0.00  0.00    +0.000 NA
ATOM     17  H   UNL     1      46.073   4.801   7.081  0.00  0.00    +0.000 HD
ENDBRANCH  11  12
ENDBRANCH   9  11
ENDBRANCH   8   9
ENDBRANCH   5   8
ENDBRANCH   1   2
BRANCH   1  20
ATOM     18  O   UNL     1      49.352   6.688  13.475  0.00  0.00    +0.000 OA
ATOM     19  C   UNL     1      48.599   6.742  14.443  0.00  0.00    +0.000 C 
ATOM     20  N   UNL     1      47.330   7.254  14.367  0.00  0.00    +0.000 N 
ATOM     21  H   UNL     1      46.824   7.442  15.224  0.00  0.00    +0.000 HD
BRANCH  19  22
ATOM     22  C   UNL     1      48.992   6.198  15.751  0.00  0.00    +0.000 A 
ATOM     23  C   UNL     1      50.010   6.802  16.475  0.00  0.00    +0.000 A 
ATOM     24  S   UNL     1      50.361   6.013  17.947  0.00  0.00    +0.000 S 
ATOM     25  C   UNL     1      49.129   4.867  17.692  0.00  0.00    +0.000 A 
ATOM     26  N   UNL     1      48.875   3.896  18.610  0.00  0.00    +0.000 NA
ATOM     27  C   UNL     1      47.881   3.127  18.311  0.00  0.00    +0.000 A 
ATOM     28  N   UNL     1      47.124   3.235  17.173  0.00  0.00    +0.000 N 
ATOM     29  C   UNL     1      47.393   4.149  16.185  0.00  0.00    +0.000 A 
ATOM     30  O   UNL     1      46.780   4.127  15.123  0.00  0.00    +0.000 OA
ATOM     31  C   UNL     1      48.473   5.070  16.491  0.00  0.00    +0.000 A 
ATOM     32  H   UNL     1      46.376   2.585  16.985  0.00  0.00    +0.000 HD
ENDBRANCH  19  22
ENDBRANCH   1  20
TORSDOF 7
ENDMDL
MODEL 2
REMARK VINA RESULT:    -7.232      4.219      9.243
REMARK INTER + INTRA:         -11.335
REMARK INTER:                 -10.526
REMARK INTRA:                  -0.809
REMARK UNBOUND:                -1.144
REMARK  Name = 
REMARK  7 active torsions:
REMARK  status: ('A' for Active; 'I' for Inactive)
REMARK    1  A    between atoms: C_2  and  C_19
REMARK    2  A    between atoms: N_3  and  C_4
REMARK    3  A    between atoms: C_4  and  C_5
REMARK    4  A    between atoms: C_8  and  C_9
REMARK    5  A    between atoms: C_9  and  N_10
REMARK    6  A    between atoms: N_10  and  C_11
REMARK    7  A    between atoms: C_11  and  C_12
REMARK                            x       y       z     vdW  Elec       q    Type
REMARK                         _______ _______ _______ _____ _____    ______ ____
ROOT
ATOM      1  C   UNL     1      47.098   3.491  16.872  0.00  0.00    +0.000 C 
ENDROOT
BRANCH   1   2
ATOM      2  C   UNL     1      48.576   3.469  17.167  0.00  0.00    +0.000 A 
ATOM      3  C   UNL     1      49.297   2.279  17.039  0.00  0.00    +0.000 A 
ATOM      4  C   UNL     1      50.669   2.249  17.295  0.00  0.00    +0.000 A 
ATOM      5  C   UNL     1      51.352   3.410  17.686  0.00  0.00    +0.000 A 
ATOM      6  C   UNL     1      50.621   4.594  17.854  0.00  0.00    +0.000 A 
ATOM      7  C   UNL     1      49.244   4.622  17.601  0.00  0.00    +0.000 A 
BRANCH   5   8
ATOM      8  C   UNL     1      52.844   3.370  17.942  0.00  0.00    +0.000 C 
BRANCH   8   9
ATOM      9  N   UNL     1      53.180   2.325  18.911  0.00  0.00    +0.000 NA
ATOM     10  H   UNL     1      52.340   1.779  19.108  0.00  0.00    +0.000 HD
BRANCH   9  11
ATOM     11  C   UNL     1      54.236   1.433  18.414  0.00  0.00    +0.000 C 
BRANCH  11  12
ATOM     12  C   UNL     1      53.615   0.211  17.681  0.00  0.00    +0.000 C 
ATOM     13  C   UNL     1      54.603  -0.537  16.803  0.00  0.00    +0.000 C 
ATOM     14  C   UNL     1      55.268  -1.514  17.752  0.00  0.00    +0.000 C 
ATOM     15  C   UNL     1      54.230  -1.769  18.836  0.00  0.00    +0.000 C 
ATOM     16  N   UNL     1      53.134  -0.822  18.613  0.00  0.00    +0.000 NA
ATOM     17  H   UNL     1      52.868  -0.366  19.490  0.00  0.00    +0.000 HD
ENDBRANCH  11  12
ENDBRANCH   9  11
ENDBRANCH   8   9
ENDBRANCH   5   8
ENDBRANCH   1   2
BRANCH   1  20
ATOM     18  O   UNL     1      47.293   3.066  14.086  0.00  0.00    +0.000 OA
ATOM     19  C   UNL     1      46.850   4.133  14.501  0.00  0.00    +0.000 C 
ATOM     20  N   UNL     1      46.784   4.440  15.836  0.00  0.00    +0.000 N 
ATOM     21  H   UNL     1      46.247   5.247  16.128  0.00  0.00    +0.000 HD
BRANCH  19  22
ATOM     22  C   UNL     1      46.412   5.192  13.580  0.00  0.00    +0.000 A 
ATOM     23  C   UNL     1      47.283   6.219  13.242  0.00  0.00    +0.000 A 
ATOM     24  S   UNL     1      46.595   7.381  12.198  0.00  0.00    +0.000 S 
ATOM     25  C   UNL     1      45.126   6.524  12.120  0.00  0.00    +0.000 A 
ATOM     26  N   UNL     1      44.092   6.973  11.359  0.00  0.00    +0.000 NA
ATOM     27  C   UNL     1      43.059   6.199  11.354  0.00  0.00    +0.000 A 
ATOM     28  N   UNL     1      42.961   5.021  12.048  0.00  0.00    +0.000 N 
ATOM     29  C   UNL     1      43.948   4.570  12.889  0.00  0.00    +0.000 A 
ATOM     30  O   UNL     1      43.769   3.583  13.596  0.00  0.00    +0.000 OA
ATOM     31  C   UNL     1      45.153   5.379  12.897  0.00  0.00    +0.000 A 
ATOM     32  H   UNL     1      42.113   4.474  12.024  0.00  0.00    +0.000 HD
ENDBRANCH  19  22
ENDBRANCH   1  20
TORSDOF 7
ENDMDL
MODEL 3
REMARK VINA RESULT:    -7.137      1.810      2.386
REMARK INTER + INTRA:         -11.202
REMARK INTER:                 -10.501
REMARK INTRA:                  -0.700
REMARK UNBOUND:                -1.144
REMARK  Name = 
REMARK  7 active torsions:
REMARK  status: ('A' for Active; 'I' for Inactive)
REMARK    1  A    between atoms: C_2  and  C_19
REMARK    2  A    between atoms: N_3  and  C_4
REMARK    3  A    between atoms: C_4  and  C_5
REMARK    4  A    between atoms: C_8  and  C_9
REMARK    5  A    between atoms: C_9  and  N_10
REMARK    6  A    between atoms: N_10  and  C_11
REMARK    7  A    between atoms: C_11  and  C_12
REMARK                            x       y       z     vdW  Elec       q    Type
REMARK                         _______ _______ _______ _____ _____    ______ ____
ROOT
ATOM      1  C   UNL     1      48.330   6.705  13.478  0.00  0.00    +0.000 C 
ENDROOT
BRANCH   1   2
ATOM      2  C   UNL     1      47.059   6.189  12.852  0.00  0.00    +0.000 A 
ATOM      3  C   UNL     1      46.233   5.317  13.565  0.00  0.00    +0.000 A 
ATOM      4  C   UNL     1      45.046   4.845  13.002  0.00  0.00    +0.000 A 
ATOM      5  C   UNL     1      44.659   5.233  11.711  0.00  0.00    +0.000 A 
ATOM      6  C   UNL     1      45.508   6.076  10.981  0.00  0.00    +0.000 A 
ATOM      7  C   UNL     1      46.700   6.546  11.545  0.00  0.00    +0.000 A 
BRANCH   5   8
ATOM      8  C   UNL     1      43.359   4.730  11.118  0.00  0.00    +0.000 C 
BRANCH   8   9
ATOM      9  N   UNL     1      43.401   3.279  10.924  0.00  0.00    +0.000 NA
ATOM     10  H   UNL     1      42.637   3.011  10.302  0.00  0.00    +0.000 HD
BRANCH   9  11
ATOM     11  C   UNL     1      44.678   2.837  10.347  0.00  0.00    +0.000 C 
BRANCH  11  12
ATOM     12  C   UNL     1      44.488   2.424   8.862  0.00  0.00    +0.000 C 
ATOM     13  C   UNL     1      44.752   3.552   7.879  0.00  0.00    +0.000 C 
ATOM     14  C   UNL     1      46.250   3.492   7.648  0.00  0.00    +0.000 C 
ATOM     15  C   UNL     1      46.621   2.037   7.896  0.00  0.00    +0.000 C 
ATOM     16  N   UNL     1      45.433   1.376   8.441  0.00  0.00    +0.000 NA
ATOM     17  H   UNL     1      45.678   0.816   9.262  0.00  0.00    +0.000 HD
ENDBRANCH  11  12
ENDBRANCH   9  11
ENDBRANCH   8   9
ENDBRANCH   5   8
ENDBRANCH   1   2
BRANCH   1  20
ATOM     18  O   UNL     1      50.484   6.839  15.301  0.00  0.00    +0.000 OA
ATOM     19  C   UNL     1      49.333   6.846  15.729  0.00  0.00    +0.000 C 
ATOM     20  N   UNL     1      48.238   6.719  14.916  0.00  0.00    +0.000 N 
ATOM     21  H   UNL     1      47.319   6.914  15.295  0.00  0.00    +0.000 HD
BRANCH  19  22
ATOM     22  C   UNL     1      49.053   6.930  17.170  0.00  0.00    +0.000 A 
ATOM     23  C   UNL     1      48.771   8.159  17.750  0.00  0.00    +0.000 A 
ATOM     24  S   UNL     1      48.513   8.076  19.435  0.00  0.00    +0.000 S 
ATOM     25  C   UNL     1      48.718   6.386  19.439  0.00  0.00    +0.000 A 
ATOM     26  N   UNL     1      48.600   5.670  20.589  0.00  0.00    +0.000 NA
ATOM     27  C   UNL     1      48.730   4.394  20.438  0.00  0.00    +0.000 A 
ATOM     28  N   UNL     1      48.978   3.770  19.243  0.00  0.00    +0.000 N 
ATOM     29  C   UNL     1      49.182   4.459  18.073  0.00  0.00    +0.000 A 
ATOM     30  O   UNL     1      49.534   3.876  17.053  0.00  0.00    +0.000 OA
ATOM     31  C   UNL     1      49.001   5.896  18.177  0.00  0.00    +0.000 A 
ATOM     32  H   UNL     1      49.096   2.769  19.196  0.00  0.00    +0.000 HD
ENDBRANCH  19  22
ENDBRANCH   1  20
TORSDOF 7
ENDMDL
MODEL 4
REMARK VINA RESULT:    -6.997      2.149      3.718
REMARK INTER + INTRA:         -11.004
REMARK INTER:                  -9.901
REMARK INTRA:                  -1.103
REMARK UNBOUND:                -1.144
REMARK  Name = 
REMARK  7 active torsions:
REMARK  status: ('A' for Active; 'I' for Inactive)
REMARK    1  A    between atoms: C_2  and  C_19
REMARK    2  A    between atoms: N_3  and  C_4
REMARK    3  A    between atoms: C_4  and  C_5
REMARK    4  A    between atoms: C_8  and  C_9
REMARK    5  A    between atoms: C_9  and  N_10
REMARK    6  A    between atoms: N_10  and  C_11
REMARK    7  A    between atoms: C_11  and  C_12
REMARK                            x       y       z     vdW  Elec       q    Type
REMARK                         _______ _______ _______ _____ _____    ______ ____
ROOT
ATOM      1  C   UNL     1      46.782   4.462  14.772  0.00  0.00    +0.000 C 
ENDROOT
BRANCH   1   2
ATOM      2  C   UNL     1      46.186   4.434  13.388  0.00  0.00    +0.000 A 
ATOM      3  C   UNL     1      46.121   5.606  12.630  0.00  0.00    +0.000 A 
ATOM      4  C   UNL     1      45.586   5.589  11.341  0.00  0.00    +0.000 A 
ATOM      5  C   UNL     1      45.102   4.399  10.779  0.00  0.00    +0.000 A 
ATOM      6  C   UNL     1      45.131   3.231  11.555  0.00  0.00    +0.000 A 
ATOM      7  C   UNL     1      45.664   3.250  12.849  0.00  0.00    +0.000 A 
BRANCH   5   8
ATOM      8  C   UNL     1      44.542   4.389   9.372  0.00  0.00    +0.000 C 
BRANCH   8   9
ATOM      9  N   UNL     1      45.415   5.127   8.457  0.00  0.00    +0.000 NA
ATOM     10  H   UNL     1      45.785   5.943   8.946  0.00  0.00    +0.000 HD
BRANCH   9  11
ATOM     11  C   UNL     1      46.530   4.300   7.974  0.00  0.00    +0.000 C 
BRANCH  11  12
ATOM     12  C   UNL     1      45.996   3.098   7.147  0.00  0.00    +0.000 C 
ATOM     13  C   UNL     1      46.614   2.990   5.764  0.00  0.00    +0.000 C 
ATOM     14  C   UNL     1      47.886   2.197   5.993  0.00  0.00    +0.000 C 
ATOM     15  C   UNL     1      47.595   1.346   7.222  0.00  0.00    +0.000 C 
ATOM     16  N   UNL     1      46.314   1.800   7.766  0.00  0.00    +0.000 NA
ATOM     17  H   UNL     1      46.380   1.935   8.779  0.00  0.00    +0.000 HD
ENDBRANCH  11  12
ENDBRANCH   9  11
ENDBRANCH   8   9
ENDBRANCH   5   8
ENDBRANCH   1   2
BRANCH   1  20
ATOM     18  O   UNL     1      48.971   4.854  16.513  0.00  0.00    +0.000 OA
ATOM     19  C   UNL     1      48.562   5.797  15.841  0.00  0.00    +0.000 C 
ATOM     20  N   UNL     1      47.466   5.704  15.023  0.00  0.00    +0.000 N 
ATOM     21  H   UNL     1      47.284   6.448  14.360  0.00  0.00    +0.000 HD
BRANCH  19  22
ATOM     22  C   UNL     1      49.191   7.123  15.918  0.00  0.00    +0.000 A 
ATOM     23  C   UNL     1      49.320   7.758  17.146  0.00  0.00    +0.000 A 
ATOM     24  S   UNL     1      50.034   9.305  17.043  0.00  0.00    +0.000 S 
ATOM     25  C   UNL     1      50.242   9.158  15.360  0.00  0.00    +0.000 A 
ATOM     26  N   UNL     1      50.831  10.150  14.638  0.00  0.00    +0.000 NA
ATOM     27  C   UNL     1      50.970   9.884  13.382  0.00  0.00    +0.000 A 
ATOM     28  N   UNL     1      50.565   8.721  12.780  0.00  0.00    +0.000 N 
ATOM     29  C   UNL     1      49.897   7.728  13.454  0.00  0.00    +0.000 A 
ATOM     30  O   UNL     1      49.431   6.765  12.855  0.00  0.00    +0.000 OA
ATOM     31  C   UNL     1      49.755   7.955  14.881  0.00  0.00    +0.000 A 
ATOM     32  H   UNL     1      50.678   8.585  11.787  0.00  0.00    +0.000 HD
ENDBRANCH  19  22
ENDBRANCH   1  20
TORSDOF 7
ENDMDL
MODEL 5
REMARK VINA RESULT:    -6.920      1.852      2.513
REMARK INTER + INTRA:         -10.896
REMARK INTER:                 -10.070
REMARK INTRA:                  -0.826
REMARK UNBOUND:                -1.144
REMARK  Name = 
REMARK  7 active torsions:
REMARK  status: ('A' for Active; 'I' for Inactive)
REMARK    1  A    between atoms: C_2  and  C_19
REMARK    2  A    between atoms: N_3  and  C_4
REMARK    3  A    between atoms: C_4  and  C_5
REMARK    4  A    between atoms: C_8  and  C_9
REMARK    5  A    between atoms: C_9  and  N_10
REMARK    6  A    between atoms: N_10  and  C_11
REMARK    7  A    between atoms: C_11  and  C_12
REMARK                            x       y       z     vdW  Elec       q    Type
REMARK                         _______ _______ _______ _____ _____    ______ ____
ROOT
ATOM      1  C   UNL     1      47.609   7.037  13.660  0.00  0.00    +0.000 C 
ENDROOT
BRANCH   1   2
ATOM      2  C   UNL     1      46.712   6.208  12.777  0.00  0.00    +0.000 A 
ATOM      3  C   UNL     1      46.392   6.652  11.492  0.00  0.00    +0.000 A 
ATOM      4  C   UNL     1      45.574   5.885  10.659  0.00  0.00    +0.000 A 
ATOM      5  C   UNL     1      45.057   4.657  11.093  0.00  0.00    +0.000 A 
ATOM      6  C   UNL     1      45.345   4.231  12.398  0.00  0.00    +0.000 A 
ATOM      7  C   UNL     1      46.161   5.002  13.233  0.00  0.00    +0.000 A 
BRANCH   5   8
ATOM      8  C   UNL     1      44.187   3.825  10.174  0.00  0.00    +0.000 C 
BRANCH   8   9
ATOM      9  N   UNL     1      44.108   4.429   8.842  0.00  0.00    +0.000 NA
ATOM     10  H   UNL     1      44.658   5.289   8.840  0.00  0.00    +0.000 HD
BRANCH   9  11
ATOM     11  C   UNL     1      44.610   3.525   7.798  0.00  0.00    +0.000 C 
BRANCH  11  12
ATOM     12  C   UNL     1      46.163   3.481   7.819  0.00  0.00    +0.000 C 
ATOM     13  C   UNL     1      46.730   2.072   7.814  0.00  0.00    +0.000 C 
ATOM     14  C   UNL     1      46.794   1.709   6.343  0.00  0.00    +0.000 C 
ATOM     15  C   UNL     1      46.947   3.041   5.623  0.00  0.00    +0.000 C 
ATOM     16  N   UNL     1      46.762   4.095   6.623  0.00  0.00    +0.000 NA
ATOM     17  H   UNL     1      46.122   4.814   6.275  0.00  0.00    +0.000 HD
ENDBRANCH  11  12
ENDBRANCH   9  11
ENDBRANCH   8   9
ENDBRANCH   5   8
ENDBRANCH   1   2
BRANCH   1  20
ATOM     18  O   UNL     1      48.745   7.990  16.064  0.00  0.00    +0.000 OA
ATOM     19  C   UNL     1      48.675   6.780  15.872  0.00  0.00    +0.000 C 
ATOM     20  N   UNL     1      48.197   6.240  14.706  0.00  0.00    +0.000 N 
ATOM     21  H   UNL     1      47.991   5.249  14.672  0.00  0.00    +0.000 HD
BRANCH  19  22
ATOM     22  C   UNL     1      49.162   5.816  16.869  0.00  0.00    +0.000 A 
ATOM     23  C   UNL     1      48.258   5.067  17.609  0.00  0.00    +0.000 A 
ATOM     24  S   UNL     1      48.997   4.032  18.747  0.00  0.00    +0.000 S 
ATOM     25  C   UNL     1      50.555   4.511  18.254  0.00  0.00    +0.000 A 
ATOM     26  N   UNL     1      51.666   3.974  18.825  0.00  0.00    +0.000 NA
ATOM     27  C   UNL     1      52.779   4.391  18.321  0.00  0.00    +0.000 A 
ATOM     28  N   UNL     1      52.883   5.304  17.303  0.00  0.00    +0.000 N 
ATOM     29  C   UNL     1      51.792   5.929  16.752  0.00  0.00    +0.000 A 
ATOM     30  O   UNL     1      51.931   6.837  15.939  0.00  0.00    +0.000 OA
ATOM     31  C   UNL     1      50.510   5.463  17.251  0.00  0.00    +0.000 A 
ATOM     32  H   UNL     1      53.785   5.609  16.971  0.00  0.00    +0.000 HD
ENDBRANCH  19  22
ENDBRANCH   1  20
TORSDOF 7
ENDMDL
MODEL 6
REMARK VINA RESULT:    -6.677      4.297      9.379
REMARK INTER + INTRA:         -10.553
REMARK INTER:                  -9.448
REMARK INTRA:                  -1.105
REMARK UNBOUND:                -1.144
REMARK  Name = 
REMARK  7 active torsions:
REMARK  status: ('A' for Active; 'I' for Inactive)
REMARK    1  A    between atoms: C_2  and  C_19
REMARK    2  A    between atoms: N_3  and  C_4
REMARK    3  A    between atoms: C_4  and  C_5
REMARK    4  A    between atoms: C_8  and  C_9
REMARK    5  A    between atoms: C_9  and  N_10
REMARK    6  A    between atoms: N_10  and  C_11
REMARK    7  A    between atoms: C_11  and  C_12
REMARK                            x       y       z     vdW  Elec       q    Type
REMARK                         _______ _______ _______ _____ _____    ______ ____
ROOT
ATOM      1  C   UNL     1      47.386   3.560  17.126  0.00  0.00    +0.000 C 
ENDROOT
BRANCH   1   2
ATOM      2  C   UNL     1      48.866   3.420  17.371  0.00  0.00    +0.000 A 
ATOM      3  C   UNL     1      49.512   2.216  17.082  0.00  0.00    +0.000 A 
ATOM      4  C   UNL     1      50.886   2.079  17.290  0.00  0.00    +0.000 A 
ATOM      5  C   UNL     1      51.646   3.144  17.794  0.00  0.00    +0.000 A 
ATOM      6  C   UNL     1      50.990   4.340  18.122  0.00  0.00    +0.000 A 
ATOM      7  C   UNL     1      49.612   4.474  17.916  0.00  0.00    +0.000 A 
BRANCH   5   8
ATOM      8  C   UNL     1      53.138   2.991  17.998  0.00  0.00    +0.000 C 
BRANCH   8   9
ATOM      9  N   UNL     1      53.424   2.010  19.047  0.00  0.00    +0.000 NA
ATOM     10  H   UNL     1      52.573   1.481  19.240  0.00  0.00    +0.000 HD
BRANCH   9  11
ATOM     11  C   UNL     1      54.496   1.084  18.657  0.00  0.00    +0.000 C 
BRANCH  11  12
ATOM     12  C   UNL     1      53.919  -0.095  17.825  0.00  0.00    +0.000 C 
ATOM     13  C   UNL     1      54.983  -1.040  17.293  0.00  0.00    +0.000 C 
ATOM     14  C   UNL     1      55.203  -2.020  18.429  0.00  0.00    +0.000 C 
ATOM     15  C   UNL     1      53.880  -2.042  19.182  0.00  0.00    +0.000 C 
ATOM     16  N   UNL     1      53.048  -0.975  18.621  0.00  0.00    +0.000 NA
ATOM     17  H   UNL     1      52.625  -0.418  19.368  0.00  0.00    +0.000 HD
ENDBRANCH  11  12
ENDBRANCH   9  11
ENDBRANCH   8   9
ENDBRANCH   5   8
ENDBRANCH   1   2
BRANCH   1  20
ATOM     18  O   UNL     1      47.386   3.046  14.348  0.00  0.00    +0.000 OA
ATOM     19  C   UNL     1      47.077   4.163  14.752  0.00  0.00    +0.000 C 
ATOM     20  N   UNL     1      47.115   4.510  16.077  0.00  0.00    +0.000 N 
ATOM     21  H   UNL     1      46.679   5.375  16.371  0.00  0.00    +0.000 HD
BRANCH  19  22
ATOM     22  C   UNL     1      46.701   5.237  13.821  0.00  0.00    +0.000 A 
ATOM     23  C   UNL     1      45.518   5.146  13.101  0.00  0.00    +0.000 A 
ATOM     24  S   UNL     1      45.262   6.458  12.039  0.00  0.00    +0.000 S 
ATOM     25  C   UNL     1      46.699   7.219  12.545  0.00  0.00    +0.000 A 
ATOM     26  N   UNL     1      47.071   8.423  12.031  0.00  0.00    +0.000 NA
ATOM     27  C   UNL     1      48.155   8.906  12.540  0.00  0.00    +0.000 A 
ATOM     28  N   UNL     1      48.906   8.292  13.509  0.00  0.00    +0.000 N 
ATOM     29  C   UNL     1      48.610   7.043  13.998  0.00  0.00    +0.000 A 
ATOM     30  O   UNL     1      49.378   6.470  14.763  0.00  0.00    +0.000 OA
ATOM     31  C   UNL     1      47.375   6.472  13.493  0.00  0.00    +0.000 A 
ATOM     32  H   UNL     1      49.759   8.711  13.846  0.00  0.00    +0.000 HD
ENDBRANCH  19  22
ENDBRANCH   1  20
TORSDOF 7
ENDMDL
MODEL 7
REMARK VINA RESULT:    -6.676      2.645      3.869
REMARK INTER + INTRA:         -10.551
REMARK INTER:                  -9.685
REMARK INTRA:                  -0.866
REMARK UNBOUND:                -1.144
REMARK  Name = 
REMARK  7 active torsions:
REMARK  status: ('A' for Active; 'I' for Inactive)
REMARK    1  A    between atoms: C_2  and  C_19
REMARK    2  A    between atoms: N_3  and  C_4
REMARK    3  A    between atoms: C_4  and  C_5
REMARK    4  A    between atoms: C_8  and  C_9
REMARK    5  A    between atoms: C_9  and  N_10
REMARK    6  A    between atoms: N_10  and  C_11
REMARK    7  A    between atoms: C_11  and  C_12
REMARK                            x       y       z     vdW  Elec       q    Type
REMARK                         _______ _______ _______ _____ _____    ______ ____
ROOT
ATOM      1  C   UNL     1      47.520   4.196  15.591  0.00  0.00    +0.000 C 
ENDROOT
BRANCH   1   2
ATOM      2  C   UNL     1      46.921   4.747  14.322  0.00  0.00    +0.000 A 
ATOM      3  C   UNL     1      45.851   4.089  13.712  0.00  0.00    +0.000 A 
ATOM      4  C   UNL     1      45.277   4.598  12.545  0.00  0.00    +0.000 A 
ATOM      5  C   UNL     1      45.763   5.776  11.961  0.00  0.00    +0.000 A 
ATOM      6  C   UNL     1      46.863   6.414  12.552  0.00  0.00    +0.000 A 
ATOM      7  C   UNL     1      47.439   5.901  13.719  0.00  0.00    +0.000 A 
BRANCH   5   8
ATOM      8  C   UNL     1      45.121   6.329  10.706  0.00  0.00    +0.000 C 
BRANCH   8   9
ATOM      9  N   UNL     1      44.610   5.248   9.860  0.00  0.00    +0.000 NA
ATOM     10  H   UNL     1      43.798   5.592   9.346  0.00  0.00    +0.000 HD
BRANCH   9  11
ATOM     11  C   UNL     1      45.623   4.768   8.910  0.00  0.00    +0.000 C 
BRANCH  11  12
ATOM     12  C   UNL     1      44.996   3.751   7.917  0.00  0.00    +0.000 C 
ATOM     13  C   UNL     1      46.002   3.145   6.952  0.00  0.00    +0.000 C 
ATOM     14  C   UNL     1      46.573   1.965   7.715  0.00  0.00    +0.000 C 
ATOM     15  C   UNL     1      45.466   1.551   8.674  0.00  0.00    +0.000 C 
ATOM     16  N   UNL     1      44.423   2.577   8.596  0.00  0.00    +0.000 NA
ATOM     17  H   UNL     1      44.126   2.861   9.533  0.00  0.00    +0.000 HD
ENDBRANCH  11  12
ENDBRANCH   9  11
ENDBRANCH   8   9
ENDBRANCH   5   8
ENDBRANCH   1   2
BRANCH   1  20
ATOM     18  O   UNL     1      49.753   5.573  16.637  0.00  0.00    +0.000 OA
ATOM     19  C   UNL     1      48.631   5.843  17.056  0.00  0.00    +0.000 C 
ATOM     20  N   UNL     1      47.506   5.176  16.646  0.00  0.00    +0.000 N 
ATOM     21  H   UNL     1      46.597   5.556  16.881  0.00  0.00    +0.000 HD
BRANCH  19  22
ATOM     22  C   UNL     1      48.424   6.873  18.085  0.00  0.00    +0.000 A 
ATOM     23  C   UNL     1      48.438   6.523  19.428  0.00  0.00    +0.000 A 
ATOM     24  S   UNL     1      48.139   7.834  20.479  0.00  0.00    +0.000 S 
ATOM     25  C   UNL     1      48.033   8.925  19.177  0.00  0.00    +0.000 A 
ATOM     26  N   UNL     1      47.810  10.250  19.391  0.00  0.00    +0.000 NA
ATOM     27  C   UNL     1      47.803  10.969  18.318  0.00  0.00    +0.000 A 
ATOM     28  N   UNL     1      47.989  10.483  17.050  0.00  0.00    +0.000 N 
ATOM     29  C   UNL     1      48.140   9.144  16.781  0.00  0.00    +0.000 A 
ATOM     30  O   UNL     1      48.168   8.734  15.626  0.00  0.00    +0.000 OA
ATOM     31  C   UNL     1      48.201   8.295  17.957  0.00  0.00    +0.000 A 
ATOM     32  H   UNL     1      47.946  11.094  16.249  0.00  0.00    +0.000 HD
ENDBRANCH  19  22
ENDBRANCH   1  20
TORSDOF 7
ENDMDL
MODEL 8
REMARK VINA RESULT:    -6.577      2.834      8.583
REMARK INTER + INTRA:         -10.412
REMARK INTER:                  -9.184
REMARK INTRA:                  -1.228
REMARK UNBOUND:                -1.144
REMARK  Name = 
REMARK  7 active torsions:
REMARK  status: ('A' for Active; 'I' for Inactive)
REMARK    1  A    between atoms: C_2  and  C_19
REMARK    2  A    between atoms: N_3  and  C_4
REMARK    3  A    between atoms: C_4  and  C_5
REMARK    4  A    between atoms: C_8  and  C_9
REMARK    5  A    between atoms: C_9  and  N_10
REMARK    6  A    between atoms: N_10  and  C_11
REMARK    7  A    between atoms: C_11  and  C_12
REMARK                            x       y       z     vdW  Elec       q    Type
REMARK                         _______ _______ _______ _____ _____    ______ ____
ROOT
ATOM      1  C   UNL     1      47.130   7.855  12.188  0.00  0.00    +0.000 C 
ENDROOT
BRANCH   1   2
ATOM      2  C   UNL     1      47.815   7.874  13.531  0.00  0.00    +0.000 A 
ATOM      3  C   UNL     1      48.272   6.683  14.099  0.00  0.00    +0.000 A 
ATOM      4  C   UNL     1      48.923   6.689  15.335  0.00  0.00    +0.000 A 
ATOM      5  C   UNL     1      49.129   7.888  16.031  0.00  0.00    +0.000 A 
ATOM      6  C   UNL     1      48.635   9.079  15.479  0.00  0.00    +0.000 A 
ATOM      7  C   UNL     1      47.980   9.070  14.242  0.00  0.00    +0.000 A 
BRANCH   5   8
ATOM      8  C   UNL     1      49.853   7.886  17.361  0.00  0.00    +0.000 C 
BRANCH   8   9
ATOM      9  N   UNL     1      49.006   7.325  18.416  0.00  0.00    +0.000 NA
ATOM     10  H   UNL     1      48.044   7.287  18.076  0.00  0.00    +0.000 HD
BRANCH   9  11
ATOM     11  C   UNL     1      49.438   5.977  18.810  0.00  0.00    +0.000 C 
BRANCH  11  12
ATOM     12  C   UNL     1      48.220   5.129  19.270  0.00  0.00    +0.000 C 
ATOM     13  C   UNL     1      47.072   5.127  18.275  0.00  0.00    +0.000 C 
ATOM     14  C   UNL     1      47.421   4.005  17.317  0.00  0.00    +0.000 C 
ATOM     15  C   UNL     1      48.267   3.043  18.139  0.00  0.00    +0.000 C 
ATOM     16  N   UNL     1      48.547   3.701  19.417  0.00  0.00    +0.000 NA
ATOM     17  H   UNL     1      49.540   3.622  19.653  0.00  0.00    +0.000 HD
ENDBRANCH  11  12
ENDBRANCH   9  11
ENDBRANCH   8   9
ENDBRANCH   5   8
ENDBRANCH   1   2
BRANCH   1  20
ATOM     18  O   UNL     1      44.384   7.439  11.674  0.00  0.00    +0.000 OA
ATOM     19  C   UNL     1      45.152   6.482  11.646  0.00  0.00    +0.000 C 
ATOM     20  N   UNL     1      46.485   6.590  11.947  0.00  0.00    +0.000 N 
ATOM     21  H   UNL     1      47.101   5.817  11.731  0.00  0.00    +0.000 HD
BRANCH  19  22
ATOM     22  C   UNL     1      44.674   5.125  11.343  0.00  0.00    +0.000 A 
ATOM     23  C   UNL     1      43.874   4.452  12.256  0.00  0.00    +0.000 A 
ATOM     24  S   UNL     1      43.448   2.876  11.760  0.00  0.00    +0.000 S 
ATOM     25  C   UNL     1      44.276   3.057  10.284  0.00  0.00    +0.000 A 
ATOM     26  N   UNL     1      44.288   2.057   9.361  0.00  0.00    +0.000 NA
ATOM     27  C   UNL     1      44.910   2.349   8.268  0.00  0.00    +0.000 A 
ATOM     28  N   UNL     1      45.530   3.545   8.017  0.00  0.00    +0.000 N 
ATOM     29  C   UNL     1      45.610   4.551   8.948  0.00  0.00    +0.000 A 
ATOM     30  O   UNL     1      46.287   5.552   8.737  0.00  0.00    +0.000 OA
ATOM     31  C   UNL     1      44.886   4.294  10.180  0.00  0.00    +0.000 A 
ATOM     32  H   UNL     1      46.024   3.701   7.151  0.00  0.00    +0.000 HD
ENDBRANCH  19  22
ENDBRANCH   1  20
TORSDOF 7
ENDMDL
MODEL 9
REMARK VINA RESULT:    -6.388      3.829      8.684
REMARK INTER + INTRA:         -10.147
REMARK INTER:                  -8.567
REMARK INTRA:                  -1.580
REMARK UNBOUND:                -1.144
REMARK  Name = 
REMARK  7 active torsions:
REMARK  status: ('A' for Active; 'I' for Inactive)
REMARK    1  A    between atoms: C_2  and  C_19
REMARK    2  A    between atoms: N_3  and  C_4
REMARK    3  A    between atoms: C_4  and  C_5
REMARK    4  A    between atoms: C_8  and  C_9
REMARK    5  A    between atoms: C_9  and  N_10
REMARK    6  A    between atoms: N_10  and  C_11
REMARK    7  A    between atoms: C_11  and  C_12
REMARK                            x       y       z     vdW  Elec       q    Type
REMARK                         _______ _______ _______ _____ _____    ______ ____
ROOT
ATOM      1  C   UNL     1      47.147   3.455  16.716  0.00  0.00    +0.000 C 
ENDROOT
BRANCH   1   2
ATOM      2  C   UNL     1      48.308   3.976  17.526  0.00  0.00    +0.000 A 
ATOM      3  C   UNL     1      49.577   3.413  17.369  0.00  0.00    +0.000 A 
ATOM      4  C   UNL     1      50.663   3.897  18.102  0.00  0.00    +0.000 A 
ATOM      5  C   UNL     1      50.503   4.954  19.009  0.00  0.00    +0.000 A 
ATOM      6  C   UNL     1      49.222   5.491  19.195  0.00  0.00    +0.000 A 
ATOM      7  C   UNL     1      48.133   5.002  18.463  0.00  0.00    +0.000 A 
BRANCH   5   8
ATOM      8  C   UNL     1      51.692   5.483  19.784  0.00  0.00    +0.000 C 
BRANCH   8   9
ATOM      9  N   UNL     1      52.586   6.246  18.912  0.00  0.00    +0.000 NA
ATOM     10  H   UNL     1      52.740   5.713  18.054  0.00  0.00    +0.000 HD
BRANCH   9  11
ATOM     11  C   UNL     1      52.032   7.565  18.573  0.00  0.00    +0.000 C 
BRANCH  11  12
ATOM     12  C   UNL     1      52.282   7.891  17.075  0.00  0.00    +0.000 C 
ATOM     13  C   UNL     1      51.926   6.749  16.138  0.00  0.00    +0.000 C 
ATOM     14  C   UNL     1      50.445   6.940  15.876  0.00  0.00    +0.000 C 
ATOM     15  C   UNL     1      50.210   8.434  16.053  0.00  0.00    +0.000 C 
ATOM     16  N   UNL     1      51.448   9.003  16.591  0.00  0.00    +0.000 NA
ATOM     17  H   UNL     1      51.246   9.621  17.382  0.00  0.00    +0.000 HD
ENDBRANCH  11  12
ENDBRANCH   9  11
ENDBRANCH   8   9
ENDBRANCH   5   8
ENDBRANCH   1   2
BRANCH   1  20
ATOM     18  O   UNL     1      47.246   3.152  13.910  0.00  0.00    +0.000 OA
ATOM     19  C   UNL     1      46.747   4.167  14.387  0.00  0.00    +0.000 C 
ATOM     20  N   UNL     1      46.720   4.418  15.734  0.00  0.00    +0.000 N 
ATOM     21  H   UNL     1      46.140   5.171  16.081  0.00  0.00    +0.000 HD
BRANCH  19  22
ATOM     22  C   UNL     1      46.193   5.224  13.529  0.00  0.00    +0.000 A 
ATOM     23  C   UNL     1      46.945   6.358  13.254  0.00  0.00    +0.000 A 
ATOM     24  S   UNL     1      46.132   7.498  12.279  0.00  0.00    +0.000 S 
ATOM     25  C   UNL     1      44.764   6.493  12.147  0.00  0.00    +0.000 A 
ATOM     26  N   UNL     1      43.685   6.871  11.411  0.00  0.00    +0.000 NA
ATOM     27  C   UNL     1      42.741   5.991  11.357  0.00  0.00    +0.000 A 
ATOM     28  N   UNL     1      42.774   4.771  11.980  0.00  0.00    +0.000 N 
ATOM     29  C   UNL     1      43.808   4.380  12.796  0.00  0.00    +0.000 A 
ATOM     30  O   UNL     1      43.740   3.340  13.442  0.00  0.00    +0.000 OA
ATOM     31  C   UNL     1      44.918   5.314  12.855  0.00  0.00    +0.000 A 
ATOM     32  H   UNL     1      41.991   4.138  11.921  0.00  0.00    +0.000 HD
ENDBRANCH  19  22
ENDBRANCH   1  20
TORSDOF 7
ENDMDL
