MODEL 1
REMARK VINA RESULT:    -7.347      0.000      0.000
REMARK INTER + INTRA:         -11.818
REMARK INTER:                 -10.783
REMARK INTRA:                  -1.035
REMARK UNBOUND:                -1.035
REMARK  Name = 
REMARK  10 active torsions:
REMARK  status: ('A' for Active; 'I' for Inactive)
REMARK    1  A    between atoms: C_1  and  O_2
REMARK    2  A    between atoms: O_2  and  C_3
REMARK    3  A    between atoms: C_10  and  C_11
REMARK    4  A    between atoms: N_13  and  C_14
REMARK    5  A    between atoms: C_14  and  C_15
REMARK    6  A    between atoms: C_18  and  N_19
REMARK    7  A    between atoms: N_19  and  C_20
REMARK    8  A    between atoms: C_20  and  C_21
REMARK    9  A    between atoms: C_21  and  N_22
REMARK   10  A    between atoms: N_25  and  C_26
REMARK                            x       y       z     vdW  Elec       q    Type
REMARK                         _______ _______ _______ _____ _____    ______ ____
ROOT
ATOM      1  C   UNL     1      47.072   6.292  12.875  0.00  0.00    +0.000 A 
ATOM      2  C   UNL     1      47.081   5.101  13.609  0.00  0.00    +0.000 A 
ATOM      3  C   UNL     1      46.281   4.020  13.222  0.00  0.00    +0.000 A 
ATOM      4  C   UNL     1      45.441   4.104  12.108  0.00  0.00    +0.000 A 
ATOM      5  C   UNL     1      45.557   5.234  11.292  0.00  0.00    +0.000 A 
ATOM      6  C   UNL     1      46.350   6.325  11.677  0.00  0.00    +0.000 A 
ENDROOT
BRANCH   4   7
ATOM      7  N   UNL     1      44.550   3.089  11.726  0.00  0.00    +0.000 N 
ATOM      8  H   UNL     1      43.816   2.944  12.421  0.00  0.00    +0.000 HD
BRANCH   7   9
ATOM      9  C   UNL     1      43.981   3.185  10.376  0.00  0.00    +0.000 C 
BRANCH   9  10
ATOM     10  C   UNL     1      44.511   2.058   9.460  0.00  0.00    +0.000 C 
BRANCH  10  11
ATOM     11  N   UNL     1      45.807   2.341   8.807  0.00  0.00    +0.000 NA
ATOM     12  C   UNL     1      46.293   1.218   7.984  0.00  0.00    +0.000 C 
ATOM     13  C   UNL     1      47.630   1.554   7.283  0.00  0.00    +0.000 C 
ATOM     14  N   UNL     1      47.609   2.772   6.452  0.00  0.00    +0.000 NA
ATOM     15  C   UNL     1      46.894   2.556   5.198  0.00  0.00    +0.000 C 
ATOM     16  C   UNL     1      47.028   3.882   7.235  0.00  0.00    +0.000 C 
ATOM     17  C   UNL     1      45.700   3.550   7.960  0.00  0.00    +0.000 C 
ENDBRANCH  10  11
ENDBRANCH   9  10
ENDBRANCH   7   9
ENDBRANCH   4   7
BRANCH   1  18
ATOM     18  C   UNL     1      47.801   7.509  13.384  0.00  0.00    +0.000 C 
BRANCH  18  21
ATOM     19  C   UNL     1      48.913   7.207  15.549  0.00  0.00    +0.000 C 
ATOM     20  O   UNL     1      49.938   6.811  15.000  0.00  0.00    +0.000 OA
ATOM     21  N   UNL     1      47.815   7.580  14.819  0.00  0.00    +0.000 N 
ATOM     22  H   UNL     1      46.978   7.908  15.280  0.00  0.00    +0.000 HD
BRANCH  19  30
ATOM     23  C   UNL     1      48.958   4.836  18.037  0.00  0.00    +0.000 A 
ATOM     24  N   UNL     1      49.021   4.134  19.185  0.00  0.00    +0.000 NA
ATOM     25  C   UNL     1      48.955   4.815  20.337  0.00  0.00    +0.000 A 
ATOM     26  N   UNL     1      48.813   6.129  20.485  0.00  0.00    +0.000 NA
ATOM     27  C   UNL     1      48.768   6.789  19.315  0.00  0.00    +0.000 A 
ATOM     28  S   UNL     1      48.572   8.474  19.307  0.00  0.00    +0.000 S 
ATOM     29  C   UNL     1      48.632   8.524  17.609  0.00  0.00    +0.000 A 
ATOM     30  C   UNL     1      48.809   7.279  17.016  0.00  0.00    +0.000 A 
ATOM     31  C   UNL     1      48.856   6.238  18.040  0.00  0.00    +0.000 A 
BRANCH  23  33
ATOM     32  C   UNL     1      48.707   2.761  16.980  0.00  0.00    +0.000 C 
ATOM     33  O   UNL     1      49.022   4.144  16.848  0.00  0.00    +0.000 OA
ENDBRANCH  23  33
ENDBRANCH  19  30
ENDBRANCH  18  21
ENDBRANCH   1  18
TORSDOF 8
ENDMDL
MODEL 2
REMARK VINA RESULT:    -6.940      3.540      5.783
REMARK INTER + INTRA:         -11.220
REMARK INTER:                 -10.008
REMARK INTRA:                  -1.212
REMARK UNBOUND:                -1.035
REMARK  Name = 
REMARK  10 active torsions:
REMARK  status: ('A' for Active; 'I' for Inactive)
REMARK    1  A    between atoms: C_1  and  O_2
REMARK    2  A    between atoms: O_2  and  C_3
REMARK    3  A    between atoms: C_10  and  C_11
REMARK    4  A    between atoms: N_13  and  C_14
REMARK    5  A    between atoms: C_14  and  C_15
REMARK    6  A    between atoms: C_18  and  N_19
REMARK    7  A    between atoms: N_19  and  C_20
REMARK    8  A    between atoms: C_20  and  C_21
REMARK    9  A    between atoms: C_21  and  N_22
REMARK   10  A    between atoms: N_25  and  C_26
REMARK                            x       y       z     vdW  Elec       q    Type
REMARK                         _______ _______ _______ _____ _____    ______ ____
ROOT
ATOM      1  C   UNL     1      48.091   4.238  16.766  0.00  0.00    +0.000 A 
ATOM      2  C   UNL     1      48.718   5.486  16.843  0.00  0.00    +0.000 A 
ATOM      3  C   UNL     1      48.641   6.389  15.776  0.00  0.00    +0.000 A 
ATOM      4  C   UNL     1      47.955   6.065  14.602  0.00  0.00    +0.000 A 
ATOM      5  C   UNL     1      47.201   4.888  14.597  0.00  0.00    +0.000 A 
ATOM      6  C   UNL     1      47.278   3.974  15.658  0.00  0.00    +0.000 A 
ENDROOT
BRANCH   4   7
ATOM      7  N   UNL     1      47.921   6.889  13.468  0.00  0.00    +0.000 N 
ATOM      8  H   UNL     1      48.854   7.207  13.198  0.00  0.00    +0.000 HD
BRANCH   7   9
ATOM      9  C   UNL     1      47.185   6.379  12.304  0.00  0.00    +0.000 C 
BRANCH   9  10
ATOM     10  C   UNL     1      45.868   7.157  12.086  0.00  0.00    +0.000 C 
BRANCH  10  11
ATOM     11  N   UNL     1      44.777   6.378  11.463  0.00  0.00    +0.000 NA
ATOM     12  C   UNL     1      45.260   5.178  10.754  0.00  0.00    +0.000 C 
ATOM     13  C   UNL     1      44.098   4.363  10.142  0.00  0.00    +0.000 C 
ATOM     14  N   UNL     1      43.052   3.955  11.099  0.00  0.00    +0.000 NA
ATOM     15  C   UNL     1      43.500   2.860  11.953  0.00  0.00    +0.000 C 
ATOM     16  C   UNL     1      42.632   5.132  11.887  0.00  0.00    +0.000 C 
ATOM     17  C   UNL     1      43.789   5.970  12.485  0.00  0.00    +0.000 C 
ENDBRANCH  10  11
ENDBRANCH   9  10
ENDBRANCH   7   9
ENDBRANCH   4   7
BRANCH   1  18
ATOM     18  C   UNL     1      48.312   3.204  17.840  0.00  0.00    +0.000 C 
BRANCH  18  21
ATOM     19  C   UNL     1      50.472   2.215  17.233  0.00  0.00    +0.000 C 
ATOM     20  O   UNL     1      49.999   1.737  16.206  0.00  0.00    +0.000 OA
ATOM     21  N   UNL     1      49.706   2.962  18.089  0.00  0.00    +0.000 N 
ATOM     22  H   UNL     1      50.107   3.355  18.929  0.00  0.00    +0.000 HD
BRANCH  19  30
ATOM     23  C   UNL     1      53.066   4.328  18.026  0.00  0.00    +0.000 A 
ATOM     24  N   UNL     1      54.205   4.915  18.438  0.00  0.00    +0.000 NA
ATOM     25  C   UNL     1      55.238   4.121  18.752  0.00  0.00    +0.000 A 
ATOM     26  N   UNL     1      55.278   2.794  18.687  0.00  0.00    +0.000 NA
ATOM     27  C   UNL     1      54.116   2.251  18.284  0.00  0.00    +0.000 A 
ATOM     28  S   UNL     1      53.985   0.567  18.125  0.00  0.00    +0.000 S 
ATOM     29  C   UNL     1      52.359   0.688  17.643  0.00  0.00    +0.000 A 
ATOM     30  C   UNL     1      51.881   1.993  17.602  0.00  0.00    +0.000 A 
ATOM     31  C   UNL     1      52.946   2.929  17.954  0.00  0.00    +0.000 A 
BRANCH  23  33
ATOM     32  C   UNL     1      52.312   6.107  16.703  0.00  0.00    +0.000 C 
ATOM     33  O   UNL     1      52.000   5.136  17.698  0.00  0.00    +0.000 OA
ENDBRANCH  23  33
ENDBRANCH  19  30
ENDBRANCH  18  21
ENDBRANCH   1  18
TORSDOF 8
ENDMDL
MODEL 3
REMARK VINA RESULT:    -6.715      3.838      8.475
REMARK INTER + INTRA:         -10.889
REMARK INTER:                  -9.364
REMARK INTRA:                  -1.526
REMARK UNBOUND:                -1.035
REMARK  Name = 
REMARK  10 active torsions:
REMARK  status: ('A' for Active; 'I' for Inactive)
REMARK    1  A    between atoms: C_1  and  O_2
REMARK    2  A    between atoms: O_2  and  C_3
REMARK    3  A    between atoms: C_10  and  C_11
REMARK    4  A    between atoms: N_13  and  C_14
REMARK    5  A    between atoms: C_14  and  C_15
REMARK    6  A    between atoms: C_18  and  N_19
REMARK    7  A    between atoms: N_19  and  C_20
REMARK    8  A    between atoms: C_20  and  C_21
REMARK    9  A    between atoms: C_21  and  N_22
REMARK   10  A    between atoms: N_25  and  C_26
REMARK                            x       y       z     vdW  Elec       q    Type
REMARK                         _______ _______ _______ _____ _____    ______ ____
ROOT
ATOM      1  C   UNL     1      48.541   3.484  17.550  0.00  0.00    +0.000 A 
ATOM      2  C   UNL     1      49.551   2.612  17.131  0.00  0.00    +0.000 A 
ATOM      3  C   UNL     1      50.884   2.836  17.498  0.00  0.00    +0.000 A 
ATOM      4  C   UNL     1      51.244   3.939  18.276  0.00  0.00    +0.000 A 
ATOM      5  C   UNL     1      50.213   4.712  18.821  0.00  0.00    +0.000 A 
ATOM      6  C   UNL     1      48.877   4.500  18.452  0.00  0.00    +0.000 A 
ENDROOT
BRANCH   4   7
ATOM      7  N   UNL     1      52.569   4.265  18.598  0.00  0.00    +0.000 N 
ATOM      8  H   UNL     1      53.230   3.570  18.246  0.00  0.00    +0.000 HD
BRANCH   7   9
ATOM      9  C   UNL     1      53.014   5.625  18.266  0.00  0.00    +0.000 C 
BRANCH   9  10
ATOM     10  C   UNL     1      52.994   5.866  16.740  0.00  0.00    +0.000 C 
BRANCH  10  11
ATOM     11  N   UNL     1      52.377   7.141  16.317  0.00  0.00    +0.000 NA
ATOM     12  C   UNL     1      53.081   7.773  15.184  0.00  0.00    +0.000 C 
ATOM     13  C   UNL     1      52.395   9.085  14.739  0.00  0.00    +0.000 C 
ATOM     14  N   UNL     1      50.967   8.955  14.392  0.00  0.00    +0.000 NA
ATOM     15  C   UNL     1      50.784   8.305  13.098  0.00  0.00    +0.000 C 
ATOM     16  C   UNL     1      50.270   8.232  15.476  0.00  0.00    +0.000 C 
ATOM     17  C   UNL     1      50.961   6.928  15.947  0.00  0.00    +0.000 C 
ENDBRANCH  10  11
ENDBRANCH   9  10
ENDBRANCH   7   9
ENDBRANCH   4   7
BRANCH   1  18
ATOM     18  C   UNL     1      47.138   3.342  17.019  0.00  0.00    +0.000 C 
BRANCH  18  21
ATOM     19  C   UNL     1      46.980   4.159  14.712  0.00  0.00    +0.000 C 
ATOM     20  O   UNL     1      47.406   3.093  14.274  0.00  0.00    +0.000 OA
ATOM     21  N   UNL     1      46.810   4.357  16.056  0.00  0.00    +0.000 N 
ATOM     22  H   UNL     1      46.454   5.236  16.405  0.00  0.00    +0.000 HD
BRANCH  19  30
ATOM     23  C   UNL     1      44.299   4.839  12.671  0.00  0.00    +0.000 A 
ATOM     24  N   UNL     1      43.357   5.373  11.871  0.00  0.00    +0.000 NA
ATOM     25  C   UNL     1      43.595   6.584  11.349  0.00  0.00    +0.000 A 
ATOM     26  N   UNL     1      44.683   7.329  11.517  0.00  0.00    +0.000 NA
ATOM     27  C   UNL     1      45.589   6.763  12.332  0.00  0.00    +0.000 A 
ATOM     28  S   UNL     1      47.051   7.564  12.650  0.00  0.00    +0.000 S 
ATOM     29  C   UNL     1      47.569   6.315  13.680  0.00  0.00    +0.000 A 
ATOM     30  C   UNL     1      46.652   5.279  13.813  0.00  0.00    +0.000 A 
ATOM     31  C   UNL     1      45.482   5.535  12.978  0.00  0.00    +0.000 A 
BRANCH  23  33
ATOM     32  C   UNL     1      43.528   2.664  12.272  0.00  0.00    +0.000 C 
ATOM     33  O   UNL     1      44.064   3.593  13.210  0.00  0.00    +0.000 OA
ENDBRANCH  23  33
ENDBRANCH  19  30
ENDBRANCH  18  21
ENDBRANCH   1  18
TORSDOF 8
ENDMDL
MODEL 4
REMARK VINA RESULT:    -6.512      3.785      9.134
REMARK INTER + INTRA:         -10.591
REMARK INTER:                  -9.088
REMARK INTRA:                  -1.503
REMARK UNBOUND:                -1.035
REMARK  Name = 
REMARK  10 active torsions:
REMARK  status: ('A' for Active; 'I' for Inactive)
REMARK    1  A    between atoms: C_1  and  O_2
REMARK    2  A    between atoms: O_2  and  C_3
REMARK    3  A    between atoms: C_10  and  C_11
REMARK    4  A    between atoms: N_13  and  C_14
REMARK    5  A    between atoms: C_14  and  C_15
REMARK    6  A    between atoms: C_18  and  N_19
REMARK    7  A    between atoms: N_19  and  C_20
REMARK    8  A    between atoms: C_20  and  C_21
REMARK    9  A    between atoms: C_21  and  N_22
REMARK   10  A    between atoms: N_25  and  C_26
REMARK                            x       y       z     vdW  Elec       q    Type
REMARK                         _______ _______ _______ _____ _____    ______ ____
ROOT
ATOM      1  C   UNL     1      48.411   3.633  17.684  0.00  0.00    +0.000 A 
ATOM      2  C   UNL     1      49.612   3.113  17.192  0.00  0.00    +0.000 A 
ATOM      3  C   UNL     1      50.837   3.488  17.759  0.00  0.00    +0.000 A 
ATOM      4  C   UNL     1      50.895   4.400  18.816  0.00  0.00    +0.000 A 
ATOM      5  C   UNL     1      49.687   4.789  19.403  0.00  0.00    +0.000 A 
ATOM      6  C   UNL     1      48.457   4.425  18.837  0.00  0.00    +0.000 A 
ENDROOT
BRANCH   4   7
ATOM      7  N   UNL     1      52.094   4.882  19.363  0.00  0.00    +0.000 N 
ATOM      8  H   UNL     1      52.900   4.333  19.060  0.00  0.00    +0.000 HD
BRANCH   7   9
ATOM      9  C   UNL     1      52.354   6.319  19.217  0.00  0.00    +0.000 C 
BRANCH   9  10
ATOM     10  C   UNL     1      52.086   6.796  17.771  0.00  0.00    +0.000 C 
BRANCH  10  11
ATOM     11  N   UNL     1      51.066   7.857  17.642  0.00  0.00    +0.000 NA
ATOM     12  C   UNL     1      49.868   7.416  16.904  0.00  0.00    +0.000 C 
ATOM     13  C   UNL     1      48.803   8.533  16.814  0.00  0.00    +0.000 C 
ATOM     14  N   UNL     1      48.377   9.094  18.111  0.00  0.00    +0.000 NA
ATOM     15  C   UNL     1      47.498   8.178  18.831  0.00  0.00    +0.000 C 
ATOM     16  C   UNL     1      49.574   9.445  18.902  0.00  0.00    +0.000 C 
ATOM     17  C   UNL     1      50.659   8.342  18.979  0.00  0.00    +0.000 C 
ENDBRANCH  10  11
ENDBRANCH   9  10
ENDBRANCH   7   9
ENDBRANCH   4   7
BRANCH   1  18
ATOM     18  C   UNL     1      47.111   3.364  16.970  0.00  0.00    +0.000 C 
BRANCH  18  21
ATOM     19  C   UNL     1      46.931   4.172  14.662  0.00  0.00    +0.000 C 
ATOM     20  O   UNL     1      47.319   3.092  14.223  0.00  0.00    +0.000 OA
ATOM     21  N   UNL     1      46.793   4.383  16.009  0.00  0.00    +0.000 N 
ATOM     22  H   UNL     1      46.468   5.273  16.359  0.00  0.00    +0.000 HD
BRANCH  19  30
ATOM     23  C   UNL     1      44.191   4.962  12.744  0.00  0.00    +0.000 A 
ATOM     24  N   UNL     1      43.239   5.534  11.982  0.00  0.00    +0.000 NA
ATOM     25  C   UNL     1      43.512   6.724  11.431  0.00  0.00    +0.000 A 
ATOM     26  N   UNL     1      44.643   7.415  11.534  0.00  0.00    +0.000 NA
ATOM     27  C   UNL     1      45.559   6.813  12.313  0.00  0.00    +0.000 A 
ATOM     28  S   UNL     1      47.073   7.542  12.546  0.00  0.00    +0.000 S 
ATOM     29  C   UNL     1      47.578   6.281  13.569  0.00  0.00    +0.000 A 
ATOM     30  C   UNL     1      46.616   5.295  13.763  0.00  0.00    +0.000 A 
ATOM     31  C   UNL     1      45.421   5.601  12.982  0.00  0.00    +0.000 A 
BRANCH  23  33
ATOM     32  C   UNL     1      43.610   2.727  12.358  0.00  0.00    +0.000 C 
ATOM     33  O   UNL     1      43.920   3.737  13.313  0.00  0.00    +0.000 OA
ENDBRANCH  23  33
ENDBRANCH  19  30
ENDBRANCH  18  21
ENDBRANCH   1  18
TORSDOF 8
ENDMDL
MODEL 5
REMARK VINA RESULT:    -6.374      1.831      2.144
REMARK INTER + INTRA:         -10.390
REMARK INTER:                  -9.247
REMARK INTRA:                  -1.142
REMARK UNBOUND:                -1.035
REMARK  Name = 
REMARK  10 active torsions:
REMARK  status: ('A' for Active; 'I' for Inactive)
REMARK    1  A    between atoms: C_1  and  O_2
REMARK    2  A    between atoms: O_2  and  C_3
REMARK    3  A    between atoms: C_10  and  C_11
REMARK    4  A    between atoms: N_13  and  C_14
REMARK    5  A    between atoms: C_14  and  C_15
REMARK    6  A    between atoms: C_18  and  N_19
REMARK    7  A    between atoms: N_19  and  C_20
REMARK    8  A    between atoms: C_20  and  C_21
REMARK    9  A    between atoms: C_21  and  N_22
REMARK   10  A    between atoms: N_25  and  C_26
REMARK                            x       y       z     vdW  Elec       q    Type
REMARK                         _______ _______ _______ _____ _____    ______ ____
ROOT
ATOM      1  C   UNL     1      46.623   6.830  12.626  0.00  0.00    +0.000 A 
ATOM      2  C   UNL     1      45.572   7.183  11.773  0.00  0.00    +0.000 A 
ATOM      3  C   UNL     1      44.547   6.273  11.490  0.00  0.00    +0.000 A 
ATOM      4  C   UNL     1      44.552   4.986  12.035  0.00  0.00    +0.000 A 
ATOM      5  C   UNL     1      45.515   4.698  13.008  0.00  0.00    +0.000 A 
ATOM      6  C   UNL     1      46.550   5.601  13.291  0.00  0.00    +0.000 A 
ENDROOT
BRANCH   4   7
ATOM      7  N   UNL     1      43.604   4.002  11.717  0.00  0.00    +0.000 N 
ATOM      8  H   UNL     1      42.817   4.385  11.191  0.00  0.00    +0.000 HD
BRANCH   7   9
ATOM      9  C   UNL     1      44.110   2.778  11.084  0.00  0.00    +0.000 C 
BRANCH   9  10
ATOM     10  C   UNL     1      44.150   2.916   9.545  0.00  0.00    +0.000 C 
BRANCH  10  11
ATOM     11  N   UNL     1      45.499   2.856   8.946  0.00  0.00    +0.000 NA
ATOM     12  C   UNL     1      45.759   1.589   8.237  0.00  0.00    +0.000 C 
ATOM     13  C   UNL     1      47.163   1.567   7.590  0.00  0.00    +0.000 C 
ATOM     14  N   UNL     1      47.442   2.686   6.671  0.00  0.00    +0.000 NA
ATOM     15  C   UNL     1      46.746   2.525   5.398  0.00  0.00    +0.000 C 
ATOM     16  C   UNL     1      47.089   3.958   7.335  0.00  0.00    +0.000 C 
ATOM     17  C   UNL     1      45.694   3.983   8.008  0.00  0.00    +0.000 C 
ENDBRANCH  10  11
ENDBRANCH   9  10
ENDBRANCH   7   9
ENDBRANCH   4   7
BRANCH   1  18
ATOM     18  C   UNL     1      47.809   7.744  12.797  0.00  0.00    +0.000 C 
BRANCH  18  21
ATOM     19  C   UNL     1      49.180   7.848  14.828  0.00  0.00    +0.000 C 
ATOM     20  O   UNL     1      48.677   8.921  15.149  0.00  0.00    +0.000 OA
ATOM     21  N   UNL     1      48.799   7.197  13.684  0.00  0.00    +0.000 N 
ATOM     22  H   UNL     1      49.216   6.312  13.433  0.00  0.00    +0.000 HD
BRANCH  19  30
ATOM     23  C   UNL     1      49.247   5.083  16.869  0.00  0.00    +0.000 A 
ATOM     24  N   UNL     1      49.559   4.030  17.648  0.00  0.00    +0.000 NA
ATOM     25  C   UNL     1      50.826   3.921  18.072  0.00  0.00    +0.000 A 
ATOM     26  N   UNL     1      51.829   4.758  17.825  0.00  0.00    +0.000 NA
ATOM     27  C   UNL     1      51.474   5.787  17.035  0.00  0.00    +0.000 A 
ATOM     28  S   UNL     1      52.622   6.967  16.626  0.00  0.00    +0.000 S 
ATOM     29  C   UNL     1      51.489   7.813  15.682  0.00  0.00    +0.000 A 
ATOM     30  C   UNL     1      50.232   7.221  15.647  0.00  0.00    +0.000 A 
ATOM     31  C   UNL     1      50.218   6.025  16.486  0.00  0.00    +0.000 A 
BRANCH  23  33
ATOM     32  C   UNL     1      47.159   4.041  16.668  0.00  0.00    +0.000 C 
ATOM     33  O   UNL     1      47.947   5.204  16.431  0.00  0.00    +0.000 OA
ENDBRANCH  23  33
ENDBRANCH  19  30
ENDBRANCH  18  21
ENDBRANCH   1  18
TORSDOF 8
ENDMDL
MODEL 6
REMARK VINA RESULT:    -6.286      4.011      9.524
REMARK INTER + INTRA:         -10.260
REMARK INTER:                  -9.154
REMARK INTRA:                  -1.106
REMARK UNBOUND:                -1.035
REMARK  Name = 
REMARK  10 active torsions:
REMARK  status: ('A' for Active; 'I' for Inactive)
REMARK    1  A    between atoms: C_1  and  O_2
REMARK    2  A    between atoms: O_2  and  C_3
REMARK    3  A    between atoms: C_10  and  C_11
REMARK    4  A    between atoms: N_13  and  C_14
REMARK    5  A    between atoms: C_14  and  C_15
REMARK    6  A    between atoms: C_18  and  N_19
REMARK    7  A    between atoms: N_19  and  C_20
REMARK    8  A    between atoms: C_20  and  C_21
REMARK    9  A    between atoms: C_21  and  N_22
REMARK   10  A    between atoms: N_25  and  C_26
REMARK                            x       y       z     vdW  Elec       q    Type
REMARK                         _______ _______ _______ _____ _____    ______ ____
ROOT
ATOM      1  C   UNL     1      48.463   3.775  17.706  0.00  0.00    +0.000 A 
ATOM      2  C   UNL     1      49.691   3.196  17.373  0.00  0.00    +0.000 A 
ATOM      3  C   UNL     1      50.871   3.618  17.999  0.00  0.00    +0.000 A 
ATOM      4  C   UNL     1      50.857   4.636  18.957  0.00  0.00    +0.000 A 
ATOM      5  C   UNL     1      49.611   5.095  19.397  0.00  0.00    +0.000 A 
ATOM      6  C   UNL     1      48.426   4.683  18.770  0.00  0.00    +0.000 A 
ENDROOT
BRANCH   4   7
ATOM      7  N   UNL     1      52.014   5.162  19.550  0.00  0.00    +0.000 N 
ATOM      8  H   UNL     1      52.314   4.613  20.357  0.00  0.00    +0.000 HD
BRANCH   7   9
ATOM      9  C   UNL     1      53.146   5.438  18.656  0.00  0.00    +0.000 C 
BRANCH   9  10
ATOM     10  C   UNL     1      54.485   5.004  19.294  0.00  0.00    +0.000 C 
BRANCH  10  11
ATOM     11  N   UNL     1      54.969   3.668  18.884  0.00  0.00    +0.000 NA
ATOM     12  C   UNL     1      54.433   2.580  19.724  0.00  0.00    +0.000 C 
ATOM     13  C   UNL     1      54.925   1.193  19.252  0.00  0.00    +0.000 C 
ATOM     14  N   UNL     1      54.642   0.879  17.839  0.00  0.00    +0.000 NA
ATOM     15  C   UNL     1      53.233   0.559  17.630  0.00  0.00    +0.000 C 
ATOM     16  C   UNL     1      55.082   2.008  16.995  0.00  0.00    +0.000 C 
ATOM     17  C   UNL     1      54.615   3.406  17.471  0.00  0.00    +0.000 C 
ENDBRANCH  10  11
ENDBRANCH   9  10
ENDBRANCH   7   9
ENDBRANCH   4   7
BRANCH   1  18
ATOM     18  C   UNL     1      47.222   3.443  16.917  0.00  0.00    +0.000 C 
BRANCH  18  21
ATOM     19  C   UNL     1      46.986   4.183  14.591  0.00  0.00    +0.000 C 
ATOM     20  O   UNL     1      47.303   3.072  14.174  0.00  0.00    +0.000 OA
ATOM     21  N   UNL     1      46.913   4.444  15.934  0.00  0.00    +0.000 N 
ATOM     22  H   UNL     1      46.646   5.361  16.265  0.00  0.00    +0.000 HD
BRANCH  19  30
ATOM     23  C   UNL     1      44.237   5.001  12.696  0.00  0.00    +0.000 A 
ATOM     24  N   UNL     1      43.289   5.579  11.934  0.00  0.00    +0.000 NA
ATOM     25  C   UNL     1      43.587   6.746  11.346  0.00  0.00    +0.000 A 
ATOM     26  N   UNL     1      44.740   7.406  11.412  0.00  0.00    +0.000 NA
ATOM     27  C   UNL     1      45.650   6.799  12.192  0.00  0.00    +0.000 A 
ATOM     28  S   UNL     1      47.189   7.489  12.381  0.00  0.00    +0.000 S 
ATOM     29  C   UNL     1      47.674   6.242  13.431  0.00  0.00    +0.000 A 
ATOM     30  C   UNL     1      46.688   5.291  13.666  0.00  0.00    +0.000 A 
ATOM     31  C   UNL     1      45.489   5.609  12.896  0.00  0.00    +0.000 A 
BRANCH  23  33
ATOM     32  C   UNL     1      43.627   2.763  12.379  0.00  0.00    +0.000 C 
ATOM     33  O   UNL     1      43.941   3.801  13.303  0.00  0.00    +0.000 OA
ENDBRANCH  23  33
ENDBRANCH  19  30
ENDBRANCH  18  21
ENDBRANCH   1  18
TORSDOF 8
ENDMDL
MODEL 7
REMARK VINA RESULT:    -6.204      3.042      8.836
REMARK INTER + INTRA:         -10.139
REMARK INTER:                  -8.882
REMARK INTRA:                  -1.258
REMARK UNBOUND:                -1.035
REMARK  Name = 
REMARK  10 active torsions:
REMARK  status: ('A' for Active; 'I' for Inactive)
REMARK    1  A    between atoms: C_1  and  O_2
REMARK    2  A    between atoms: O_2  and  C_3
REMARK    3  A    between atoms: C_10  and  C_11
REMARK    4  A    between atoms: N_13  and  C_14
REMARK    5  A    between atoms: C_14  and  C_15
REMARK    6  A    between atoms: C_18  and  N_19
REMARK    7  A    between atoms: N_19  and  C_20
REMARK    8  A    between atoms: C_20  and  C_21
REMARK    9  A    between atoms: C_21  and  N_22
REMARK   10  A    between atoms: N_25  and  C_26
REMARK                            x       y       z     vdW  Elec       q    Type
REMARK                         _______ _______ _______ _____ _____    ______ ____
ROOT
ATOM      1  C   UNL     1      48.999   7.883  12.792  0.00  0.00    +0.000 A 
ATOM      2  C   UNL     1      48.444   7.583  14.041  0.00  0.00    +0.000 A 
ATOM      3  C   UNL     1      49.250   7.525  15.184  0.00  0.00    +0.000 A 
ATOM      4  C   UNL     1      50.628   7.746  15.110  0.00  0.00    +0.000 A 
ATOM      5  C   UNL     1      51.146   8.200  13.892  0.00  0.00    +0.000 A 
ATOM      6  C   UNL     1      50.348   8.254  12.741  0.00  0.00    +0.000 A 
ENDROOT
BRANCH   4   7
ATOM      7  N   UNL     1      51.498   7.612  16.201  0.00  0.00    +0.000 N 
ATOM      8  H   UNL     1      51.287   8.282  16.943  0.00  0.00    +0.000 HD
BRANCH   7   9
ATOM      9  C   UNL     1      51.664   6.260  16.750  0.00  0.00    +0.000 C 
BRANCH   9  10
ATOM     10  C   UNL     1      51.100   6.162  18.185  0.00  0.00    +0.000 C 
BRANCH  10  11
ATOM     11  N   UNL     1      49.923   5.280  18.336  0.00  0.00    +0.000 NA
ATOM     12  C   UNL     1      48.646   5.979  18.096  0.00  0.00    +0.000 C 
ATOM     13  C   UNL     1      47.435   5.026  18.224  0.00  0.00    +0.000 C 
ATOM     14  N   UNL     1      47.488   3.833  17.359  0.00  0.00    +0.000 NA
ATOM     15  C   UNL     1      47.204   4.163  15.966  0.00  0.00    +0.000 C 
ATOM     16  C   UNL     1      48.804   3.180  17.514  0.00  0.00    +0.000 C 
ATOM     17  C   UNL     1      50.024   4.129  17.412  0.00  0.00    +0.000 C 
ENDBRANCH  10  11
ENDBRANCH   9  10
ENDBRANCH   7   9
ENDBRANCH   4   7
BRANCH   1  18
ATOM     18  C   UNL     1      48.167   7.781  11.540  0.00  0.00    +0.000 C 
BRANCH  18  21
ATOM     19  C   UNL     1      45.906   6.834  11.633  0.00  0.00    +0.000 C 
ATOM     20  O   UNL     1      45.405   7.955  11.645  0.00  0.00    +0.000 OA
ATOM     21  N   UNL     1      47.264   6.663  11.572  0.00  0.00    +0.000 N 
ATOM     22  H   UNL     1      47.665   5.736  11.557  0.00  0.00    +0.000 HD
BRANCH  19  30
ATOM     23  C   UNL     1      45.293   4.263   9.436  0.00  0.00    +0.000 A 
ATOM     24  N   UNL     1      44.948   3.122   8.808  0.00  0.00    +0.000 NA
ATOM     25  C   UNL     1      44.151   2.267   9.463  0.00  0.00    +0.000 A 
ATOM     26  N   UNL     1      43.634   2.422  10.678  0.00  0.00    +0.000 NA
ATOM     27  C   UNL     1      44.015   3.568  11.269  0.00  0.00    +0.000 A 
ATOM     28  S   UNL     1      43.438   3.945  12.820  0.00  0.00    +0.000 S 
ATOM     29  C   UNL     1      44.321   5.397  12.850  0.00  0.00    +0.000 A 
ATOM     30  C   UNL     1      45.072   5.622  11.702  0.00  0.00    +0.000 A 
ATOM     31  C   UNL     1      44.860   4.540  10.744  0.00  0.00    +0.000 A 
BRANCH  23  33
ATOM     32  C   UNL     1      46.739   4.586   7.622  0.00  0.00    +0.000 C 
ATOM     33  O   UNL     1      46.110   5.149   8.769  0.00  0.00    +0.000 OA
ENDBRANCH  23  33
ENDBRANCH  19  30
ENDBRANCH  18  21
ENDBRANCH   1  18
TORSDOF 8
ENDMDL
MODEL 8
REMARK VINA RESULT:    -6.065      2.940      4.595
REMARK INTER + INTRA:          -9.936
REMARK INTER:                  -8.556
REMARK INTRA:                  -1.381
REMARK UNBOUND:                -1.035
REMARK  Name = 
REMARK  10 active torsions:
REMARK  status: ('A' for Active; 'I' for Inactive)
REMARK    1  A    between atoms: C_1  and  O_2
REMARK    2  A    between atoms: O_2  and  C_3
REMARK    3  A    between atoms: C_10  and  C_11
REMARK    4  A    between atoms: N_13  and  C_14
REMARK    5  A    between atoms: C_14  and  C_15
REMARK    6  A    between atoms: C_18  and  N_19
REMARK    7  A    between atoms: N_19  and  C_20
REMARK    8  A    between atoms: C_20  and  C_21
REMARK    9  A    between atoms: C_21  and  N_22
REMARK   10  A    between atoms: N_25  and  C_26
REMARK                            x       y       z     vdW  Elec       q    Type
REMARK                         _______ _______ _______ _____ _____    ______ ____
ROOT
ATOM      1  C   UNL     1      49.941   8.526  13.601  0.00  0.00    +0.000 A 
ATOM      2  C   UNL     1      49.578   7.819  12.450  0.00  0.00    +0.000 A 
ATOM      3  C   UNL     1      48.431   8.171  11.729  0.00  0.00    +0.000 A 
ATOM      4  C   UNL     1      47.609   9.222  12.145  0.00  0.00    +0.000 A 
ATOM      5  C   UNL     1      48.064  10.021  13.199  0.00  0.00    +0.000 A 
ATOM      6  C   UNL     1      49.207   9.671  13.932  0.00  0.00    +0.000 A 
ENDROOT
BRANCH   4   7
ATOM      7  N   UNL     1      46.401   9.562  11.518  0.00  0.00    +0.000 N 
ATOM      8  H   UNL     1      46.408   9.326  10.524  0.00  0.00    +0.000 HD
BRANCH   7   9
ATOM      9  C   UNL     1      45.169   9.087  12.160  0.00  0.00    +0.000 C 
BRANCH   9  10
ATOM     10  C   UNL     1      45.271   7.592  12.537  0.00  0.00    +0.000 C 
BRANCH  10  11
ATOM     11  N   UNL     1      44.420   6.686  11.737  0.00  0.00    +0.000 NA
ATOM     12  C   UNL     1      45.197   5.680  10.988  0.00  0.00    +0.000 C 
ATOM     13  C   UNL     1      44.282   4.723  10.189  0.00  0.00    +0.000 C 
ATOM     14  N   UNL     1      43.258   4.026  10.991  0.00  0.00    +0.000 NA
ATOM     15  C   UNL     1      43.839   2.956  11.795  0.00  0.00    +0.000 C 
ATOM     16  C   UNL     1      42.541   5.013  11.823  0.00  0.00    +0.000 C 
ATOM     17  C   UNL     1      43.447   5.993  12.610  0.00  0.00    +0.000 C 
ENDBRANCH  10  11
ENDBRANCH   9  10
ENDBRANCH   7   9
ENDBRANCH   4   7
BRANCH   1  18
ATOM     18  C   UNL     1      51.075   8.046  14.468  0.00  0.00    +0.000 C 
BRANCH  18  21
ATOM     19  C   UNL     1      50.215   7.339  16.654  0.00  0.00    +0.000 C 
ATOM     20  O   UNL     1      50.132   8.505  17.031  0.00  0.00    +0.000 OA
ATOM     21  N   UNL     1      50.663   7.029  15.397  0.00  0.00    +0.000 N 
ATOM     22  H   UNL     1      50.722   6.067  15.095  0.00  0.00    +0.000 HD
BRANCH  19  30
ATOM     23  C   UNL     1      48.086   4.661  16.329  0.00  0.00    +0.000 A 
ATOM     24  N   UNL     1      47.396   3.508  16.430  0.00  0.00    +0.000 NA
ATOM     25  C   UNL     1      47.543   2.789  17.550  0.00  0.00    +0.000 A 
ATOM     26  N   UNL     1      48.292   3.093  18.606  0.00  0.00    +0.000 NA
ATOM     27  C   UNL     1      48.971   4.244  18.456  0.00  0.00    +0.000 A 
ATOM     28  S   UNL     1      49.967   4.802  19.711  0.00  0.00    +0.000 S 
ATOM     29  C   UNL     1      50.431   6.164  18.806  0.00  0.00    +0.000 A 
ATOM     30  C   UNL     1      49.855   6.220  17.541  0.00  0.00    +0.000 A 
ATOM     31  C   UNL     1      48.955   5.086  17.349  0.00  0.00    +0.000 A 
BRANCH  23  33
ATOM     32  C   UNL     1      47.011   4.848  14.257  0.00  0.00    +0.000 C 
ATOM     33  O   UNL     1      47.938   5.408  15.182  0.00  0.00    +0.000 OA
ENDBRANCH  23  33
ENDBRANCH  19  30
ENDBRANCH  18  21
ENDBRANCH   1  18
TORSDOF 8
ENDMDL
MODEL 9
REMARK VINA RESULT:    -5.958      2.924      5.106
REMARK INTER + INTRA:          -9.779
REMARK INTER:                  -8.514
REMARK INTRA:                  -1.265
REMARK UNBOUND:                -1.035
REMARK  Name = 
REMARK  10 active torsions:
REMARK  status: ('A' for Active; 'I' for Inactive)
REMARK    1  A    between atoms: C_1  and  O_2
REMARK    2  A    between atoms: O_2  and  C_3
REMARK    3  A    between atoms: C_10  and  C_11
REMARK    4  A    between atoms: N_13  and  C_14
REMARK    5  A    between atoms: C_14  and  C_15
REMARK    6  A    between atoms: C_18  and  N_19
REMARK    7  A    between atoms: N_19  and  C_20
REMARK    8  A    between atoms: C_20  and  C_21
REMARK    9  A    between atoms: C_21  and  N_22
REMARK   10  A    between atoms: N_25  and  C_26
REMARK                            x       y       z     vdW  Elec       q    Type
REMARK                         _______ _______ _______ _____ _____    ______ ____
ROOT
ATOM      1  C   UNL     1      49.268   7.837  16.254  0.00  0.00    +0.000 A 
ATOM      2  C   UNL     1      48.519   8.976  15.943  0.00  0.00    +0.000 A 
ATOM      3  C   UNL     1      47.911   9.108  14.688  0.00  0.00    +0.000 A 
ATOM      4  C   UNL     1      48.049   8.120  13.710  0.00  0.00    +0.000 A 
ATOM      5  C   UNL     1      48.662   6.920  14.084  0.00  0.00    +0.000 A 
ATOM      6  C   UNL     1      49.280   6.782  15.335  0.00  0.00    +0.000 A 
ENDROOT
BRANCH   4   7
ATOM      7  N   UNL     1      47.542   8.237  12.408  0.00  0.00    +0.000 N 
ATOM      8  H   UNL     1      48.263   8.516  11.741  0.00  0.00    +0.000 HD
BRANCH   7   9
ATOM      9  C   UNL     1      46.767   7.100  11.896  0.00  0.00    +0.000 C 
BRANCH   9  10
ATOM     10  C   UNL     1      45.337   7.083  12.482  0.00  0.00    +0.000 C 
BRANCH  10  11
ATOM     11  N   UNL     1      44.680   5.759  12.489  0.00  0.00    +0.000 NA
ATOM     12  C   UNL     1      43.687   5.604  11.410  0.00  0.00    +0.000 C 
ATOM     13  C   UNL     1      43.041   4.199  11.418  0.00  0.00    +0.000 C 
ATOM     14  N   UNL     1      43.994   3.076  11.347  0.00  0.00    +0.000 NA
ATOM     15  C   UNL     1      44.545   2.921  10.004  0.00  0.00    +0.000 C 
ATOM     16  C   UNL     1      45.052   3.273  12.358  0.00  0.00    +0.000 C 
ATOM     17  C   UNL     1      45.690   4.685  12.375  0.00  0.00    +0.000 C 
ENDBRANCH  10  11
ENDBRANCH   9  10
ENDBRANCH   7   9
ENDBRANCH   4   7
BRANCH   1  18
ATOM     18  C   UNL     1      50.059   7.768  17.535  0.00  0.00    +0.000 C 
BRANCH  18  21
ATOM     19  C   UNL     1      51.247   6.104  18.890  0.00  0.00    +0.000 C 
ATOM     20  O   UNL     1      51.080   6.771  19.908  0.00  0.00    +0.000 OA
ATOM     21  N   UNL     1      50.764   6.524  17.679  0.00  0.00    +0.000 N 
ATOM     22  H   UNL     1      50.902   5.965  16.848  0.00  0.00    +0.000 HD
BRANCH  19  30
ATOM     23  C   UNL     1      50.725   3.030  17.443  0.00  0.00    +0.000 A 
ATOM     24  N   UNL     1      50.797   1.781  16.946  0.00  0.00    +0.000 NA
ATOM     25  C   UNL     1      51.857   1.034  17.285  0.00  0.00    +0.000 A 
ATOM     26  N   UNL     1      52.859   1.383  18.087  0.00  0.00    +0.000 NA
ATOM     27  C   UNL     1      52.752   2.640  18.548  0.00  0.00    +0.000 A 
ATOM     28  S   UNL     1      53.934   3.253  19.601  0.00  0.00    +0.000 S 
ATOM     29  C   UNL     1      53.148   4.758  19.687  0.00  0.00    +0.000 A 
ATOM     30  C   UNL     1      51.990   4.833  18.920  0.00  0.00    +0.000 A 
ATOM     31  C   UNL     1      51.739   3.551  18.267  0.00  0.00    +0.000 A 
BRANCH  23  33
ATOM     32  C   UNL     1      48.448   3.047  16.896  0.00  0.00    +0.000 C 
ATOM     33  O   UNL     1      49.637   3.803  17.102  0.00  0.00    +0.000 OA
ENDBRANCH  23  33
ENDBRANCH  19  30
ENDBRANCH  18  21
ENDBRANCH   1  18
TORSDOF 8
ENDMDL
