MODEL 1
REMARK VINA RESULT:    -7.619      0.000      0.000
REMARK INTER + INTRA:         -10.012
REMARK INTER:                  -9.623
REMARK INTRA:                  -0.389
REMARK UNBOUND:                -0.389
REMARK  Name = 
REMARK  6 active torsions:
REMARK  status: ('A' for Active; 'I' for Inactive)
REMARK    1  A    between atoms: C_1  and  N_2
REMARK    2  A    between atoms: C_5  and  C_6
REMARK    3  A    between atoms: C_6  and  N_7
REMARK    4  A    between atoms: N_7  and  C_8
REMARK    5  A    between atoms: C_11  and  C_12
REMARK    6  A    between atoms: C_16  and  N_17
REMARK                            x       y       z     vdW  Elec       q    Type
REMARK                         _______ _______ _______ _____ _____    ______ ____
ROOT
ATOM      1  C   UNL     1      45.090   4.158   9.213  0.00  0.00    +0.000 A 
ATOM      2  N   UNL     1      45.814   4.463   8.113  0.00  0.00    +0.000 NA
ATOM      3  C   UNL     1      46.395   3.412   7.457  0.00  0.00    +0.000 A 
ATOM      4  C   UNL     1      46.316   2.103   7.920  0.00  0.00    +0.000 A 
ATOM      5  N   UNL     1      45.576   1.762   8.999  0.00  0.00    +0.000 NA
ATOM      6  C   UNL     1      44.930   2.782   9.601  0.00  0.00    +0.000 A 
ENDROOT
BRANCH   4   7
ATOM      7  C   UNL     1      47.082   0.998   7.252  0.00  0.00    +0.000 C 
ATOM      8  N   UNL     1      46.749  -0.270   7.645  0.00  0.00    +0.000 N 
ATOM      9  O   UNL     1      47.961   1.220   6.438  0.00  0.00    +0.000 OA
ATOM     10  H   UNL     1      46.017  -0.413   8.338  0.00  0.00    +0.000 HD
ATOM     11  H   UNL     1      47.248  -1.061   7.271  0.00  0.00    +0.000 HD
ENDBRANCH   4   7
BRANCH   6  12
ATOM     12  N   UNL     1      44.011   2.379  10.566  0.00  0.00    +0.000 N 
ATOM     13  H   UNL     1      43.179   2.951  10.483  0.00  0.00    +0.000 HD
ATOM     14  H   UNL     1      43.833   1.389  10.613  0.00  0.00    +0.000 HD
ENDBRANCH   6  12
BRANCH   1  15
ATOM     15  N   UNL     1      44.410   5.155   9.939  0.00  0.00    +0.000 N 
ATOM     16  H   UNL     1      43.818   4.716  10.635  0.00  0.00    +0.000 HD
BRANCH  15  17
ATOM     17  C   UNL     1      45.145   6.283  10.520  0.00  0.00    +0.000 C 
BRANCH  17  22
ATOM     18  C   UNL     1      47.137   4.143  14.302  0.00  0.00    +0.000 C 
ATOM     19  N   UNL     1      46.066   5.089  13.968  0.00  0.00    +0.000 NA
ATOM     20  C   UNL     1      46.645   6.269  13.307  0.00  0.00    +0.000 C 
ATOM     21  C   UNL     1      45.578   7.262  12.849  0.00  0.00    +0.000 C 
ATOM     22  C   UNL     1      44.551   6.613  11.915  0.00  0.00    +0.000 C 
ATOM     23  C   UNL     1      43.968   5.387  12.644  0.00  0.00    +0.000 C 
ATOM     24  C   UNL     1      45.045   4.421  13.148  0.00  0.00    +0.000 C 
ENDBRANCH  17  22
ENDBRANCH  15  17
ENDBRANCH   1  15
TORSDOF 5
ENDMDL
MODEL 2
REMARK VINA RESULT:    -6.638      1.835      2.731
REMARK INTER + INTRA:          -8.773
REMARK INTER:                  -8.456
REMARK INTRA:                  -0.317
REMARK UNBOUND:                -0.389
REMARK  Name = 
REMARK  6 active torsions:
REMARK  status: ('A' for Active; 'I' for Inactive)
REMARK    1  A    between atoms: C_1  and  N_2
REMARK    2  A    between atoms: C_5  and  C_6
REMARK    3  A    between atoms: C_6  and  N_7
REMARK    4  A    between atoms: N_7  and  C_8
REMARK    5  A    between atoms: C_11  and  C_12
REMARK    6  A    between atoms: C_16  and  N_17
REMARK                            x       y       z     vdW  Elec       q    Type
REMARK                         _______ _______ _______ _____ _____    ______ ____
ROOT
ATOM      1  C   UNL     1      45.375   4.294   9.082  0.00  0.00    +0.000 A 
ATOM      2  N   UNL     1      46.104   4.680   8.010  0.00  0.00    +0.000 NA
ATOM      3  C   UNL     1      46.661   3.679   7.262  0.00  0.00    +0.000 A 
ATOM      4  C   UNL     1      46.553   2.336   7.607  0.00  0.00    +0.000 A 
ATOM      5  N   UNL     1      45.807   1.916   8.653  0.00  0.00    +0.000 NA
ATOM      6  C   UNL     1      45.185   2.892   9.346  0.00  0.00    +0.000 A 
ENDROOT
BRANCH   4   7
ATOM      7  C   UNL     1      47.294   1.279   6.841  0.00  0.00    +0.000 C 
ATOM      8  N   UNL     1      48.333   1.727   6.072  0.00  0.00    +0.000 N 
ATOM      9  O   UNL     1      46.970   0.104   6.879  0.00  0.00    +0.000 OA
ATOM     10  H   UNL     1      48.565   2.719   6.057  0.00  0.00    +0.000 HD
ATOM     11  H   UNL     1      48.851   1.082   5.498  0.00  0.00    +0.000 HD
ENDBRANCH   4   7
BRANCH   6  12
ATOM     12  N   UNL     1      44.258   2.426  10.274  0.00  0.00    +0.000 N 
ATOM     13  H   UNL     1      43.620   3.177  10.504  0.00  0.00    +0.000 HD
ATOM     14  H   UNL     1      43.809   1.554  10.043  0.00  0.00    +0.000 HD
ENDBRANCH   6  12
BRANCH   1  15
ATOM     15  N   UNL     1      44.717   5.237   9.896  0.00  0.00    +0.000 N 
ATOM     16  H   UNL     1      44.028   4.762  10.467  0.00  0.00    +0.000 HD
BRANCH  15  17
ATOM     17  C   UNL     1      45.489   6.190  10.700  0.00  0.00    +0.000 C 
BRANCH  17  22
ATOM     18  C   UNL     1      45.755  10.851  11.726  0.00  0.00    +0.000 C 
ATOM     19  N   UNL     1      45.065   9.631  12.162  0.00  0.00    +0.000 NA
ATOM     20  C   UNL     1      44.275   9.093  11.044  0.00  0.00    +0.000 C 
ATOM     21  C   UNL     1      43.595   7.770  11.395  0.00  0.00    +0.000 C 
ATOM     22  C   UNL     1      44.601   6.712  11.860  0.00  0.00    +0.000 C 
ATOM     23  C   UNL     1      45.403   7.313  13.030  0.00  0.00    +0.000 C 
ATOM     24  C   UNL     1      46.039   8.665  12.689  0.00  0.00    +0.000 C 
ENDBRANCH  17  22
ENDBRANCH  15  17
ENDBRANCH   1  15
TORSDOF 5
ENDMDL
MODEL 3
REMARK VINA RESULT:    -6.560      2.975      6.712
REMARK INTER + INTRA:          -8.675
REMARK INTER:                  -8.291
REMARK INTRA:                  -0.385
REMARK UNBOUND:                -0.389
REMARK  Name = 
REMARK  6 active torsions:
REMARK  status: ('A' for Active; 'I' for Inactive)
REMARK    1  A    between atoms: C_1  and  N_2
REMARK    2  A    between atoms: C_5  and  C_6
REMARK    3  A    between atoms: C_6  and  N_7
REMARK    4  A    between atoms: N_7  and  C_8
REMARK    5  A    between atoms: C_11  and  C_12
REMARK    6  A    between atoms: C_16  and  N_17
REMARK                            x       y       z     vdW  Elec       q    Type
REMARK                         _______ _______ _______ _____ _____    ______ ____
ROOT
ATOM      1  C   UNL     1      45.211   5.345  12.076  0.00  0.00    +0.000 A 
ATOM      2  N   UNL     1      46.310   5.175  12.845  0.00  0.00    +0.000 NA
ATOM      3  C   UNL     1      46.895   6.312  13.330  0.00  0.00    +0.000 A 
ATOM      4  C   UNL     1      46.442   7.587  13.004  0.00  0.00    +0.000 A 
ATOM      5  N   UNL     1      45.329   7.790  12.263  0.00  0.00    +0.000 NA
ATOM      6  C   UNL     1      44.698   6.671  11.853  0.00  0.00    +0.000 A 
ENDROOT
BRANCH   4   7
ATOM      7  C   UNL     1      47.193   8.810  13.441  0.00  0.00    +0.000 C 
ATOM      8  N   UNL     1      47.294   8.988  14.794  0.00  0.00    +0.000 N 
ATOM      9  O   UNL     1      47.655   9.607  12.642  0.00  0.00    +0.000 OA
ATOM     10  H   UNL     1      46.884   8.305  15.429  0.00  0.00    +0.000 HD
ATOM     11  H   UNL     1      47.749   9.807  15.163  0.00  0.00    +0.000 HD
ENDBRANCH   4   7
BRANCH   6  12
ATOM     12  N   UNL     1      43.449   6.903  11.284  0.00  0.00    +0.000 N 
ATOM     13  H   UNL     1      43.116   7.810  11.584  0.00  0.00    +0.000 HD
ATOM     14  H   UNL     1      43.384   6.743  10.291  0.00  0.00    +0.000 HD
ENDBRANCH   6  12
BRANCH   1  15
ATOM     15  N   UNL     1      44.501   4.243  11.562  0.00  0.00    +0.000 N 
ATOM     16  H   UNL     1      43.678   4.575  11.072  0.00  0.00    +0.000 HD
BRANCH  15  17
ATOM     17  C   UNL     1      45.192   3.214  10.779  0.00  0.00    +0.000 C 
BRANCH  17  22
ATOM     18  C   UNL     1      47.857   2.330   6.910  0.00  0.00    +0.000 C 
ATOM     19  N   UNL     1      46.453   2.489   7.309  0.00  0.00    +0.000 NA
ATOM     20  C   UNL     1      46.110   1.464   8.306  0.00  0.00    +0.000 C 
ATOM     21  C   UNL     1      44.685   1.621   8.836  0.00  0.00    +0.000 C 
ATOM     22  C   UNL     1      44.444   3.011   9.434  0.00  0.00    +0.000 C 
ATOM     23  C   UNL     1      44.811   4.051   8.360  0.00  0.00    +0.000 C 
ATOM     24  C   UNL     1      46.222   3.858   7.794  0.00  0.00    +0.000 C 
ENDBRANCH  17  22
ENDBRANCH  15  17
ENDBRANCH   1  15
TORSDOF 5
ENDMDL
MODEL 4
REMARK VINA RESULT:    -6.248      3.179      6.570
REMARK INTER + INTRA:          -8.280
REMARK INTER:                  -7.879
REMARK INTRA:                  -0.402
REMARK UNBOUND:                -0.389
REMARK  Name = 
REMARK  6 active torsions:
REMARK  status: ('A' for Active; 'I' for Inactive)
REMARK    1  A    between atoms: C_1  and  N_2
REMARK    2  A    between atoms: C_5  and  C_6
REMARK    3  A    between atoms: C_6  and  N_7
REMARK    4  A    between atoms: N_7  and  C_8
REMARK    5  A    between atoms: C_11  and  C_12
REMARK    6  A    between atoms: C_16  and  N_17
REMARK                            x       y       z     vdW  Elec       q    Type
REMARK                         _______ _______ _______ _____ _____    ______ ____
ROOT
ATOM      1  C   UNL     1      44.562   5.305  11.624  0.00  0.00    +0.000 A 
ATOM      2  N   UNL     1      45.703   6.016  11.773  0.00  0.00    +0.000 NA
ATOM      3  C   UNL     1      45.582   7.377  11.718  0.00  0.00    +0.000 A 
ATOM      4  C   UNL     1      44.374   8.013  11.454  0.00  0.00    +0.000 A 
ATOM      5  N   UNL     1      43.212   7.333  11.330  0.00  0.00    +0.000 NA
ATOM      6  C   UNL     1      43.309   5.995  11.469  0.00  0.00    +0.000 A 
ENDROOT
BRANCH   4   7
ATOM      7  C   UNL     1      44.307   9.501  11.263  0.00  0.00    +0.000 C 
ATOM      8  N   UNL     1      44.434  10.247  12.403  0.00  0.00    +0.000 N 
ATOM      9  O   UNL     1      44.122  10.006  10.169  0.00  0.00    +0.000 OA
ATOM     10  H   UNL     1      44.575   9.786  13.301  0.00  0.00    +0.000 HD
ATOM     11  H   UNL     1      44.359  11.250  12.360  0.00  0.00    +0.000 HD
ENDBRANCH   4   7
BRANCH   6  12
ATOM     12  N   UNL     1      42.082   5.344  11.555  0.00  0.00    +0.000 N 
ATOM     13  H   UNL     1      41.342   6.029  11.464  0.00  0.00    +0.000 HD
ATOM     14  H   UNL     1      41.975   4.534  10.965  0.00  0.00    +0.000 HD
ENDBRANCH   6  12
BRANCH   1  15
ATOM     15  N   UNL     1      44.561   3.899  11.709  0.00  0.00    +0.000 N 
ATOM     16  H   UNL     1      43.604   3.568  11.751  0.00  0.00    +0.000 HD
BRANCH  15  17
ATOM     17  C   UNL     1      45.347   3.097  10.767  0.00  0.00    +0.000 C 
BRANCH  17  22
ATOM     18  C   UNL     1      47.842   2.361   6.756  0.00  0.00    +0.000 C 
ATOM     19  N   UNL     1      46.456   2.490   7.222  0.00  0.00    +0.000 NA
ATOM     20  C   UNL     1      46.172   1.432   8.204  0.00  0.00    +0.000 C 
ATOM     21  C   UNL     1      44.771   1.555   8.803  0.00  0.00    +0.000 C 
ATOM     22  C   UNL     1      44.541   2.923   9.452  0.00  0.00    +0.000 C 
ATOM     23  C   UNL     1      44.846   3.999   8.393  0.00  0.00    +0.000 C 
ATOM     24  C   UNL     1      46.231   3.840   7.758  0.00  0.00    +0.000 C 
ENDBRANCH  17  22
ENDBRANCH  15  17
ENDBRANCH   1  15
TORSDOF 5
ENDMDL
MODEL 5
REMARK VINA RESULT:    -6.208      2.925      6.560
REMARK INTER + INTRA:          -8.231
REMARK INTER:                  -7.933
REMARK INTRA:                  -0.297
REMARK UNBOUND:                -0.389
REMARK  Name = 
REMARK  6 active torsions:
REMARK  status: ('A' for Active; 'I' for Inactive)
REMARK    1  A    between atoms: C_1  and  N_2
REMARK    2  A    between atoms: C_5  and  C_6
REMARK    3  A    between atoms: C_6  and  N_7
REMARK    4  A    between atoms: N_7  and  C_8
REMARK    5  A    between atoms: C_11  and  C_12
REMARK    6  A    between atoms: C_16  and  N_17
REMARK                            x       y       z     vdW  Elec       q    Type
REMARK                         _______ _______ _______ _____ _____    ______ ____
ROOT
ATOM      1  C   UNL     1      45.601   4.857  12.778  0.00  0.00    +0.000 A 
ATOM      2  N   UNL     1      45.467   6.113  12.295  0.00  0.00    +0.000 NA
ATOM      3  C   UNL     1      46.369   7.037  12.746  0.00  0.00    +0.000 A 
ATOM      4  C   UNL     1      47.336   6.738  13.701  0.00  0.00    +0.000 A 
ATOM      5  N   UNL     1      47.515   5.487  14.180  0.00  0.00    +0.000 NA
ATOM      6  C   UNL     1      46.684   4.552  13.676  0.00  0.00    +0.000 A 
ENDROOT
BRANCH   4   7
ATOM      7  C   UNL     1      48.216   7.810  14.272  0.00  0.00    +0.000 C 
ATOM      8  N   UNL     1      47.562   8.873  14.834  0.00  0.00    +0.000 N 
ATOM      9  O   UNL     1      49.433   7.751  14.212  0.00  0.00    +0.000 OA
ATOM     10  H   UNL     1      46.543   8.891  14.853  0.00  0.00    +0.000 HD
ATOM     11  H   UNL     1      48.085   9.651  15.202  0.00  0.00    +0.000 HD
ENDBRANCH   4   7
BRANCH   6  12
ATOM     12  N   UNL     1      47.026   3.246  14.016  0.00  0.00    +0.000 N 
ATOM     13  H   UNL     1      47.629   2.869  13.296  0.00  0.00    +0.000 HD
ATOM     14  H   UNL     1      47.367   3.114  14.955  0.00  0.00    +0.000 HD
ENDBRANCH   6  12
BRANCH   1  15
ATOM     15  N   UNL     1      44.757   3.815  12.348  0.00  0.00    +0.000 N 
ATOM     16  H   UNL     1      43.848   4.197  12.113  0.00  0.00    +0.000 HD
BRANCH  15  17
ATOM     17  C   UNL     1      45.205   2.873  11.318  0.00  0.00    +0.000 C 
BRANCH  17  22
ATOM     18  C   UNL     1      47.139   3.289   6.966  0.00  0.00    +0.000 C 
ATOM     19  N   UNL     1      45.829   3.189   7.620  0.00  0.00    +0.000 NA
ATOM     20  C   UNL     1      45.744   1.914   8.350  0.00  0.00    +0.000 C 
ATOM     21  C   UNL     1      44.438   1.776   9.132  0.00  0.00    +0.000 C 
ATOM     22  C   UNL     1      44.231   2.936  10.112  0.00  0.00    +0.000 C 
ATOM     23  C   UNL     1      44.323   4.247   9.310  0.00  0.00    +0.000 C 
ATOM     24  C   UNL     1      45.611   4.357   8.486  0.00  0.00    +0.000 C 
ENDBRANCH  17  22
ENDBRANCH  15  17
ENDBRANCH   1  15
TORSDOF 5
ENDMDL
MODEL 6
REMARK VINA RESULT:    -6.199      1.661      2.558
REMARK INTER + INTRA:          -8.219
REMARK INTER:                  -7.961
REMARK INTRA:                  -0.258
REMARK UNBOUND:                -0.389
REMARK  Name = 
REMARK  6 active torsions:
REMARK  status: ('A' for Active; 'I' for Inactive)
REMARK    1  A    between atoms: C_1  and  N_2
REMARK    2  A    between atoms: C_5  and  C_6
REMARK    3  A    between atoms: C_6  and  N_7
REMARK    4  A    between atoms: N_7  and  C_8
REMARK    5  A    between atoms: C_11  and  C_12
REMARK    6  A    between atoms: C_16  and  N_17
REMARK                            x       y       z     vdW  Elec       q    Type
REMARK                         _______ _______ _______ _____ _____    ______ ____
ROOT
ATOM      1  C   UNL     1      44.698   4.628  11.030  0.00  0.00    +0.000 A 
ATOM      2  N   UNL     1      45.282   5.355  10.051  0.00  0.00    +0.000 NA
ATOM      3  C   UNL     1      45.650   4.672   8.924  0.00  0.00    +0.000 A 
ATOM      4  C   UNL     1      45.504   3.294   8.800  0.00  0.00    +0.000 A 
ATOM      5  N   UNL     1      44.896   2.544   9.747  0.00  0.00    +0.000 NA
ATOM      6  C   UNL     1      44.454   3.224  10.824  0.00  0.00    +0.000 A 
ENDROOT
BRANCH   4   7
ATOM      7  C   UNL     1      46.046   2.562   7.607  0.00  0.00    +0.000 C 
ATOM      8  N   UNL     1      46.493   1.292   7.849  0.00  0.00    +0.000 N 
ATOM      9  O   UNL     1      46.111   3.079   6.504  0.00  0.00    +0.000 OA
ATOM     10  H   UNL     1      46.433   0.900   8.787  0.00  0.00    +0.000 HD
ATOM     11  H   UNL     1      46.908   0.753   7.106  0.00  0.00    +0.000 HD
ENDBRANCH   4   7
BRANCH   6  12
ATOM     12  N   UNL     1      43.647   2.474  11.675  0.00  0.00    +0.000 N 
ATOM     13  H   UNL     1      44.236   1.874  12.239  0.00  0.00    +0.000 HD
ATOM     14  H   UNL     1      42.961   2.994  12.199  0.00  0.00    +0.000 HD
ENDBRANCH   6  12
BRANCH   1  15
ATOM     15  N   UNL     1      44.237   5.235  12.214  0.00  0.00    +0.000 N 
ATOM     16  H   UNL     1      43.493   4.672  12.610  0.00  0.00    +0.000 HD
BRANCH  15  17
ATOM     17  C   UNL     1      45.184   5.648  13.254  0.00  0.00    +0.000 C 
BRANCH  17  22
ATOM     18  C   UNL     1      48.489   5.932  16.697  0.00  0.00    +0.000 C 
ATOM     19  N   UNL     1      48.307   5.405  15.339  0.00  0.00    +0.000 NA
ATOM     20  C   UNL     1      47.220   4.415  15.341  0.00  0.00    +0.000 C 
ATOM     21  C   UNL     1      46.913   3.884  13.941  0.00  0.00    +0.000 C 
ATOM     22  C   UNL     1      46.569   5.012  12.962  0.00  0.00    +0.000 C 
ATOM     23  C   UNL     1      47.731   6.022  12.987  0.00  0.00    +0.000 C 
ATOM     24  C   UNL     1      48.070   6.511  14.399  0.00  0.00    +0.000 C 
ENDBRANCH  17  22
ENDBRANCH  15  17
ENDBRANCH   1  15
TORSDOF 5
ENDMDL
MODEL 7
REMARK VINA RESULT:    -6.107      3.051      5.256
REMARK INTER + INTRA:          -8.103
REMARK INTER:                  -7.811
REMARK INTRA:                  -0.292
REMARK UNBOUND:                -0.389
REMARK  Name = 
REMARK  6 active torsions:
REMARK  status: ('A' for Active; 'I' for Inactive)
REMARK    1  A    between atoms: C_1  and  N_2
REMARK    2  A    between atoms: C_5  and  C_6
REMARK    3  A    between atoms: C_6  and  N_7
REMARK    4  A    between atoms: N_7  and  C_8
REMARK    5  A    between atoms: C_11  and  C_12
REMARK    6  A    between atoms: C_16  and  N_17
REMARK                            x       y       z     vdW  Elec       q    Type
REMARK                         _______ _______ _______ _____ _____    ______ ____
ROOT
ATOM      1  C   UNL     1      45.812   4.554  13.401  0.00  0.00    +0.000 A 
ATOM      2  N   UNL     1      45.545   3.390  12.766  0.00  0.00    +0.000 NA
ATOM      3  C   UNL     1      45.404   3.458  11.407  0.00  0.00    +0.000 A 
ATOM      4  C   UNL     1      45.458   4.658  10.706  0.00  0.00    +0.000 A 
ATOM      5  N   UNL     1      45.752   5.833  11.306  0.00  0.00    +0.000 NA
ATOM      6  C   UNL     1      45.978   5.760  12.634  0.00  0.00    +0.000 A 
ENDROOT
BRANCH   4   7
ATOM      7  C   UNL     1      45.159   4.709   9.236  0.00  0.00    +0.000 C 
ATOM      8  N   UNL     1      43.896   4.324   8.877  0.00  0.00    +0.000 N 
ATOM      9  O   UNL     1      45.997   5.043   8.415  0.00  0.00    +0.000 OA
ATOM     10  H   UNL     1      43.228   4.040   9.592  0.00  0.00    +0.000 HD
ATOM     11  H   UNL     1      43.634   4.294   7.905  0.00  0.00    +0.000 HD
ENDBRANCH   4   7
BRANCH   6  12
ATOM     12  N   UNL     1      46.488   6.932  13.186  0.00  0.00    +0.000 N 
ATOM     13  H   UNL     1      46.520   6.831  14.193  0.00  0.00    +0.000 HD
ATOM     14  H   UNL     1      47.341   7.274  12.775  0.00  0.00    +0.000 HD
ENDBRANCH   6  12
BRANCH   1  15
ATOM     15  N   UNL     1      46.023   4.595  14.793  0.00  0.00    +0.000 N 
ATOM     16  H   UNL     1      45.265   4.111  15.260  0.00  0.00    +0.000 HD
BRANCH  15  17
ATOM     17  C   UNL     1      47.317   4.201  15.359  0.00  0.00    +0.000 C 
BRANCH  17  22
ATOM     18  C   UNL     1      51.377   3.768  17.845  0.00  0.00    +0.000 C 
ATOM     19  N   UNL     1      49.928   3.879  18.050  0.00  0.00    +0.000 NA
ATOM     20  C   UNL     1      49.452   5.154  17.493  0.00  0.00    +0.000 C 
ATOM     21  C   UNL     1      47.934   5.302  17.590  0.00  0.00    +0.000 C 
ATOM     22  C   UNL     1      47.199   4.145  16.905  0.00  0.00    +0.000 C 
ATOM     23  C   UNL     1      47.722   2.832  17.518  0.00  0.00    +0.000 C 
ATOM     24  C   UNL     1      49.249   2.713  17.465  0.00  0.00    +0.000 C 
ENDBRANCH  17  22
ENDBRANCH  15  17
ENDBRANCH   1  15
TORSDOF 5
ENDMDL
MODEL 8
REMARK VINA RESULT:    -5.856      3.283      5.060
REMARK INTER + INTRA:          -7.786
REMARK INTER:                  -7.345
REMARK INTRA:                  -0.440
REMARK UNBOUND:                -0.389
REMARK  Name = 
REMARK  6 active torsions:
REMARK  status: ('A' for Active; 'I' for Inactive)
REMARK    1  A    between atoms: C_1  and  N_2
REMARK    2  A    between atoms: C_5  and  C_6
REMARK    3  A    between atoms: C_6  and  N_7
REMARK    4  A    between atoms: N_7  and  C_8
REMARK    5  A    between atoms: C_11  and  C_12
REMARK    6  A    between atoms: C_16  and  N_17
REMARK                            x       y       z     vdW  Elec       q    Type
REMARK                         _______ _______ _______ _____ _____    ______ ____
ROOT
ATOM      1  C   UNL     1      44.968   6.601  12.682  0.00  0.00    +0.000 A 
ATOM      2  N   UNL     1      45.634   5.515  13.137  0.00  0.00    +0.000 NA
ATOM      3  C   UNL     1      45.298   4.315  12.572  0.00  0.00    +0.000 A 
ATOM      4  C   UNL     1      44.282   4.188  11.630  0.00  0.00    +0.000 A 
ATOM      5  N   UNL     1      43.619   5.257  11.134  0.00  0.00    +0.000 NA
ATOM      6  C   UNL     1      44.004   6.453  11.624  0.00  0.00    +0.000 A 
ENDROOT
BRANCH   4   7
ATOM      7  C   UNL     1      43.848   2.838  11.137  0.00  0.00    +0.000 C 
ATOM      8  N   UNL     1      44.526   2.364  10.048  0.00  0.00    +0.000 N 
ATOM      9  O   UNL     1      42.932   2.222  11.655  0.00  0.00    +0.000 OA
ATOM     10  H   UNL     1      45.278   2.915   9.636  0.00  0.00    +0.000 HD
ATOM     11  H   UNL     1      44.265   1.483   9.635  0.00  0.00    +0.000 HD
ENDBRANCH   4   7
BRANCH   6  12
ATOM     12  N   UNL     1      43.466   7.543  10.946  0.00  0.00    +0.000 N 
ATOM     13  H   UNL     1      44.218   8.054  10.501  0.00  0.00    +0.000 HD
ATOM     14  H   UNL     1      42.685   7.340  10.343  0.00  0.00    +0.000 HD
ENDBRANCH   6  12
BRANCH   1  15
ATOM     15  N   UNL     1      45.265   7.892  13.160  0.00  0.00    +0.000 N 
ATOM     16  H   UNL     1      44.694   8.087  13.974  0.00  0.00    +0.000 HD
BRANCH  15  17
ATOM     17  C   UNL     1      46.655   8.296  13.392  0.00  0.00    +0.000 C 
BRANCH  17  22
ATOM     18  C   UNL     1      51.413   8.763  13.405  0.00  0.00    +0.000 C 
ATOM     19  N   UNL     1      50.274   8.775  12.479  0.00  0.00    +0.000 NA
ATOM     20  C   UNL     1      49.588   7.475  12.532  0.00  0.00    +0.000 C 
ATOM     21  C   UNL     1      48.336   7.440  11.657  0.00  0.00    +0.000 C 
ATOM     22  C   UNL     1      47.346   8.550  12.026  0.00  0.00    +0.000 C 
ATOM     23  C   UNL     1      48.101   9.891  11.955  0.00  0.00    +0.000 C 
ATOM     24  C   UNL     1      49.384   9.902  12.793  0.00  0.00    +0.000 C 
ENDBRANCH  17  22
ENDBRANCH  15  17
ENDBRANCH   1  15
TORSDOF 5
ENDMDL
MODEL 9
REMARK VINA RESULT:    -5.847      3.864      7.498
REMARK INTER + INTRA:          -7.774
REMARK INTER:                  -7.487
REMARK INTRA:                  -0.287
REMARK UNBOUND:                -0.389
REMARK  Name = 
REMARK  6 active torsions:
REMARK  status: ('A' for Active; 'I' for Inactive)
REMARK    1  A    between atoms: C_1  and  N_2
REMARK    2  A    between atoms: C_5  and  C_6
REMARK    3  A    between atoms: C_6  and  N_7
REMARK    4  A    between atoms: N_7  and  C_8
REMARK    5  A    between atoms: C_11  and  C_12
REMARK    6  A    between atoms: C_16  and  N_17
REMARK                            x       y       z     vdW  Elec       q    Type
REMARK                         _______ _______ _______ _____ _____    ______ ____
ROOT
ATOM      1  C   UNL     1      47.302   4.634  15.341  0.00  0.00    +0.000 A 
ATOM      2  N   UNL     1      47.251   3.351  15.766  0.00  0.00    +0.000 NA
ATOM      3  C   UNL     1      48.221   2.965  16.652  0.00  0.00    +0.000 A 
ATOM      4  C   UNL     1      49.250   3.811  17.052  0.00  0.00    +0.000 A 
ATOM      5  N   UNL     1      49.311   5.106  16.670  0.00  0.00    +0.000 NA
ATOM      6  C   UNL     1      48.310   5.517  15.864  0.00  0.00    +0.000 A 
ENDROOT
BRANCH   4   7
ATOM      7  C   UNL     1      50.372   3.310  17.914  0.00  0.00    +0.000 C 
ATOM      8  N   UNL     1      50.588   4.014  19.067  0.00  0.00    +0.000 N 
ATOM      9  O   UNL     1      51.062   2.357  17.592  0.00  0.00    +0.000 OA
ATOM     10  H   UNL     1      49.997   4.812  19.295  0.00  0.00    +0.000 HD
ATOM     11  H   UNL     1      51.349   3.763  19.677  0.00  0.00    +0.000 HD
ENDBRANCH   4   7
BRANCH   6  12
ATOM     12  N   UNL     1      48.274   6.894  15.663  0.00  0.00    +0.000 N 
ATOM     13  H   UNL     1      49.142   7.183  15.229  0.00  0.00    +0.000 HD
ATOM     14  H   UNL     1      47.446   7.248  15.213  0.00  0.00    +0.000 HD
ENDBRANCH   6  12
BRANCH   1  15
ATOM     15  N   UNL     1      46.328   5.152  14.466  0.00  0.00    +0.000 N 
ATOM     16  H   UNL     1      46.521   6.132  14.294  0.00  0.00    +0.000 HD
BRANCH  15  17
ATOM     17  C   UNL     1      46.011   4.459  13.213  0.00  0.00    +0.000 C 
BRANCH  17  22
ATOM     18  C   UNL     1      44.463   2.626   9.079  0.00  0.00    +0.000 C 
ATOM     19  N   UNL     1      44.099   3.638  10.078  0.00  0.00    +0.000 NA
ATOM     20  C   UNL     1      43.893   2.986  11.380  0.00  0.00    +0.000 C 
ATOM     21  C   UNL     1      43.597   3.989  12.494  0.00  0.00    +0.000 C 
ATOM     22  C   UNL     1      44.700   5.044  12.625  0.00  0.00    +0.000 C 
ATOM     23  C   UNL     1      44.882   5.703  11.245  0.00  0.00    +0.000 C 
ATOM     24  C   UNL     1      45.126   4.689  10.123  0.00  0.00    +0.000 C 
ENDBRANCH  17  22
ENDBRANCH  15  17
ENDBRANCH   1  15
TORSDOF 5
ENDMDL
