MODEL 1
REMARK VINA RESULT:    -8.149      0.000      0.000
REMARK INTER + INTRA:         -11.154
REMARK INTER:                 -10.531
REMARK INTRA:                  -0.623
REMARK UNBOUND:                -0.623
REMARK  Name = 
REMARK  5 active torsions:
REMARK  status: ('A' for Active; 'I' for Inactive)
REMARK    1  A    between atoms: C_2  and  C_4
REMARK    2  A    between atoms: C_7  and  O_8
REMARK    3  A    between atoms: O_8  and  C_9
REMARK    4  A    between atoms: C_9  and  C_10
REMARK    5  A    between atoms: C_13  and  C_14
REMARK                            x       y       z     vdW  Elec       q    Type
REMARK                         _______ _______ _______ _____ _____    ______ ____
ROOT
ATOM      1  C   UNL     1      43.399   4.776  10.884  0.00  0.00    +0.000 C 
ENDROOT
BRANCH   1   2
ATOM      2  C   UNL     1      44.594   5.183  11.710  0.00  0.00    +0.000 A 
ATOM      3  C   UNL     1      45.047   4.382  12.763  0.00  0.00    +0.000 A 
ATOM      4  C   UNL     1      46.177   4.751  13.502  0.00  0.00    +0.000 A 
ATOM      5  C   UNL     1      46.885   5.931  13.219  0.00  0.00    +0.000 A 
ATOM      6  C   UNL     1      46.419   6.719  12.152  0.00  0.00    +0.000 A 
ATOM      7  C   UNL     1      45.283   6.362  11.419  0.00  0.00    +0.000 A 
BRANCH   5   8
ATOM      8  C   UNL     1      48.053   6.349  14.023  0.00  0.00    +0.000 A 
ATOM      9  C   UNL     1      49.008   7.264  13.558  0.00  0.00    +0.000 A 
ATOM     10  C   UNL     1      50.105   7.608  14.350  0.00  0.00    +0.000 A 
ATOM     11  C   UNL     1      50.220   7.037  15.603  0.00  0.00    +0.000 A 
ATOM     12  N   UNL     1      49.330   6.155  16.103  0.00  0.00    +0.000 NA
ATOM     13  C   UNL     1      48.286   5.833  15.303  0.00  0.00    +0.000 A 
ENDBRANCH   5   8
ENDBRANCH   1   2
BRANCH   1  14
ATOM     14  O   UNL     1      43.567   3.446  10.394  0.00  0.00    +0.000 OA
BRANCH  14  18
ATOM     15  C   UNL     1      46.413   2.627   7.539  0.00  0.00    +0.000 A 
ATOM     16  C   UNL     1      45.944   3.934   7.592  0.00  0.00    +0.000 A 
ATOM     17  C   UNL     1      44.979   4.259   8.548  0.00  0.00    +0.000 A 
ATOM     18  C   UNL     1      44.514   3.279   9.421  0.00  0.00    +0.000 A 
ATOM     19  C   UNL     1      45.051   2.000   9.289  0.00  0.00    +0.000 A 
ATOM     20  N   UNL     1      45.988   1.640   8.373  0.00  0.00    +0.000 NA
BRANCH  15  22
ATOM     21  N   UNL     1      47.378   2.943   5.325  0.00  0.00    +0.000 N 
ATOM     22  C   UNL     1      47.433   2.257   6.506  0.00  0.00    +0.000 C 
ATOM     23  O   UNL     1      48.282   1.398   6.705  0.00  0.00    +0.000 OA
ATOM     24  H   UNL     1      48.096   2.774   4.635  0.00  0.00    +0.000 HD
ATOM     25  H   UNL     1      46.750   3.731   5.225  0.00  0.00    +0.000 HD
ENDBRANCH  15  22
ENDBRANCH  14  18
ENDBRANCH   1  14
TORSDOF 5
ENDMDL
MODEL 2
REMARK VINA RESULT:    -8.144      0.818      1.497
REMARK INTER + INTRA:         -11.147
REMARK INTER:                 -10.334
REMARK INTRA:                  -0.813
REMARK UNBOUND:                -0.623
REMARK  Name = 
REMARK  5 active torsions:
REMARK  status: ('A' for Active; 'I' for Inactive)
REMARK    1  A    between atoms: C_2  and  C_4
REMARK    2  A    between atoms: C_7  and  O_8
REMARK    3  A    between atoms: O_8  and  C_9
REMARK    4  A    between atoms: C_9  and  C_10
REMARK    5  A    between atoms: C_13  and  C_14
REMARK                            x       y       z     vdW  Elec       q    Type
REMARK                         _______ _______ _______ _____ _____    ______ ____
ROOT
ATOM      1  C   UNL     1      43.517   3.523  11.535  0.00  0.00    +0.000 C 
ENDROOT
BRANCH   1   2
ATOM      2  C   UNL     1      44.689   4.205  12.195  0.00  0.00    +0.000 A 
ATOM      3  C   UNL     1      44.806   5.599  12.191  0.00  0.00    +0.000 A 
ATOM      4  C   UNL     1      45.880   6.225  12.834  0.00  0.00    +0.000 A 
ATOM      5  C   UNL     1      46.872   5.481  13.496  0.00  0.00    +0.000 A 
ATOM      6  C   UNL     1      46.732   4.082  13.497  0.00  0.00    +0.000 A 
ATOM      7  C   UNL     1      45.669   3.451  12.844  0.00  0.00    +0.000 A 
BRANCH   5   8
ATOM      8  C   UNL     1      48.032   6.132  14.140  0.00  0.00    +0.000 A 
ATOM      9  C   UNL     1      48.808   7.109  13.502  0.00  0.00    +0.000 A 
ATOM     10  C   UNL     1      49.907   7.677  14.148  0.00  0.00    +0.000 A 
ATOM     11  C   UNL     1      50.205   7.263  15.432  0.00  0.00    +0.000 A 
ATOM     12  N   UNL     1      49.492   6.330  16.097  0.00  0.00    +0.000 NA
ATOM     13  C   UNL     1      48.441   5.791  15.435  0.00  0.00    +0.000 A 
ENDBRANCH   5   8
ENDBRANCH   1   2
BRANCH   1  14
ATOM     14  O   UNL     1      43.426   3.916  10.165  0.00  0.00    +0.000 OA
BRANCH  14  18
ATOM     15  C   UNL     1      46.395   2.757   7.566  0.00  0.00    +0.000 A 
ATOM     16  C   UNL     1      45.863   1.767   8.382  0.00  0.00    +0.000 A 
ATOM     17  C   UNL     1      44.850   2.113   9.279  0.00  0.00    +0.000 A 
ATOM     18  C   UNL     1      44.396   3.429   9.334  0.00  0.00    +0.000 A 
ATOM     19  C   UNL     1      44.992   4.345   8.469  0.00  0.00    +0.000 A 
ATOM     20  N   UNL     1      45.980   4.052   7.584  0.00  0.00    +0.000 NA
BRANCH  15  22
ATOM     21  N   UNL     1      47.525   3.099   5.435  0.00  0.00    +0.000 N 
ATOM     22  C   UNL     1      47.496   2.406   6.613  0.00  0.00    +0.000 C 
ATOM     23  O   UNL     1      48.338   1.556   6.871  0.00  0.00    +0.000 OA
ATOM     24  H   UNL     1      48.297   2.943   4.802  0.00  0.00    +0.000 HD
ATOM     25  H   UNL     1      46.897   3.881   5.292  0.00  0.00    +0.000 HD
ENDBRANCH  15  22
ENDBRANCH  14  18
ENDBRANCH   1  14
TORSDOF 5
ENDMDL
MODEL 3
REMARK VINA RESULT:    -8.132      1.126      1.583
REMARK INTER + INTRA:         -11.131
REMARK INTER:                 -10.359
REMARK INTRA:                  -0.772
REMARK UNBOUND:                -0.623
REMARK  Name = 
REMARK  5 active torsions:
REMARK  status: ('A' for Active; 'I' for Inactive)
REMARK    1  A    between atoms: C_2  and  C_4
REMARK    2  A    between atoms: C_7  and  O_8
REMARK    3  A    between atoms: O_8  and  C_9
REMARK    4  A    between atoms: C_9  and  C_10
REMARK    5  A    between atoms: C_13  and  C_14
REMARK                            x       y       z     vdW  Elec       q    Type
REMARK                         _______ _______ _______ _____ _____    ______ ____
ROOT
ATOM      1  C   UNL     1      43.631   4.376  11.371  0.00  0.00    +0.000 C 
ENDROOT
BRANCH   1   2
ATOM      2  C   UNL     1      44.863   4.970  12.006  0.00  0.00    +0.000 A 
ATOM      3  C   UNL     1      45.619   4.242  12.930  0.00  0.00    +0.000 A 
ATOM      4  C   UNL     1      46.779   4.789  13.489  0.00  0.00    +0.000 A 
ATOM      5  C   UNL     1      47.218   6.080  13.151  0.00  0.00    +0.000 A 
ATOM      6  C   UNL     1      46.449   6.794  12.214  0.00  0.00    +0.000 A 
ATOM      7  C   UNL     1      45.282   6.257  11.663  0.00  0.00    +0.000 A 
BRANCH   5   8
ATOM      8  C   UNL     1      48.417   6.682  13.770  0.00  0.00    +0.000 A 
ATOM      9  C   UNL     1      48.694   6.588  15.141  0.00  0.00    +0.000 A 
ATOM     10  C   UNL     1      49.831   7.193  15.678  0.00  0.00    +0.000 A 
ATOM     11  C   UNL     1      50.680   7.876  14.828  0.00  0.00    +0.000 A 
ATOM     12  N   UNL     1      50.467   7.995  13.501  0.00  0.00    +0.000 NA
ATOM     13  C   UNL     1      49.348   7.408  13.016  0.00  0.00    +0.000 A 
ENDBRANCH   5   8
ENDBRANCH   1   2
BRANCH   1  14
ATOM     14  O   UNL     1      43.653   4.586   9.959  0.00  0.00    +0.000 OA
BRANCH  14  18
ATOM     15  C   UNL     1      46.423   2.539   7.709  0.00  0.00    +0.000 A 
ATOM     16  C   UNL     1      45.622   1.778   8.552  0.00  0.00    +0.000 A 
ATOM     17  C   UNL     1      44.666   2.429   9.333  0.00  0.00    +0.000 A 
ATOM     18  C   UNL     1      44.532   3.814   9.250  0.00  0.00    +0.000 A 
ATOM     19  C   UNL     1      45.380   4.484   8.371  0.00  0.00    +0.000 A 
ATOM     20  N   UNL     1      46.325   3.891   7.595  0.00  0.00    +0.000 NA
BRANCH  15  22
ATOM     21  N   UNL     1      48.519   2.631   6.471  0.00  0.00    +0.000 N 
ATOM     22  C   UNL     1      47.467   1.858   6.880  0.00  0.00    +0.000 C 
ATOM     23  O   UNL     1      47.400   0.670   6.591  0.00  0.00    +0.000 OA
ATOM     24  H   UNL     1      49.279   2.188   5.975  0.00  0.00    +0.000 HD
ATOM     25  H   UNL     1      48.620   3.576   6.821  0.00  0.00    +0.000 HD
ENDBRANCH  15  22
ENDBRANCH  14  18
ENDBRANCH   1  14
TORSDOF 5
ENDMDL
MODEL 4
REMARK VINA RESULT:    -7.857      2.420      6.910
REMARK INTER + INTRA:         -10.776
REMARK INTER:                 -10.441
REMARK INTRA:                  -0.336
REMARK UNBOUND:                -0.623
REMARK  Name = 
REMARK  5 active torsions:
REMARK  status: ('A' for Active; 'I' for Inactive)
REMARK    1  A    between atoms: C_2  and  C_4
REMARK    2  A    between atoms: C_7  and  O_8
REMARK    3  A    between atoms: O_8  and  C_9
REMARK    4  A    between atoms: C_9  and  C_10
REMARK    5  A    between atoms: C_13  and  C_14
REMARK                            x       y       z     vdW  Elec       q    Type
REMARK                         _______ _______ _______ _____ _____    ______ ____
ROOT
ATOM      1  C   UNL     1      43.027   4.746  12.067  0.00  0.00    +0.000 C 
ENDROOT
BRANCH   1   2
ATOM      2  C   UNL     1      43.865   4.229  10.924  0.00  0.00    +0.000 A 
ATOM      3  C   UNL     1      43.946   2.859  10.654  0.00  0.00    +0.000 A 
ATOM      4  C   UNL     1      44.700   2.391   9.571  0.00  0.00    +0.000 A 
ATOM      5  C   UNL     1      45.401   3.271   8.730  0.00  0.00    +0.000 A 
ATOM      6  C   UNL     1      45.301   4.645   9.013  0.00  0.00    +0.000 A 
ATOM      7  C   UNL     1      44.560   5.117  10.101  0.00  0.00    +0.000 A 
BRANCH   5   8
ATOM      8  C   UNL     1      46.233   2.781   7.612  0.00  0.00    +0.000 A 
ATOM      9  C   UNL     1      46.414   3.504   6.425  0.00  0.00    +0.000 A 
ATOM     10  C   UNL     1      47.195   2.985   5.390  0.00  0.00    +0.000 A 
ATOM     11  C   UNL     1      47.791   1.752   5.568  0.00  0.00    +0.000 A 
ATOM     12  N   UNL     1      47.656   1.014   6.689  0.00  0.00    +0.000 NA
ATOM     13  C   UNL     1      46.881   1.541   7.667  0.00  0.00    +0.000 A 
ENDBRANCH   5   8
ENDBRANCH   1   2
BRANCH   1  14
ATOM     14  O   UNL     1      43.770   4.698  13.285  0.00  0.00    +0.000 OA
BRANCH  14  18
ATOM     15  C   UNL     1      47.530   6.367  13.339  0.00  0.00    +0.000 A 
ATOM     16  C   UNL     1      46.482   7.207  12.982  0.00  0.00    +0.000 A 
ATOM     17  C   UNL     1      45.187   6.685  12.952  0.00  0.00    +0.000 A 
ATOM     18  C   UNL     1      44.974   5.348  13.282  0.00  0.00    +0.000 A 
ATOM     19  C   UNL     1      46.090   4.591  13.631  0.00  0.00    +0.000 A 
ATOM     20  N   UNL     1      47.366   5.057  13.670  0.00  0.00    +0.000 NA
BRANCH  15  22
ATOM     21  N   UNL     1      49.342   7.553  12.225  0.00  0.00    +0.000 N 
ATOM     22  C   UNL     1      48.926   6.906  13.356  0.00  0.00    +0.000 C 
ATOM     23  O   UNL     1      49.660   6.791  14.329  0.00  0.00    +0.000 OA
ATOM     24  H   UNL     1      50.250   7.996  12.229  0.00  0.00    +0.000 HD
ATOM     25  H   UNL     1      48.683   7.745  11.480  0.00  0.00    +0.000 HD
ENDBRANCH  15  22
ENDBRANCH  14  18
ENDBRANCH   1  14
TORSDOF 5
ENDMDL
MODEL 5
REMARK VINA RESULT:    -7.663      1.512      2.260
REMARK INTER + INTRA:         -10.525
REMARK INTER:                  -9.841
REMARK INTRA:                  -0.684
REMARK UNBOUND:                -0.623
REMARK  Name = 
REMARK  5 active torsions:
REMARK  status: ('A' for Active; 'I' for Inactive)
REMARK    1  A    between atoms: C_2  and  C_4
REMARK    2  A    between atoms: C_7  and  O_8
REMARK    3  A    between atoms: O_8  and  C_9
REMARK    4  A    between atoms: C_9  and  C_10
REMARK    5  A    between atoms: C_13  and  C_14
REMARK                            x       y       z     vdW  Elec       q    Type
REMARK                         _______ _______ _______ _____ _____    ______ ____
ROOT
ATOM      1  C   UNL     1      44.474   5.896  10.609  0.00  0.00    +0.000 C 
ENDROOT
BRANCH   1   2
ATOM      2  C   UNL     1      45.306   5.575  11.826  0.00  0.00    +0.000 A 
ATOM      3  C   UNL     1      46.539   6.199  12.039  0.00  0.00    +0.000 A 
ATOM      4  C   UNL     1      47.290   5.919  13.187  0.00  0.00    +0.000 A 
ATOM      5  C   UNL     1      46.838   5.004  14.153  0.00  0.00    +0.000 A 
ATOM      6  C   UNL     1      45.592   4.394  13.925  0.00  0.00    +0.000 A 
ATOM      7  C   UNL     1      44.845   4.659  12.774  0.00  0.00    +0.000 A 
BRANCH   5   8
ATOM      8  C   UNL     1      47.644   4.671  15.345  0.00  0.00    +0.000 A 
ATOM      9  C   UNL     1      48.453   5.608  16.003  0.00  0.00    +0.000 A 
ATOM     10  C   UNL     1      49.213   5.234  17.113  0.00  0.00    +0.000 A 
ATOM     11  C   UNL     1      49.140   3.927  17.554  0.00  0.00    +0.000 A 
ATOM     12  N   UNL     1      48.377   2.984  16.963  0.00  0.00    +0.000 NA
ATOM     13  C   UNL     1      47.664   3.377  15.881  0.00  0.00    +0.000 A 
ENDBRANCH   5   8
ENDBRANCH   1   2
BRANCH   1  14
ATOM     14  O   UNL     1      43.864   4.709  10.101  0.00  0.00    +0.000 OA
BRANCH  14  18
ATOM     15  C   UNL     1      46.433   2.510   7.760  0.00  0.00    +0.000 A 
ATOM     16  C   UNL     1      45.585   1.793   8.594  0.00  0.00    +0.000 A 
ATOM     17  C   UNL     1      44.693   2.497   9.405  0.00  0.00    +0.000 A 
ATOM     18  C   UNL     1      44.670   3.889   9.360  0.00  0.00    +0.000 A 
ATOM     19  C   UNL     1      45.558   4.513   8.486  0.00  0.00    +0.000 A 
ATOM     20  N   UNL     1      46.442   3.868   7.681  0.00  0.00    +0.000 NA
BRANCH  15  22
ATOM     21  N   UNL     1      48.374   2.523   6.286  0.00  0.00    +0.000 N 
ATOM     22  C   UNL     1      47.410   1.770   6.898  0.00  0.00    +0.000 C 
ATOM     23  O   UNL     1      47.365   0.555   6.754  0.00  0.00    +0.000 OA
ATOM     24  H   UNL     1      49.094   2.049   5.760  0.00  0.00    +0.000 HD
ATOM     25  H   UNL     1      48.470   3.505   6.514  0.00  0.00    +0.000 HD
ENDBRANCH  15  22
ENDBRANCH  14  18
ENDBRANCH   1  14
TORSDOF 5
ENDMDL
MODEL 6
REMARK VINA RESULT:    -6.905      1.892      2.472
REMARK INTER + INTRA:          -9.546
REMARK INTER:                  -8.850
REMARK INTRA:                  -0.696
REMARK UNBOUND:                -0.623
REMARK  Name = 
REMARK  5 active torsions:
REMARK  status: ('A' for Active; 'I' for Inactive)
REMARK    1  A    between atoms: C_2  and  C_4
REMARK    2  A    between atoms: C_7  and  O_8
REMARK    3  A    between atoms: O_8  and  C_9
REMARK    4  A    between atoms: C_9  and  C_10
REMARK    5  A    between atoms: C_13  and  C_14
REMARK                            x       y       z     vdW  Elec       q    Type
REMARK                         _______ _______ _______ _____ _____    ______ ____
ROOT
ATOM      1  C   UNL     1      44.185   4.290  12.168  0.00  0.00    +0.000 C 
ENDROOT
BRANCH   1   2
ATOM      2  C   UNL     1      45.159   5.425  12.367  0.00  0.00    +0.000 A 
ATOM      3  C   UNL     1      44.793   6.745  12.084  0.00  0.00    +0.000 A 
ATOM      4  C   UNL     1      45.692   7.795  12.303  0.00  0.00    +0.000 A 
ATOM      5  C   UNL     1      46.984   7.562  12.803  0.00  0.00    +0.000 A 
ATOM      6  C   UNL     1      47.331   6.230  13.089  0.00  0.00    +0.000 A 
ATOM      7  C   UNL     1      46.441   5.175  12.859  0.00  0.00    +0.000 A 
BRANCH   5   8
ATOM      8  C   UNL     1      47.954   8.660  12.995  0.00  0.00    +0.000 A 
ATOM      9  C   UNL     1      48.191   9.644  12.025  0.00  0.00    +0.000 A 
ATOM     10  C   UNL     1      49.135  10.648  12.249  0.00  0.00    +0.000 A 
ATOM     11  C   UNL     1      49.819  10.656  13.450  0.00  0.00    +0.000 A 
ATOM     12  N   UNL     1      49.629   9.739  14.420  0.00  0.00    +0.000 NA
ATOM     13  C   UNL     1      48.716   8.772  14.164  0.00  0.00    +0.000 A 
ENDBRANCH   5   8
ENDBRANCH   1   2
BRANCH   1  14
ATOM     14  O   UNL     1      43.654   4.323  10.843  0.00  0.00    +0.000 OA
BRANCH  14  18
ATOM     15  C   UNL     1      46.084   2.981   7.808  0.00  0.00    +0.000 A 
ATOM     16  C   UNL     1      45.572   2.016   8.667  0.00  0.00    +0.000 A 
ATOM     17  C   UNL     1      44.740   2.424   9.710  0.00  0.00    +0.000 A 
ATOM     18  C   UNL     1      44.440   3.776   9.866  0.00  0.00    +0.000 A 
ATOM     19  C   UNL     1      45.000   4.663   8.949  0.00  0.00    +0.000 A 
ATOM     20  N   UNL     1      45.815   4.309   7.922  0.00  0.00    +0.000 NA
BRANCH  15  22
ATOM     21  N   UNL     1      47.953   1.637   7.010  0.00  0.00    +0.000 N 
ATOM     22  C   UNL     1      46.995   2.561   6.696  0.00  0.00    +0.000 C 
ATOM     23  O   UNL     1      46.887   3.004   5.560  0.00  0.00    +0.000 OA
ATOM     24  H   UNL     1      48.535   1.274   6.268  0.00  0.00    +0.000 HD
ATOM     25  H   UNL     1      47.948   1.192   7.920  0.00  0.00    +0.000 HD
ENDBRANCH  15  22
ENDBRANCH  14  18
ENDBRANCH   1  14
TORSDOF 5
ENDMDL
MODEL 7
REMARK VINA RESULT:    -6.450      4.647      6.714
REMARK INTER + INTRA:          -8.958
REMARK INTER:                  -8.382
REMARK INTRA:                  -0.576
REMARK UNBOUND:                -0.623
REMARK  Name = 
REMARK  5 active torsions:
REMARK  status: ('A' for Active; 'I' for Inactive)
REMARK    1  A    between atoms: C_2  and  C_4
REMARK    2  A    between atoms: C_7  and  O_8
REMARK    3  A    between atoms: O_8  and  C_9
REMARK    4  A    between atoms: C_9  and  C_10
REMARK    5  A    between atoms: C_13  and  C_14
REMARK                            x       y       z     vdW  Elec       q    Type
REMARK                         _______ _______ _______ _____ _____    ______ ____
ROOT
ATOM      1  C   UNL     1      47.548   4.435  16.299  0.00  0.00    +0.000 C 
ENDROOT
BRANCH   1   2
ATOM      2  C   UNL     1      48.835   3.801  16.764  0.00  0.00    +0.000 A 
ATOM      3  C   UNL     1      49.046   2.424  16.634  0.00  0.00    +0.000 A 
ATOM      4  C   UNL     1      50.257   1.849  17.038  0.00  0.00    +0.000 A 
ATOM      5  C   UNL     1      51.290   2.626  17.589  0.00  0.00    +0.000 A 
ATOM      6  C   UNL     1      51.062   4.008  17.703  0.00  0.00    +0.000 A 
ATOM      7  C   UNL     1      49.850   4.586  17.314  0.00  0.00    +0.000 A 
BRANCH   5   8
ATOM      8  C   UNL     1      52.553   2.019  18.058  0.00  0.00    +0.000 A 
ATOM      9  C   UNL     1      52.947   0.719  17.713  0.00  0.00    +0.000 A 
ATOM     10  C   UNL     1      54.142   0.187  18.201  0.00  0.00    +0.000 A 
ATOM     11  C   UNL     1      54.929   0.972  19.021  0.00  0.00    +0.000 A 
ATOM     12  N   UNL     1      54.603   2.230  19.382  0.00  0.00    +0.000 NA
ATOM     13  C   UNL     1      53.431   2.710  18.902  0.00  0.00    +0.000 A 
ENDBRANCH   5   8
ENDBRANCH   1   2
BRANCH   1  14
ATOM     14  O   UNL     1      47.772   5.189  15.107  0.00  0.00    +0.000 OA
BRANCH  14  18
ATOM     15  C   UNL     1      45.200   4.160  12.067  0.00  0.00    +0.000 A 
ATOM     16  C   UNL     1      45.378   5.519  12.296  0.00  0.00    +0.000 A 
ATOM     17  C   UNL     1      46.244   5.915  13.317  0.00  0.00    +0.000 A 
ATOM     18  C   UNL     1      46.908   4.952  14.074  0.00  0.00    +0.000 A 
ATOM     19  C   UNL     1      46.664   3.616  13.760  0.00  0.00    +0.000 A 
ATOM     20  N   UNL     1      45.829   3.187  12.779  0.00  0.00    +0.000 NA
BRANCH  15  22
ATOM     21  N   UNL     1      44.275   2.387  10.675  0.00  0.00    +0.000 N 
ATOM     22  C   UNL     1      44.258   3.718  10.989  0.00  0.00    +0.000 C 
ATOM     23  O   UNL     1      43.500   4.495  10.424  0.00  0.00    +0.000 OA
ATOM     24  H   UNL     1      43.601   2.040  10.008  0.00  0.00    +0.000 HD
ATOM     25  H   UNL     1      44.818   1.741  11.235  0.00  0.00    +0.000 HD
ENDBRANCH  15  22
ENDBRANCH  14  18
ENDBRANCH   1  14
TORSDOF 5
ENDMDL
MODEL 8
REMARK VINA RESULT:    -6.158      4.866      7.104
REMARK INTER + INTRA:          -8.580
REMARK INTER:                  -7.981
REMARK INTRA:                  -0.599
REMARK UNBOUND:                -0.623
REMARK  Name = 
REMARK  5 active torsions:
REMARK  status: ('A' for Active; 'I' for Inactive)
REMARK    1  A    between atoms: C_2  and  C_4
REMARK    2  A    between atoms: C_7  and  O_8
REMARK    3  A    between atoms: O_8  and  C_9
REMARK    4  A    between atoms: C_9  and  C_10
REMARK    5  A    between atoms: C_13  and  C_14
REMARK                            x       y       z     vdW  Elec       q    Type
REMARK                         _______ _______ _______ _____ _____    ______ ____
ROOT
ATOM      1  C   UNL     1      47.293   3.870  16.258  0.00  0.00    +0.000 C 
ENDROOT
BRANCH   1   2
ATOM      2  C   UNL     1      48.662   3.474  16.754  0.00  0.00    +0.000 A 
ATOM      3  C   UNL     1      49.130   2.165  16.605  0.00  0.00    +0.000 A 
ATOM      4  C   UNL     1      50.414   1.814  17.038  0.00  0.00    +0.000 A 
ATOM      5  C   UNL     1      51.268   2.755  17.638  0.00  0.00    +0.000 A 
ATOM      6  C   UNL     1      50.783   4.068  17.772  0.00  0.00    +0.000 A 
ATOM      7  C   UNL     1      49.496   4.420  17.353  0.00  0.00    +0.000 A 
BRANCH   5   8
ATOM      8  C   UNL     1      52.608   2.383  18.138  0.00  0.00    +0.000 A 
ATOM      9  C   UNL     1      53.287   1.233  17.710  0.00  0.00    +0.000 A 
ATOM     10  C   UNL     1      54.542   0.916  18.231  0.00  0.00    +0.000 A 
ATOM     11  C   UNL     1      55.103   1.765  19.166  0.00  0.00    +0.000 A 
ATOM     12  N   UNL     1      54.499   2.885  19.611  0.00  0.00    +0.000 NA
ATOM     13  C   UNL     1      53.276   3.156  19.095  0.00  0.00    +0.000 A 
ENDBRANCH   5   8
ENDBRANCH   1   2
BRANCH   1  14
ATOM     14  O   UNL     1      47.197   3.652  14.850  0.00  0.00    +0.000 OA
BRANCH  14  18
ATOM     15  C   UNL     1      45.549   6.687  12.615  0.00  0.00    +0.000 A 
ATOM     16  C   UNL     1      46.866   6.860  13.022  0.00  0.00    +0.000 A 
ATOM     17  C   UNL     1      47.468   5.854  13.780  0.00  0.00    +0.000 A 
ATOM     18  C   UNL     1      46.746   4.709  14.108  0.00  0.00    +0.000 A 
ATOM     19  C   UNL     1      45.433   4.630  13.647  0.00  0.00    +0.000 A 
ATOM     20  N   UNL     1      44.808   5.584  12.909  0.00  0.00    +0.000 NA
BRANCH  15  22
ATOM     21  N   UNL     1      43.715   7.424  11.190  0.00  0.00    +0.000 N 
ATOM     22  C   UNL     1      44.882   7.765  11.818  0.00  0.00    +0.000 C 
ATOM     23  O   UNL     1      45.340   8.897  11.738  0.00  0.00    +0.000 OA
ATOM     24  H   UNL     1      43.199   8.146  10.707  0.00  0.00    +0.000 HD
ATOM     25  H   UNL     1      43.289   6.523  11.368  0.00  0.00    +0.000 HD
ENDBRANCH  15  22
ENDBRANCH  14  18
ENDBRANCH   1  14
TORSDOF 5
ENDMDL
MODEL 9
REMARK VINA RESULT:    -5.980      3.638      5.404
REMARK INTER + INTRA:          -8.350
REMARK INTER:                  -7.617
REMARK INTRA:                  -0.733
REMARK UNBOUND:                -0.623
REMARK  Name = 
REMARK  5 active torsions:
REMARK  status: ('A' for Active; 'I' for Inactive)
REMARK    1  A    between atoms: C_2  and  C_4
REMARK    2  A    between atoms: C_7  and  O_8
REMARK    3  A    between atoms: O_8  and  C_9
REMARK    4  A    between atoms: C_9  and  C_10
REMARK    5  A    between atoms: C_13  and  C_14
REMARK                            x       y       z     vdW  Elec       q    Type
REMARK                         _______ _______ _______ _____ _____    ______ ____
ROOT
ATOM      1  C   UNL     1      46.225   8.290  13.248  0.00  0.00    +0.000 C 
ENDROOT
BRANCH   1   2
ATOM      2  C   UNL     1      47.595   8.326  12.617  0.00  0.00    +0.000 A 
ATOM      3  C   UNL     1      48.054   9.471  11.958  0.00  0.00    +0.000 A 
ATOM      4  C   UNL     1      49.339   9.507  11.404  0.00  0.00    +0.000 A 
ATOM      5  C   UNL     1      50.203   8.402  11.484  0.00  0.00    +0.000 A 
ATOM      6  C   UNL     1      49.727   7.263  12.158  0.00  0.00    +0.000 A 
ATOM      7  C   UNL     1      48.439   7.217  12.701  0.00  0.00    +0.000 A 
BRANCH   5   8
ATOM      8  C   UNL     1      51.544   8.416  10.865  0.00  0.00    +0.000 A 
ATOM      9  C   UNL     1      52.109   7.292  10.247  0.00  0.00    +0.000 A 
ATOM     10  C   UNL     1      53.390   7.354   9.695  0.00  0.00    +0.000 A 
ATOM     11  C   UNL     1      54.082   8.549   9.763  0.00  0.00    +0.000 A 
ATOM     12  N   UNL     1      53.587   9.662  10.341  0.00  0.00    +0.000 NA
ATOM     13  C   UNL     1      52.348   9.563  10.878  0.00  0.00    +0.000 A 
ENDBRANCH   5   8
ENDBRANCH   1   2
BRANCH   1  14
ATOM     14  O   UNL     1      45.225   8.124  12.243  0.00  0.00    +0.000 OA
BRANCH  14  18
ATOM     15  C   UNL     1      44.249   4.238  11.312  0.00  0.00    +0.000 A 
ATOM     16  C   UNL     1      45.122   4.884  10.445  0.00  0.00    +0.000 A 
ATOM     17  C   UNL     1      45.483   6.204  10.723  0.00  0.00    +0.000 A 
ATOM     18  C   UNL     1      44.971   6.838  11.852  0.00  0.00    +0.000 A 
ATOM     19  C   UNL     1      44.107   6.101  12.660  0.00  0.00    +0.000 A 
ATOM     20  N   UNL     1      43.728   4.818  12.427  0.00  0.00    +0.000 NA
BRANCH  15  22
ATOM     21  N   UNL     1      44.483   2.208   9.985  0.00  0.00    +0.000 N 
ATOM     22  C   UNL     1      43.835   2.829  11.017  0.00  0.00    +0.000 C 
ATOM     23  O   UNL     1      42.975   2.251  11.668  0.00  0.00    +0.000 OA
ATOM     24  H   UNL     1      44.284   1.234   9.807  0.00  0.00    +0.000 HD
ATOM     25  H   UNL     1      45.274   2.658   9.540  0.00  0.00    +0.000 HD
ENDBRANCH  15  22
ENDBRANCH  14  18
ENDBRANCH   1  14
TORSDOF 5
ENDMDL
