MODEL 1
REMARK VINA RESULT:    -6.798      0.000      0.000
REMARK INTER + INTRA:         -11.189
REMARK INTER:                 -10.374
REMARK INTRA:                  -0.815
REMARK UNBOUND:                -0.815
REMARK  Name = 
REMARK  13 active torsions:
REMARK  status: ('A' for Active; 'I' for Inactive)
REMARK    1  A    between atoms: C_1  and  N_2
REMARK    2  A    between atoms: N_2  and  C_3
REMARK    3  A    between atoms: N_2  and  C_4
REMARK    4  A    between atoms: C_4  and  C_5
REMARK    5  A    between atoms: C_5  and  N_6
REMARK    6  A    between atoms: C_7  and  C_9
REMARK    7  A    between atoms: C_12  and  O_13
REMARK    8  A    between atoms: O_13  and  C_14
REMARK    9  A    between atoms: C_14  and  C_15
REMARK   10  A    between atoms: C_15  and  C_16
REMARK   11  A    between atoms: C_15  and  C_17
REMARK   12  A    between atoms: C_15  and  C_18
REMARK   13  A    between atoms: C_22  and  C_23
REMARK                            x       y       z     vdW  Elec       q    Type
REMARK                         _______ _______ _______ _____ _____    ______ ____
ROOT
ATOM      1  O   UNL     1      48.910   6.311  15.362  0.00  0.00    +0.000 OA
ENDROOT
BRANCH   1   5
ATOM      2  C   UNL     1      45.919   4.485  13.206  0.00  0.00    +0.000 A 
ATOM      3  C   UNL     1      46.404   5.693  12.716  0.00  0.00    +0.000 A 
ATOM      4  C   UNL     1      47.418   6.347  13.412  0.00  0.00    +0.000 A 
ATOM      5  C   UNL     1      47.923   5.780  14.578  0.00  0.00    +0.000 A 
ATOM      6  C   UNL     1      47.378   4.562  14.987  0.00  0.00    +0.000 A 
ATOM      7  N   UNL     1      46.387   3.894  14.338  0.00  0.00    +0.000 NA
BRANCH   2   9
ATOM      8  N   UNL     1      45.085   3.538  11.109  0.00  0.00    +0.000 N 
ATOM      9  C   UNL     1      44.836   3.788  12.442  0.00  0.00    +0.000 C 
ATOM     10  O   UNL     1      43.789   3.461  12.997  0.00  0.00    +0.000 OA
ATOM     11  H   UNL     1      46.022   3.711  10.752  0.00  0.00    +0.000 HD
BRANCH   8  12
ATOM     12  C   UNL     1      44.117   2.824  10.304  0.00  0.00    +0.000 C 
BRANCH  12  13
ATOM     13  C   UNL     1      44.502   2.713   8.820  0.00  0.00    +0.000 C 
BRANCH  13  15
ATOM     14  C   UNL     1      46.365   1.364   8.019  0.00  0.00    +0.000 C 
ATOM     15  N   UNL     1      45.955   2.666   8.555  0.00  0.00    +0.000 NA
ATOM     16  C   UNL     1      46.321   3.718   7.601  0.00  0.00    +0.000 C 
ENDBRANCH  13  15
ENDBRANCH  12  13
ENDBRANCH   8  12
ENDBRANCH   2   9
ENDBRANCH   1   5
BRANCH   1  17
ATOM     17  C   UNL     1      48.660   6.359  16.777  0.00  0.00    +0.000 C 
BRANCH  17  18
ATOM     18  C   UNL     1      49.953   6.741  17.560  0.00  0.00    +0.000 C 
ATOM     19  C   UNL     1      50.711   7.854  16.799  0.00  0.00    +0.000 C 
ATOM     20  C   UNL     1      49.532   7.335  18.926  0.00  0.00    +0.000 C 
BRANCH  18  21
ATOM     21  C   UNL     1      50.866   5.504  17.697  0.00  0.00    +0.000 A 
ATOM     22  C   UNL     1      52.186   5.578  18.167  0.00  0.00    +0.000 A 
ATOM     23  C   UNL     1      52.957   4.421  18.257  0.00  0.00    +0.000 A 
ATOM     24  N   UNL     1      52.521   3.193  17.917  0.00  0.00    +0.000 NA
ATOM     25  C   UNL     1      51.242   3.124  17.459  0.00  0.00    +0.000 A 
ATOM     26  C   UNL     1      50.399   4.228  17.336  0.00  0.00    +0.000 A 
BRANCH  25  27
ATOM     27  C   UNL     1      50.743   1.766  17.077  0.00  0.00    +0.000 C 
ATOM     28  N   UNL     1      51.309   0.718  17.753  0.00  0.00    +0.000 N 
ATOM     29  O   UNL     1      49.886   1.594  16.220  0.00  0.00    +0.000 OA
ATOM     30  H   UNL     1      52.015   0.899  18.456  0.00  0.00    +0.000 HD
ATOM     31  H   UNL     1      51.021  -0.228  17.544  0.00  0.00    +0.000 HD
ENDBRANCH  25  27
ENDBRANCH  18  21
ENDBRANCH  17  18
ENDBRANCH   1  17
TORSDOF 9
ENDMDL
MODEL 2
REMARK VINA RESULT:    -6.758      4.225      8.587
REMARK INTER + INTRA:         -11.128
REMARK INTER:                 -10.051
REMARK INTRA:                  -1.077
REMARK UNBOUND:                -0.815
REMARK  Name = 
REMARK  13 active torsions:
REMARK  status: ('A' for Active; 'I' for Inactive)
REMARK    1  A    between atoms: C_1  and  N_2
REMARK    2  A    between atoms: N_2  and  C_3
REMARK    3  A    between atoms: N_2  and  C_4
REMARK    4  A    between atoms: C_4  and  C_5
REMARK    5  A    between atoms: C_5  and  N_6
REMARK    6  A    between atoms: C_7  and  C_9
REMARK    7  A    between atoms: C_12  and  O_13
REMARK    8  A    between atoms: O_13  and  C_14
REMARK    9  A    between atoms: C_14  and  C_15
REMARK   10  A    between atoms: C_15  and  C_16
REMARK   11  A    between atoms: C_15  and  C_17
REMARK   12  A    between atoms: C_15  and  C_18
REMARK   13  A    between atoms: C_22  and  C_23
REMARK                            x       y       z     vdW  Elec       q    Type
REMARK                         _______ _______ _______ _____ _____    ______ ____
ROOT
ATOM      1  O   UNL     1      45.075   5.091  12.947  0.00  0.00    +0.000 OA
ENDROOT
BRANCH   1   5
ATOM      2  C   UNL     1      48.719   6.983  12.677  0.00  0.00    +0.000 A 
ATOM      3  C   UNL     1      47.759   7.322  11.729  0.00  0.00    +0.000 A 
ATOM      4  C   UNL     1      46.509   6.708  11.782  0.00  0.00    +0.000 A 
ATOM      5  C   UNL     1      46.249   5.772  12.778  0.00  0.00    +0.000 A 
ATOM      6  C   UNL     1      47.273   5.503  13.688  0.00  0.00    +0.000 A 
ATOM      7  N   UNL     1      48.505   6.078  13.669  0.00  0.00    +0.000 NA
BRANCH   2   9
ATOM      8  N   UNL     1      50.770   7.501  11.447  0.00  0.00    +0.000 N 
ATOM      9  C   UNL     1      50.054   7.659  12.614  0.00  0.00    +0.000 C 
ATOM     10  O   UNL     1      50.468   8.318  13.566  0.00  0.00    +0.000 OA
ATOM     11  H   UNL     1      50.310   7.061  10.653  0.00  0.00    +0.000 HD
BRANCH   8  12
ATOM     12  C   UNL     1      52.048   8.160  11.276  0.00  0.00    +0.000 C 
BRANCH  12  13
ATOM     13  C   UNL     1      53.018   7.408  10.350  0.00  0.00    +0.000 C 
BRANCH  13  15
ATOM     14  C   UNL     1      54.814   8.357   9.006  0.00  0.00    +0.000 C 
ATOM     15  N   UNL     1      53.370   8.123   9.105  0.00  0.00    +0.000 NA
ATOM     16  C   UNL     1      52.925   7.345   7.944  0.00  0.00    +0.000 C 
ENDBRANCH  13  15
ENDBRANCH  12  13
ENDBRANCH   8  12
ENDBRANCH   2   9
ENDBRANCH   1   5
BRANCH   1  17
ATOM     17  C   UNL     1      45.054   3.719  12.520  0.00  0.00    +0.000 C 
BRANCH  17  18
ATOM     18  C   UNL     1      44.106   3.529  11.296  0.00  0.00    +0.000 C 
ATOM     19  C   UNL     1      43.371   2.174  11.415  0.00  0.00    +0.000 C 
ATOM     20  C   UNL     1      43.023   4.635  11.349  0.00  0.00    +0.000 C 
BRANCH  18  21
ATOM     21  C   UNL     1      44.927   3.552   9.989  0.00  0.00    +0.000 A 
ATOM     22  C   UNL     1      45.187   4.728   9.272  0.00  0.00    +0.000 A 
ATOM     23  C   UNL     1      45.929   4.674   8.094  0.00  0.00    +0.000 A 
ATOM     24  N   UNL     1      46.436   3.541   7.572  0.00  0.00    +0.000 NA
ATOM     25  C   UNL     1      46.181   2.401   8.268  0.00  0.00    +0.000 A 
ATOM     26  C   UNL     1      45.448   2.361   9.453  0.00  0.00    +0.000 A 
BRANCH  25  27
ATOM     27  C   UNL     1      46.738   1.134   7.699  0.00  0.00    +0.000 C 
ATOM     28  N   UNL     1      47.721   1.291   6.759  0.00  0.00    +0.000 N 
ATOM     29  O   UNL     1      46.348   0.026   8.046  0.00  0.00    +0.000 OA
ATOM     30  H   UNL     1      48.018   2.223   6.497  0.00  0.00    +0.000 HD
ATOM     31  H   UNL     1      48.140   0.477   6.331  0.00  0.00    +0.000 HD
ENDBRANCH  25  27
ENDBRANCH  18  21
ENDBRANCH  17  18
ENDBRANCH   1  17
TORSDOF 9
ENDMDL
MODEL 3
REMARK VINA RESULT:    -6.618      2.049      2.843
REMARK INTER + INTRA:         -10.914
REMARK INTER:                  -9.816
REMARK INTRA:                  -1.098
REMARK UNBOUND:                -0.815
REMARK  Name = 
REMARK  13 active torsions:
REMARK  status: ('A' for Active; 'I' for Inactive)
REMARK    1  A    between atoms: C_1  and  N_2
REMARK    2  A    between atoms: N_2  and  C_3
REMARK    3  A    between atoms: N_2  and  C_4
REMARK    4  A    between atoms: C_4  and  C_5
REMARK    5  A    between atoms: C_5  and  N_6
REMARK    6  A    between atoms: C_7  and  C_9
REMARK    7  A    between atoms: C_12  and  O_13
REMARK    8  A    between atoms: O_13  and  C_14
REMARK    9  A    between atoms: C_14  and  C_15
REMARK   10  A    between atoms: C_15  and  C_16
REMARK   11  A    between atoms: C_15  and  C_17
REMARK   12  A    between atoms: C_15  and  C_18
REMARK   13  A    between atoms: C_22  and  C_23
REMARK                            x       y       z     vdW  Elec       q    Type
REMARK                         _______ _______ _______ _____ _____    ______ ____
ROOT
ATOM      1  O   UNL     1      47.765   8.826  14.081  0.00  0.00    +0.000 OA
ENDROOT
BRANCH   1   5
ATOM      2  C   UNL     1      45.465   6.387  11.696  0.00  0.00    +0.000 A 
ATOM      3  C   UNL     1      46.689   5.882  12.121  0.00  0.00    +0.000 A 
ATOM      4  C   UNL     1      47.501   6.672  12.933  0.00  0.00    +0.000 A 
ATOM      5  C   UNL     1      47.073   7.944  13.298  0.00  0.00    +0.000 A 
ATOM      6  C   UNL     1      45.826   8.360  12.827  0.00  0.00    +0.000 A 
ATOM      7  N   UNL     1      45.006   7.622  12.033  0.00  0.00    +0.000 NA
BRANCH   2   9
ATOM      8  N   UNL     1      45.243   4.720   9.918  0.00  0.00    +0.000 N 
ATOM      9  C   UNL     1      44.598   5.523  10.834  0.00  0.00    +0.000 C 
ATOM     10  O   UNL     1      43.374   5.542  10.956  0.00  0.00    +0.000 OA
ATOM     11  H   UNL     1      46.257   4.652   9.965  0.00  0.00    +0.000 HD
BRANCH   8  12
ATOM     12  C   UNL     1      44.490   3.814   9.077  0.00  0.00    +0.000 C 
BRANCH  12  13
ATOM     13  C   UNL     1      45.149   2.436   8.898  0.00  0.00    +0.000 C 
BRANCH  13  15
ATOM     14  C   UNL     1      46.753   1.073   7.672  0.00  0.00    +0.000 C 
ATOM     15  N   UNL     1      46.367   2.433   8.060  0.00  0.00    +0.000 NA
ATOM     16  C   UNL     1      46.141   3.235   6.853  0.00  0.00    +0.000 C 
ENDBRANCH  13  15
ENDBRANCH  12  13
ENDBRANCH   8  12
ENDBRANCH   2   9
ENDBRANCH   1   5
BRANCH   1  17
ATOM     17  C   UNL     1      49.129   8.492  14.385  0.00  0.00    +0.000 C 
BRANCH  17  18
ATOM     18  C   UNL     1      49.358   8.425  15.927  0.00  0.00    +0.000 C 
ATOM     19  C   UNL     1      50.666   9.165  16.289  0.00  0.00    +0.000 C 
ATOM     20  C   UNL     1      48.202   9.187  16.619  0.00  0.00    +0.000 C 
BRANCH  18  21
ATOM     21  C   UNL     1      49.464   6.952  16.376  0.00  0.00    +0.000 A 
ATOM     22  C   UNL     1      50.614   6.419  16.977  0.00  0.00    +0.000 A 
ATOM     23  C   UNL     1      50.644   5.077  17.351  0.00  0.00    +0.000 A 
ATOM     24  N   UNL     1      49.620   4.221  17.175  0.00  0.00    +0.000 NA
ATOM     25  C   UNL     1      48.507   4.739  16.589  0.00  0.00    +0.000 A 
ATOM     26  C   UNL     1      48.389   6.067  16.184  0.00  0.00    +0.000 A 
BRANCH  25  27
ATOM     27  C   UNL     1      47.361   3.798  16.387  0.00  0.00    +0.000 C 
ATOM     28  N   UNL     1      47.073   3.490  15.084  0.00  0.00    +0.000 N 
ATOM     29  O   UNL     1      46.720   3.329  17.319  0.00  0.00    +0.000 OA
ATOM     30  H   UNL     1      47.626   3.898  14.340  0.00  0.00    +0.000 HD
ATOM     31  H   UNL     1      46.309   2.862  14.874  0.00  0.00    +0.000 HD
ENDBRANCH  25  27
ENDBRANCH  18  21
ENDBRANCH  17  18
ENDBRANCH   1  17
TORSDOF 9
ENDMDL
MODEL 4
REMARK VINA RESULT:    -6.583      4.247      8.940
REMARK INTER + INTRA:         -10.861
REMARK INTER:                  -9.513
REMARK INTRA:                  -1.348
REMARK UNBOUND:                -0.815
REMARK  Name = 
REMARK  13 active torsions:
REMARK  status: ('A' for Active; 'I' for Inactive)
REMARK    1  A    between atoms: C_1  and  N_2
REMARK    2  A    between atoms: N_2  and  C_3
REMARK    3  A    between atoms: N_2  and  C_4
REMARK    4  A    between atoms: C_4  and  C_5
REMARK    5  A    between atoms: C_5  and  N_6
REMARK    6  A    between atoms: C_7  and  C_9
REMARK    7  A    between atoms: C_12  and  O_13
REMARK    8  A    between atoms: O_13  and  C_14
REMARK    9  A    between atoms: C_14  and  C_15
REMARK   10  A    between atoms: C_15  and  C_16
REMARK   11  A    between atoms: C_15  and  C_17
REMARK   12  A    between atoms: C_15  and  C_18
REMARK   13  A    between atoms: C_22  and  C_23
REMARK                            x       y       z     vdW  Elec       q    Type
REMARK                         _______ _______ _______ _____ _____    ______ ____
ROOT
ATOM      1  O   UNL     1      44.943   4.895  13.157  0.00  0.00    +0.000 OA
ENDROOT
BRANCH   1   5
ATOM      2  C   UNL     1      48.258   7.265  12.587  0.00  0.00    +0.000 A 
ATOM      3  C   UNL     1      47.048   7.741  12.093  0.00  0.00    +0.000 A 
ATOM      4  C   UNL     1      45.898   6.974  12.265  0.00  0.00    +0.000 A 
ATOM      5  C   UNL     1      45.984   5.751  12.923  0.00  0.00    +0.000 A 
ATOM      6  C   UNL     1      47.241   5.360  13.388  0.00  0.00    +0.000 A 
ATOM      7  N   UNL     1      48.386   6.078  13.240  0.00  0.00    +0.000 NA
BRANCH   2   9
ATOM      8  N   UNL     1      50.584   7.763  13.163  0.00  0.00    +0.000 N 
ATOM      9  C   UNL     1      49.484   8.105  12.405  0.00  0.00    +0.000 C 
ATOM     10  O   UNL     1      49.488   9.045  11.612  0.00  0.00    +0.000 OA
ATOM     11  H   UNL     1      50.555   6.895  13.693  0.00  0.00    +0.000 HD
BRANCH   8  12
ATOM     12  C   UNL     1      51.829   8.487  13.017  0.00  0.00    +0.000 C 
BRANCH  12  13
ATOM     13  C   UNL     1      52.109   9.482  14.155  0.00  0.00    +0.000 C 
BRANCH  13  15
ATOM     14  C   UNL     1      52.303  11.105  12.349  0.00  0.00    +0.000 C 
ATOM     15  N   UNL     1      52.016  10.907  13.773  0.00  0.00    +0.000 NA
ATOM     16  C   UNL     1      50.673  11.415  14.072  0.00  0.00    +0.000 C 
ENDBRANCH  13  15
ENDBRANCH  12  13
ENDBRANCH   8  12
ENDBRANCH   2   9
ENDBRANCH   1   5
BRANCH   1  17
ATOM     17  C   UNL     1      45.036   3.585  12.572  0.00  0.00    +0.000 C 
BRANCH  17  18
ATOM     18  C   UNL     1      44.097   3.458  11.334  0.00  0.00    +0.000 C 
ATOM     19  C   UNL     1      43.350   2.106  11.386  0.00  0.00    +0.000 C 
ATOM     20  C   UNL     1      43.025   4.571  11.425  0.00  0.00    +0.000 C 
BRANCH  18  21
ATOM     21  C   UNL     1      44.931   3.530  10.036  0.00  0.00    +0.000 A 
ATOM     22  C   UNL     1      45.190   4.732   9.361  0.00  0.00    +0.000 A 
ATOM     23  C   UNL     1      45.944   4.722   8.189  0.00  0.00    +0.000 A 
ATOM     24  N   UNL     1      46.463   3.610   7.634  0.00  0.00    +0.000 NA
ATOM     25  C   UNL     1      46.209   2.445   8.289  0.00  0.00    +0.000 A 
ATOM     26  C   UNL     1      45.465   2.361   9.465  0.00  0.00    +0.000 A 
BRANCH  25  27
ATOM     27  C   UNL     1      46.779   1.202   7.683  0.00  0.00    +0.000 C 
ATOM     28  N   UNL     1      47.796   1.395   6.786  0.00  0.00    +0.000 N 
ATOM     29  O   UNL     1      46.372   0.082   7.967  0.00  0.00    +0.000 OA
ATOM     30  H   UNL     1      48.106   2.336   6.576  0.00  0.00    +0.000 HD
ATOM     31  H   UNL     1      48.226   0.599   6.336  0.00  0.00    +0.000 HD
ENDBRANCH  25  27
ENDBRANCH  18  21
ENDBRANCH  17  18
ENDBRANCH   1  17
TORSDOF 9
ENDMDL
MODEL 5
REMARK VINA RESULT:    -6.216      2.007      2.799
REMARK INTER + INTRA:         -10.302
REMARK INTER:                  -9.006
REMARK INTRA:                  -1.296
REMARK UNBOUND:                -0.815
REMARK  Name = 
REMARK  13 active torsions:
REMARK  status: ('A' for Active; 'I' for Inactive)
REMARK    1  A    between atoms: C_1  and  N_2
REMARK    2  A    between atoms: N_2  and  C_3
REMARK    3  A    between atoms: N_2  and  C_4
REMARK    4  A    between atoms: C_4  and  C_5
REMARK    5  A    between atoms: C_5  and  N_6
REMARK    6  A    between atoms: C_7  and  C_9
REMARK    7  A    between atoms: C_12  and  O_13
REMARK    8  A    between atoms: O_13  and  C_14
REMARK    9  A    between atoms: C_14  and  C_15
REMARK   10  A    between atoms: C_15  and  C_16
REMARK   11  A    between atoms: C_15  and  C_17
REMARK   12  A    between atoms: C_15  and  C_18
REMARK   13  A    between atoms: C_22  and  C_23
REMARK                            x       y       z     vdW  Elec       q    Type
REMARK                         _______ _______ _______ _____ _____    ______ ____
ROOT
ATOM      1  O   UNL     1      49.498   8.673  14.747  0.00  0.00    +0.000 OA
ENDROOT
BRANCH   1   5
ATOM      2  C   UNL     1      46.331   7.024  12.703  0.00  0.00    +0.000 A 
ATOM      3  C   UNL     1      47.513   6.290  12.736  0.00  0.00    +0.000 A 
ATOM      4  C   UNL     1      48.612   6.809  13.418  0.00  0.00    +0.000 A 
ATOM      5  C   UNL     1      48.505   8.044  14.050  0.00  0.00    +0.000 A 
ATOM      6  C   UNL     1      47.277   8.702  13.967  0.00  0.00    +0.000 A 
ATOM      7  N   UNL     1      46.182   8.232  13.310  0.00  0.00    +0.000 NA
BRANCH   2   9
ATOM      8  N   UNL     1      44.840   5.137  12.253  0.00  0.00    +0.000 N 
ATOM      9  C   UNL     1      45.155   6.450  11.976  0.00  0.00    +0.000 C 
ATOM     10  O   UNL     1      44.516   7.134  11.179  0.00  0.00    +0.000 OA
ATOM     11  H   UNL     1      45.323   4.675  13.020  0.00  0.00    +0.000 HD
BRANCH   8  12
ATOM     12  C   UNL     1      43.688   4.513  11.636  0.00  0.00    +0.000 C 
BRANCH  12  13
ATOM     13  C   UNL     1      44.006   3.192  10.918  0.00  0.00    +0.000 C 
BRANCH  13  15
ATOM     14  C   UNL     1      45.152   2.021   9.115  0.00  0.00    +0.000 C 
ATOM     15  N   UNL     1      44.944   3.310   9.781  0.00  0.00    +0.000 NA
ATOM     16  C   UNL     1      44.425   4.279   8.809  0.00  0.00    +0.000 C 
ENDBRANCH  13  15
ENDBRANCH  12  13
ENDBRANCH   8  12
ENDBRANCH   2   9
ENDBRANCH   1   5
BRANCH   1  17
ATOM     17  C   UNL     1      50.609   7.864  15.168  0.00  0.00    +0.000 C 
BRANCH  17  18
ATOM     18  C   UNL     1      50.529   7.555  16.695  0.00  0.00    +0.000 C 
ATOM     19  C   UNL     1      51.875   7.911  17.367  0.00  0.00    +0.000 C 
ATOM     20  C   UNL     1      49.455   8.479  17.318  0.00  0.00    +0.000 C 
BRANCH  18  21
ATOM     21  C   UNL     1      50.233   6.055  16.909  0.00  0.00    +0.000 A 
ATOM     22  C   UNL     1      51.202   5.143  17.351  0.00  0.00    +0.000 A 
ATOM     23  C   UNL     1      50.868   3.800  17.516  0.00  0.00    +0.000 A 
ATOM     24  N   UNL     1      49.644   3.291  17.277  0.00  0.00    +0.000 NA
ATOM     25  C   UNL     1      48.707   4.177  16.846  0.00  0.00    +0.000 A 
ATOM     26  C   UNL     1      48.952   5.536  16.654  0.00  0.00    +0.000 A 
BRANCH  25  27
ATOM     27  C   UNL     1      47.342   3.626  16.576  0.00  0.00    +0.000 C 
ATOM     28  N   UNL     1      46.920   3.705  15.276  0.00  0.00    +0.000 N 
ATOM     29  O   UNL     1      46.644   3.132  17.452  0.00  0.00    +0.000 OA
ATOM     30  H   UNL     1      47.526   4.120  14.578  0.00  0.00    +0.000 HD
ATOM     31  H   UNL     1      46.007   3.354  15.022  0.00  0.00    +0.000 HD
ENDBRANCH  25  27
ENDBRANCH  18  21
ENDBRANCH  17  18
ENDBRANCH   1  17
TORSDOF 9
ENDMDL
MODEL 6
REMARK VINA RESULT:    -6.212      4.627      8.633
REMARK INTER + INTRA:         -10.295
REMARK INTER:                  -9.248
REMARK INTRA:                  -1.047
REMARK UNBOUND:                -0.815
REMARK  Name = 
REMARK  13 active torsions:
REMARK  status: ('A' for Active; 'I' for Inactive)
REMARK    1  A    between atoms: C_1  and  N_2
REMARK    2  A    between atoms: N_2  and  C_3
REMARK    3  A    between atoms: N_2  and  C_4
REMARK    4  A    between atoms: C_4  and  C_5
REMARK    5  A    between atoms: C_5  and  N_6
REMARK    6  A    between atoms: C_7  and  C_9
REMARK    7  A    between atoms: C_12  and  O_13
REMARK    8  A    between atoms: O_13  and  C_14
REMARK    9  A    between atoms: C_14  and  C_15
REMARK   10  A    between atoms: C_15  and  C_16
REMARK   11  A    between atoms: C_15  and  C_17
REMARK   12  A    between atoms: C_15  and  C_18
REMARK   13  A    between atoms: C_22  and  C_23
REMARK                            x       y       z     vdW  Elec       q    Type
REMARK                         _______ _______ _______ _____ _____    ______ ____
ROOT
ATOM      1  O   UNL     1      44.803   4.436  13.103  0.00  0.00    +0.000 OA
ENDROOT
BRANCH   1   5
ATOM      2  C   UNL     1      47.398   7.625  12.949  0.00  0.00    +0.000 A 
ATOM      3  C   UNL     1      47.947   6.376  13.224  0.00  0.00    +0.000 A 
ATOM      4  C   UNL     1      47.106   5.267  13.284  0.00  0.00    +0.000 A 
ATOM      5  C   UNL     1      45.741   5.430  13.069  0.00  0.00    +0.000 A 
ATOM      6  C   UNL     1      45.286   6.721  12.794  0.00  0.00    +0.000 A 
ATOM      7  N   UNL     1      46.072   7.828  12.728  0.00  0.00    +0.000 NA
BRANCH   2   9
ATOM      8  N   UNL     1      48.788   9.144  11.626  0.00  0.00    +0.000 N 
ATOM      9  C   UNL     1      48.315   8.806  12.876  0.00  0.00    +0.000 C 
ATOM     10  O   UNL     1      48.614   9.431  13.892  0.00  0.00    +0.000 OA
ATOM     11  H   UNL     1      48.393   8.671  10.816  0.00  0.00    +0.000 HD
BRANCH   8  12
ATOM     12  C   UNL     1      49.639  10.302  11.452  0.00  0.00    +0.000 C 
BRANCH  12  13
ATOM     13  C   UNL     1      51.072   9.962  11.011  0.00  0.00    +0.000 C 
BRANCH  13  15
ATOM     14  C   UNL     1      52.417   8.035  10.370  0.00  0.00    +0.000 C 
ATOM     15  N   UNL     1      51.536   8.611  11.391  0.00  0.00    +0.000 NA
ATOM     16  C   UNL     1      52.253   8.674  12.669  0.00  0.00    +0.000 C 
ENDBRANCH  13  15
ENDBRANCH  12  13
ENDBRANCH   8  12
ENDBRANCH   2   9
ENDBRANCH   1   5
BRANCH   1  17
ATOM     17  C   UNL     1      45.078   3.256  12.330  0.00  0.00    +0.000 C 
BRANCH  17  18
ATOM     18  C   UNL     1      44.157   3.184  11.073  0.00  0.00    +0.000 C 
ATOM     19  C   UNL     1      43.429   1.819  11.042  0.00  0.00    +0.000 C 
ATOM     20  C   UNL     1      43.066   4.274  11.211  0.00  0.00    +0.000 C 
BRANCH  18  21
ATOM     21  C   UNL     1      45.006   3.338   9.793  0.00  0.00    +0.000 A 
ATOM     22  C   UNL     1      45.207   4.570   9.156  0.00  0.00    +0.000 A 
ATOM     23  C   UNL     1      45.979   4.636   7.997  0.00  0.00    +0.000 A 
ATOM     24  N   UNL     1      46.570   3.571   7.422  0.00  0.00    +0.000 NA
ATOM     25  C   UNL     1      46.371   2.376   8.041  0.00  0.00    +0.000 A 
ATOM     26  C   UNL     1      45.615   2.218   9.201  0.00  0.00    +0.000 A 
BRANCH  25  27
ATOM     27  C   UNL     1      47.022   1.184   7.412  0.00  0.00    +0.000 C 
ATOM     28  N   UNL     1      46.561  -0.033   7.839  0.00  0.00    +0.000 N 
ATOM     29  O   UNL     1      47.905   1.281   6.570  0.00  0.00    +0.000 OA
ATOM     30  H   UNL     1      45.828  -0.074   8.537  0.00  0.00    +0.000 HD
ATOM     31  H   UNL     1      46.957  -0.881   7.458  0.00  0.00    +0.000 HD
ENDBRANCH  25  27
ENDBRANCH  18  21
ENDBRANCH  17  18
ENDBRANCH   1  17
TORSDOF 9
ENDMDL
MODEL 7
REMARK VINA RESULT:    -6.188      2.211      9.188
REMARK INTER + INTRA:         -10.258
REMARK INTER:                  -9.397
REMARK INTRA:                  -0.861
REMARK UNBOUND:                -0.815
REMARK  Name = 
REMARK  13 active torsions:
REMARK  status: ('A' for Active; 'I' for Inactive)
REMARK    1  A    between atoms: C_1  and  N_2
REMARK    2  A    between atoms: N_2  and  C_3
REMARK    3  A    between atoms: N_2  and  C_4
REMARK    4  A    between atoms: C_4  and  C_5
REMARK    5  A    between atoms: C_5  and  N_6
REMARK    6  A    between atoms: C_7  and  C_9
REMARK    7  A    between atoms: C_12  and  O_13
REMARK    8  A    between atoms: O_13  and  C_14
REMARK    9  A    between atoms: C_14  and  C_15
REMARK   10  A    between atoms: C_15  and  C_16
REMARK   11  A    between atoms: C_15  and  C_17
REMARK   12  A    between atoms: C_15  and  C_18
REMARK   13  A    between atoms: C_22  and  C_23
REMARK                            x       y       z     vdW  Elec       q    Type
REMARK                         _______ _______ _______ _____ _____    ______ ____
ROOT
ATOM      1  O   UNL     1      45.173   4.056  13.512  0.00  0.00    +0.000 OA
ENDROOT
BRANCH   1   5
ATOM      2  C   UNL     1      48.420   6.283  14.709  0.00  0.00    +0.000 A 
ATOM      3  C   UNL     1      47.809   6.649  13.514  0.00  0.00    +0.000 A 
ATOM      4  C   UNL     1      46.704   5.924  13.070  0.00  0.00    +0.000 A 
ATOM      5  C   UNL     1      46.238   4.855  13.827  0.00  0.00    +0.000 A 
ATOM      6  C   UNL     1      46.913   4.568  15.015  0.00  0.00    +0.000 A 
ATOM      7  N   UNL     1      47.994   5.249  15.482  0.00  0.00    +0.000 NA
BRANCH   2   9
ATOM      8  N   UNL     1      50.036   6.829  16.463  0.00  0.00    +0.000 N 
ATOM      9  C   UNL     1      49.599   7.077  15.180  0.00  0.00    +0.000 C 
ATOM     10  O   UNL     1      50.135   7.901  14.441  0.00  0.00    +0.000 OA
ATOM     11  H   UNL     1      49.635   6.042  16.967  0.00  0.00    +0.000 HD
BRANCH   8  12
ATOM     12  C   UNL     1      51.200   7.512  16.986  0.00  0.00    +0.000 C 
BRANCH  12  13
ATOM     13  C   UNL     1      52.044   6.659  17.948  0.00  0.00    +0.000 C 
BRANCH  13  15
ATOM     14  C   UNL     1      52.814   4.352  17.820  0.00  0.00    +0.000 C 
ATOM     15  N   UNL     1      51.659   5.233  18.016  0.00  0.00    +0.000 NA
ATOM     16  C   UNL     1      51.047   4.947  19.317  0.00  0.00    +0.000 C 
ENDBRANCH  13  15
ENDBRANCH  12  13
ENDBRANCH   8  12
ENDBRANCH   2   9
ENDBRANCH   1   5
BRANCH   1  17
ATOM     17  C   UNL     1      45.345   3.151  12.410  0.00  0.00    +0.000 C 
BRANCH  17  18
ATOM     18  C   UNL     1      44.158   3.263  11.404  0.00  0.00    +0.000 C 
ATOM     19  C   UNL     1      43.197   2.067  11.601  0.00  0.00    +0.000 C 
ATOM     20  C   UNL     1      43.359   4.545  11.743  0.00  0.00    +0.000 C 
BRANCH  18  21
ATOM     21  C   UNL     1      44.696   3.251   9.957  0.00  0.00    +0.000 A 
ATOM     22  C   UNL     1      44.399   4.257   9.026  0.00  0.00    +0.000 A 
ATOM     23  C   UNL     1      44.912   4.179   7.733  0.00  0.00    +0.000 A 
ATOM     24  N   UNL     1      45.699   3.180   7.291  0.00  0.00    +0.000 NA
ATOM     25  C   UNL     1      45.983   2.204   8.195  0.00  0.00    +0.000 A 
ATOM     26  C   UNL     1      45.514   2.201   9.508  0.00  0.00    +0.000 A 
BRANCH  25  27
ATOM     27  C   UNL     1      46.856   1.086   7.717  0.00  0.00    +0.000 C 
ATOM     28  N   UNL     1      47.912   1.458   6.928  0.00  0.00    +0.000 N 
ATOM     29  O   UNL     1      46.650  -0.084   8.010  0.00  0.00    +0.000 OA
ATOM     30  H   UNL     1      48.051   2.437   6.707  0.00  0.00    +0.000 HD
ATOM     31  H   UNL     1      48.541   0.754   6.568  0.00  0.00    +0.000 HD
ENDBRANCH  25  27
ENDBRANCH  18  21
ENDBRANCH  17  18
ENDBRANCH   1  17
TORSDOF 9
ENDMDL
MODEL 8
REMARK VINA RESULT:    -6.014      2.230      9.176
REMARK INTER + INTRA:          -9.993
REMARK INTER:                  -9.093
REMARK INTRA:                  -0.900
REMARK UNBOUND:                -0.815
REMARK  Name = 
REMARK  13 active torsions:
REMARK  status: ('A' for Active; 'I' for Inactive)
REMARK    1  A    between atoms: C_1  and  N_2
REMARK    2  A    between atoms: N_2  and  C_3
REMARK    3  A    between atoms: N_2  and  C_4
REMARK    4  A    between atoms: C_4  and  C_5
REMARK    5  A    between atoms: C_5  and  N_6
REMARK    6  A    between atoms: C_7  and  C_9
REMARK    7  A    between atoms: C_12  and  O_13
REMARK    8  A    between atoms: O_13  and  C_14
REMARK    9  A    between atoms: C_14  and  C_15
REMARK   10  A    between atoms: C_15  and  C_16
REMARK   11  A    between atoms: C_15  and  C_17
REMARK   12  A    between atoms: C_15  and  C_18
REMARK   13  A    between atoms: C_22  and  C_23
REMARK                            x       y       z     vdW  Elec       q    Type
REMARK                         _______ _______ _______ _____ _____    ______ ____
ROOT
ATOM      1  O   UNL     1      46.170   4.529  12.927  0.00  0.00    +0.000 OA
ENDROOT
BRANCH   1   5
ATOM      2  C   UNL     1      48.475   5.621  16.155  0.00  0.00    +0.000 A 
ATOM      3  C   UNL     1      47.668   4.498  16.307  0.00  0.00    +0.000 A 
ATOM      4  C   UNL     1      46.871   4.090  15.239  0.00  0.00    +0.000 A 
ATOM      5  C   UNL     1      46.899   4.810  14.049  0.00  0.00    +0.000 A 
ATOM      6  C   UNL     1      47.746   5.918  13.991  0.00  0.00    +0.000 A 
ATOM      7  N   UNL     1      48.537   6.350  15.009  0.00  0.00    +0.000 NA
BRANCH   2   9
ATOM      8  N   UNL     1      50.670   6.254  17.034  0.00  0.00    +0.000 N 
ATOM      9  C   UNL     1      49.335   6.042  17.307  0.00  0.00    +0.000 C 
ATOM     10  O   UNL     1      48.852   6.188  18.428  0.00  0.00    +0.000 OA
ATOM     11  H   UNL     1      50.971   6.248  16.063  0.00  0.00    +0.000 HD
BRANCH   8  12
ATOM     12  C   UNL     1      51.566   6.712  18.074  0.00  0.00    +0.000 C 
BRANCH  12  13
ATOM     13  C   UNL     1      52.484   5.613  18.635  0.00  0.00    +0.000 C 
BRANCH  13  15
ATOM     14  C   UNL     1      54.395   4.632  17.488  0.00  0.00    +0.000 C 
ATOM     15  N   UNL     1      52.937   4.615  17.644  0.00  0.00    +0.000 NA
ATOM     16  C   UNL     1      52.510   3.274  18.059  0.00  0.00    +0.000 C 
ENDBRANCH  13  15
ENDBRANCH  12  13
ENDBRANCH   8  12
ENDBRANCH   2   9
ENDBRANCH   1   5
BRANCH   1  17
ATOM     17  C   UNL     1      44.825   5.035  12.883  0.00  0.00    +0.000 C 
BRANCH  17  18
ATOM     18  C   UNL     1      44.431   5.448  11.432  0.00  0.00    +0.000 C 
ATOM     19  C   UNL     1      42.949   5.888  11.403  0.00  0.00    +0.000 C 
ATOM     20  C   UNL     1      45.277   6.683  11.035  0.00  0.00    +0.000 C 
BRANCH  18  21
ATOM     21  C   UNL     1      44.626   4.251  10.476  0.00  0.00    +0.000 A 
ATOM     22  C   UNL     1      43.986   3.017  10.660  0.00  0.00    +0.000 A 
ATOM     23  C   UNL     1      44.214   1.976   9.762  0.00  0.00    +0.000 A 
ATOM     24  N   UNL     1      45.028   2.065   8.693  0.00  0.00    +0.000 NA
ATOM     25  C   UNL     1      45.649   3.262   8.518  0.00  0.00    +0.000 A 
ATOM     26  C   UNL     1      45.481   4.356   9.365  0.00  0.00    +0.000 A 
BRANCH  25  27
ATOM     27  C   UNL     1      46.558   3.375   7.334  0.00  0.00    +0.000 C 
ATOM     28  N   UNL     1      47.458   2.354   7.182  0.00  0.00    +0.000 N 
ATOM     29  O   UNL     1      46.505   4.312   6.548  0.00  0.00    +0.000 OA
ATOM     30  H   UNL     1      47.472   1.595   7.852  0.00  0.00    +0.000 HD
ATOM     31  H   UNL     1      48.104   2.367   6.405  0.00  0.00    +0.000 HD
ENDBRANCH  25  27
ENDBRANCH  18  21
ENDBRANCH  17  18
ENDBRANCH   1  17
TORSDOF 9
ENDMDL
MODEL 9
REMARK VINA RESULT:    -5.690      1.881      2.925
REMARK INTER + INTRA:          -9.499
REMARK INTER:                  -8.508
REMARK INTRA:                  -0.991
REMARK UNBOUND:                -0.815
REMARK  Name = 
REMARK  13 active torsions:
REMARK  status: ('A' for Active; 'I' for Inactive)
REMARK    1  A    between atoms: C_1  and  N_2
REMARK    2  A    between atoms: N_2  and  C_3
REMARK    3  A    between atoms: N_2  and  C_4
REMARK    4  A    between atoms: C_4  and  C_5
REMARK    5  A    between atoms: C_5  and  N_6
REMARK    6  A    between atoms: C_7  and  C_9
REMARK    7  A    between atoms: C_12  and  O_13
REMARK    8  A    between atoms: O_13  and  C_14
REMARK    9  A    between atoms: C_14  and  C_15
REMARK   10  A    between atoms: C_15  and  C_16
REMARK   11  A    between atoms: C_15  and  C_17
REMARK   12  A    between atoms: C_15  and  C_18
REMARK   13  A    between atoms: C_22  and  C_23
REMARK                            x       y       z     vdW  Elec       q    Type
REMARK                         _______ _______ _______ _____ _____    ______ ____
ROOT
ATOM      1  O   UNL     1      51.311   7.779  15.909  0.00  0.00    +0.000 OA
ENDROOT
BRANCH   1   5
ATOM      2  C   UNL     1      48.074   6.527  13.700  0.00  0.00    +0.000 A 
ATOM      3  C   UNL     1      48.967   7.393  13.077  0.00  0.00    +0.000 A 
ATOM      4  C   UNL     1      50.080   7.842  13.786  0.00  0.00    +0.000 A 
ATOM      5  C   UNL     1      50.273   7.417  15.097  0.00  0.00    +0.000 A 
ATOM      6  C   UNL     1      49.326   6.543  15.633  0.00  0.00    +0.000 A 
ATOM      7  N   UNL     1      48.228   6.083  14.976  0.00  0.00    +0.000 NA
BRANCH   2   9
ATOM      8  N   UNL     1      45.939   5.333  13.626  0.00  0.00    +0.000 N 
ATOM      9  C   UNL     1      46.889   6.044  12.923  0.00  0.00    +0.000 C 
ATOM     10  O   UNL     1      46.788   6.283  11.721  0.00  0.00    +0.000 OA
ATOM     11  H   UNL     1      46.019   5.291  14.639  0.00  0.00    +0.000 HD
BRANCH   8  12
ATOM     12  C   UNL     1      44.736   4.870  12.969  0.00  0.00    +0.000 C 
BRANCH  12  13
ATOM     13  C   UNL     1      44.889   3.506  12.275  0.00  0.00    +0.000 C 
BRANCH  13  15
ATOM     14  C   UNL     1      43.564   4.624  10.564  0.00  0.00    +0.000 C 
ATOM     15  N   UNL     1      44.092   3.342  11.041  0.00  0.00    +0.000 NA
ATOM     16  C   UNL     1      44.920   2.739   9.991  0.00  0.00    +0.000 C 
ENDBRANCH  13  15
ENDBRANCH  12  13
ENDBRANCH   8  12
ENDBRANCH   2   9
ENDBRANCH   1   5
BRANCH   1  17
ATOM     17  C   UNL     1      52.481   6.945  15.879  0.00  0.00    +0.000 C 
BRANCH  17  18
ATOM     18  C   UNL     1      52.917   6.542  17.322  0.00  0.00    +0.000 C 
ATOM     19  C   UNL     1      54.417   6.864  17.519  0.00  0.00    +0.000 C 
ATOM     20  C   UNL     1      52.131   7.419  18.326  0.00  0.00    +0.000 C 
BRANCH  18  21
ATOM     21  C   UNL     1      52.688   5.030  17.534  0.00  0.00    +0.000 A 
ATOM     22  C   UNL     1      53.714   4.148  17.905  0.00  0.00    +0.000 A 
ATOM     23  C   UNL     1      53.438   2.792  18.071  0.00  0.00    +0.000 A 
ATOM     24  N   UNL     1      52.221   2.242  17.899  0.00  0.00    +0.000 NA
ATOM     25  C   UNL     1      51.229   3.099  17.536  0.00  0.00    +0.000 A 
ATOM     26  C   UNL     1      51.413   4.467  17.347  0.00  0.00    +0.000 A 
BRANCH  25  27
ATOM     27  C   UNL     1      49.871   2.501  17.340  0.00  0.00    +0.000 C 
ATOM     28  N   UNL     1      48.968   2.745  18.341  0.00  0.00    +0.000 N 
ATOM     29  O   UNL     1      49.577   1.838  16.354  0.00  0.00    +0.000 OA
ATOM     30  H   UNL     1      49.247   3.299  19.142  0.00  0.00    +0.000 HD
ATOM     31  H   UNL     1      48.032   2.370  18.275  0.00  0.00    +0.000 HD
ENDBRANCH  25  27
ENDBRANCH  18  21
ENDBRANCH  17  18
ENDBRANCH   1  17
TORSDOF 9
ENDMDL
