MODEL 1
REMARK VINA RESULT:    -7.597      0.000      0.000
REMARK INTER + INTRA:         -10.106
REMARK INTER:                 -10.040
REMARK INTRA:                  -0.066
REMARK UNBOUND:                -0.066
REMARK  Name = 
REMARK  9 active torsions:
REMARK  status: ('A' for Active; 'I' for Inactive)
REMARK    1  A    between atoms: C_1  and  C_2
REMARK    2  A    between atoms: C_8  and  O_9
REMARK    3  A    between atoms: O_9  and  C_10
REMARK    4  A    between atoms: C_10  and  C_11
REMARK    5  A    between atoms: C_11  and  C_12
REMARK    6  A    between atoms: C_11  and  C_13
REMARK    7  A    between atoms: C_11  and  C_14
REMARK    8  A    between atoms: CA_18  and  C_19
REMARK    9  A    between atoms: C_19  and  O_20
REMARK                            x       y       z     vdW  Elec       q    Type
REMARK                         _______ _______ _______ _____ _____    ______ ____
ROOT
ATOM      1  C   UNL     1      43.997   3.836  10.051  0.00  0.00    +0.000 C 
ENDROOT
BRANCH   1   2
ATOM      2  C   UNL     1      43.761   4.082  11.562  0.00  0.00    +0.000 C 
ATOM      3  C   UNL     1      42.574   5.041  11.757  0.00  0.00    +0.000 C 
ATOM      4  C   UNL     1      43.462   2.750  12.269  0.00  0.00    +0.000 C 
BRANCH   2   5
ATOM      5  C   UNL     1      45.028   4.709  12.150  0.00  0.00    +0.000 A 
ATOM      6  N   UNL     1      45.581   5.757  11.505  0.00  0.00    +0.000 NA
ATOM      7  C   UNL     1      46.674   6.312  12.053  0.00  0.00    +0.000 A 
ATOM      8  C   UNL     1      47.235   5.868  13.222  0.00  0.00    +0.000 A 
ATOM      9  CA  UNL     1      46.613   4.793  13.824  0.00  0.00    +0.000 A 
ATOM     10  N   UNL     1      45.517   4.197  13.296  0.00  0.00    +0.000 NA
BRANCH   9  11
ATOM     11  C   UNL     1      47.148   4.240  15.120  0.00  0.00    +0.000 C 
BRANCH  11  12
ATOM     12  O   UNL     1      47.723   2.951  14.927  0.00  0.00    +0.000 OA
ATOM     13  H   UNL     1      47.361   2.386  15.633  0.00  0.00    +0.000 HD
ENDBRANCH  11  12
ENDBRANCH   9  11
ENDBRANCH   2   5
ENDBRANCH   1   2
BRANCH   1  14
ATOM     14  O   UNL     1      44.671   2.615   9.774  0.00  0.00    +0.000 OA
BRANCH  14  22
ATOM     15  C   UNL     1      46.077   5.108   8.341  0.00  0.00    +0.000 C 
ATOM     16  C   UNL     1      46.269   3.640   8.115  0.00  0.00    +0.000 A 
ATOM     17  N   UNL     1      47.192   3.390   7.148  0.00  0.00    +0.000 NA
ATOM     18  C   UNL     1      47.477   2.122   6.849  0.00  0.00    +0.000 A 
ATOM     19  N   UNL     1      48.412   1.904   5.861  0.00  0.00    +0.000 N 
ATOM     20  N   UNL     1      46.886   1.068   7.401  0.00  0.00    +0.000 NA
ATOM     21  C   UNL     1      45.975   1.343   8.359  0.00  0.00    +0.000 A 
ATOM     22  C   UNL     1      45.610   2.613   8.781  0.00  0.00    +0.000 A 
ATOM     23  H   UNL     1      48.463   2.719   5.265  0.00  0.00    +0.000 HD
ATOM     24  H   UNL     1      48.237   1.012   5.419  0.00  0.00    +0.000 HD
ENDBRANCH  14  22
ENDBRANCH   1  14
TORSDOF 6
ENDMDL
MODEL 2
REMARK VINA RESULT:    -7.259      2.307      5.868
REMARK INTER + INTRA:          -9.659
REMARK INTER:                  -8.946
REMARK INTRA:                  -0.713
REMARK UNBOUND:                -0.066
REMARK  Name = 
REMARK  9 active torsions:
REMARK  status: ('A' for Active; 'I' for Inactive)
REMARK    1  A    between atoms: C_1  and  C_2
REMARK    2  A    between atoms: C_8  and  O_9
REMARK    3  A    between atoms: O_9  and  C_10
REMARK    4  A    between atoms: C_10  and  C_11
REMARK    5  A    between atoms: C_11  and  C_12
REMARK    6  A    between atoms: C_11  and  C_13
REMARK    7  A    between atoms: C_11  and  C_14
REMARK    8  A    between atoms: CA_18  and  C_19
REMARK    9  A    between atoms: C_19  and  O_20
REMARK                            x       y       z     vdW  Elec       q    Type
REMARK                         _______ _______ _______ _____ _____    ______ ____
ROOT
ATOM      1  C   UNL     1      45.227   3.849  12.331  0.00  0.00    +0.000 C 
ENDROOT
BRANCH   1   2
ATOM      2  C   UNL     1      44.179   3.689  11.203  0.00  0.00    +0.000 C 
ATOM      3  C   UNL     1      43.307   2.449  11.470  0.00  0.00    +0.000 C 
ATOM      4  C   UNL     1      43.283   4.937  11.138  0.00  0.00    +0.000 C 
BRANCH   2   5
ATOM      5  C   UNL     1      44.923   3.515   9.877  0.00  0.00    +0.000 A 
ATOM      6  N   UNL     1      45.233   4.620   9.168  0.00  0.00    +0.000 NA
ATOM      7  C   UNL     1      45.913   4.449   8.023  0.00  0.00    +0.000 A 
ATOM      8  C   UNL     1      46.303   3.220   7.558  0.00  0.00    +0.000 A 
ATOM      9  CA  UNL     1      45.950   2.137   8.338  0.00  0.00    +0.000 A 
ATOM     10  N   UNL     1      45.253   2.266   9.492  0.00  0.00    +0.000 NA
BRANCH   9  11
ATOM     11  C   UNL     1      46.344   0.744   7.917  0.00  0.00    +0.000 C 
BRANCH  11  12
ATOM     12  O   UNL     1      47.493   0.770   7.077  0.00  0.00    +0.000 OA
ATOM     13  H   UNL     1      47.869   1.664   7.162  0.00  0.00    +0.000 HD
ENDBRANCH  11  12
ENDBRANCH   9  11
ENDBRANCH   2   5
ENDBRANCH   1   2
BRANCH   1  14
ATOM     14  O   UNL     1      45.315   5.175  12.839  0.00  0.00    +0.000 OA
BRANCH  14  22
ATOM     15  C   UNL     1      47.333   4.757  15.289  0.00  0.00    +0.000 C 
ATOM     16  C   UNL     1      47.493   5.576  14.045  0.00  0.00    +0.000 A 
ATOM     17  N   UNL     1      48.696   6.210  14.002  0.00  0.00    +0.000 NA
ATOM     18  C   UNL     1      48.983   6.966  12.942  0.00  0.00    +0.000 A 
ATOM     19  N   UNL     1      50.207   7.599  12.934  0.00  0.00    +0.000 N 
ATOM     20  N   UNL     1      48.153   7.185  11.928  0.00  0.00    +0.000 NA
ATOM     21  C   UNL     1      46.968   6.544  11.993  0.00  0.00    +0.000 A 
ATOM     22  C   UNL     1      46.559   5.709  13.023  0.00  0.00    +0.000 A 
ATOM     23  H   UNL     1      50.539   7.694  13.884  0.00  0.00    +0.000 HD
ATOM     24  H   UNL     1      50.151   8.437  12.373  0.00  0.00    +0.000 HD
ENDBRANCH  14  22
ENDBRANCH   1  14
TORSDOF 6
ENDMDL
MODEL 3
REMARK VINA RESULT:    -6.831      2.472      6.300
REMARK INTER + INTRA:          -9.093
REMARK INTER:                  -8.369
REMARK INTRA:                  -0.724
REMARK UNBOUND:                -0.066
REMARK  Name = 
REMARK  9 active torsions:
REMARK  status: ('A' for Active; 'I' for Inactive)
REMARK    1  A    between atoms: C_1  and  C_2
REMARK    2  A    between atoms: C_8  and  O_9
REMARK    3  A    between atoms: O_9  and  C_10
REMARK    4  A    between atoms: C_10  and  C_11
REMARK    5  A    between atoms: C_11  and  C_12
REMARK    6  A    between atoms: C_11  and  C_13
REMARK    7  A    between atoms: C_11  and  C_14
REMARK    8  A    between atoms: CA_18  and  C_19
REMARK    9  A    between atoms: C_19  and  O_20
REMARK                            x       y       z     vdW  Elec       q    Type
REMARK                         _______ _______ _______ _____ _____    ______ ____
ROOT
ATOM      1  C   UNL     1      44.785   4.961  12.940  0.00  0.00    +0.000 C 
ENDROOT
BRANCH   1   2
ATOM      2  C   UNL     1      44.177   5.425  11.594  0.00  0.00    +0.000 C 
ATOM      3  C   UNL     1      42.646   5.519  11.716  0.00  0.00    +0.000 C 
ATOM      4  C   UNL     1      44.743   6.802  11.209  0.00  0.00    +0.000 C 
BRANCH   2   5
ATOM      5  C   UNL     1      44.542   4.396  10.521  0.00  0.00    +0.000 A 
ATOM      6  N   UNL     1      44.031   3.152  10.628  0.00  0.00    +0.000 NA
ATOM      7  C   UNL     1      44.339   2.273   9.661  0.00  0.00    +0.000 A 
ATOM      8  C   UNL     1      45.132   2.585   8.587  0.00  0.00    +0.000 A 
ATOM      9  CA  UNL     1      45.617   3.876   8.547  0.00  0.00    +0.000 A 
ATOM     10  N   UNL     1      45.341   4.789   9.509  0.00  0.00    +0.000 NA
BRANCH   9  11
ATOM     11  C   UNL     1      46.489   4.320   7.400  0.00  0.00    +0.000 C 
BRANCH  11  12
ATOM     12  O   UNL     1      47.507   3.361   7.131  0.00  0.00    +0.000 OA
ATOM     13  H   UNL     1      47.864   3.096   7.998  0.00  0.00    +0.000 HD
ENDBRANCH  11  12
ENDBRANCH   9  11
ENDBRANCH   2   5
ENDBRANCH   1   2
BRANCH   1  14
ATOM     14  O   UNL     1      46.146   4.556  12.838  0.00  0.00    +0.000 OA
BRANCH  14  22
ATOM     15  C   UNL     1      48.159   7.009  12.416  0.00  0.00    +0.000 C 
ATOM     16  C   UNL     1      47.938   6.146  13.621  0.00  0.00    +0.000 A 
ATOM     17  N   UNL     1      48.737   6.509  14.661  0.00  0.00    +0.000 NA
ATOM     18  C   UNL     1      48.638   5.836  15.808  0.00  0.00    +0.000 A 
ATOM     19  N   UNL     1      49.466   6.226  16.838  0.00  0.00    +0.000 N 
ATOM     20  N   UNL     1      47.838   4.794  16.002  0.00  0.00    +0.000 NA
ATOM     21  C   UNL     1      47.055   4.455  14.955  0.00  0.00    +0.000 A 
ATOM     22  C   UNL     1      47.040   5.090  13.722  0.00  0.00    +0.000 A 
ATOM     23  H   UNL     1      50.269   6.707  16.456  0.00  0.00    +0.000 HD
ATOM     24  H   UNL     1      49.639   5.440  17.449  0.00  0.00    +0.000 HD
ENDBRANCH  14  22
ENDBRANCH   1  14
TORSDOF 6
ENDMDL
MODEL 4
REMARK VINA RESULT:    -6.743      3.130      5.350
REMARK INTER + INTRA:          -8.977
REMARK INTER:                  -8.268
REMARK INTRA:                  -0.709
REMARK UNBOUND:                -0.066
REMARK  Name = 
REMARK  9 active torsions:
REMARK  status: ('A' for Active; 'I' for Inactive)
REMARK    1  A    between atoms: C_1  and  C_2
REMARK    2  A    between atoms: C_8  and  O_9
REMARK    3  A    between atoms: O_9  and  C_10
REMARK    4  A    between atoms: C_10  and  C_11
REMARK    5  A    between atoms: C_11  and  C_12
REMARK    6  A    between atoms: C_11  and  C_13
REMARK    7  A    between atoms: C_11  and  C_14
REMARK    8  A    between atoms: CA_18  and  C_19
REMARK    9  A    between atoms: C_19  and  O_20
REMARK                            x       y       z     vdW  Elec       q    Type
REMARK                         _______ _______ _______ _____ _____    ______ ____
ROOT
ATOM      1  C   UNL     1      47.984   6.249  12.883  0.00  0.00    +0.000 C 
ENDROOT
BRANCH   1   2
ATOM      2  C   UNL     1      48.494   7.274  13.926  0.00  0.00    +0.000 C 
ATOM      3  C   UNL     1      49.922   7.719  13.566  0.00  0.00    +0.000 C 
ATOM      4  C   UNL     1      47.569   8.501  13.951  0.00  0.00    +0.000 C 
BRANCH   2   5
ATOM      5  C   UNL     1      48.498   6.599  15.299  0.00  0.00    +0.000 A 
ATOM      6  N   UNL     1      48.845   7.339  16.374  0.00  0.00    +0.000 NA
ATOM      7  C   UNL     1      48.813   6.737  17.574  0.00  0.00    +0.000 A 
ATOM      8  C   UNL     1      48.444   5.429  17.748  0.00  0.00    +0.000 A 
ATOM      9  CA  UNL     1      48.102   4.738  16.603  0.00  0.00    +0.000 A 
ATOM     10  N   UNL     1      48.134   5.304  15.374  0.00  0.00    +0.000 NA
BRANCH   9  11
ATOM     11  C   UNL     1      47.670   3.296  16.692  0.00  0.00    +0.000 C 
BRANCH  11  12
ATOM     12  O   UNL     1      46.579   3.145  17.595  0.00  0.00    +0.000 OA
ATOM     13  H   UNL     1      45.789   3.004  17.043  0.00  0.00    +0.000 HD
ENDBRANCH  11  12
ENDBRANCH   9  11
ENDBRANCH   2   5
ENDBRANCH   1   2
BRANCH   1  14
ATOM     14  O   UNL     1      46.673   6.531  12.405  0.00  0.00    +0.000 OA
BRANCH  14  22
ATOM     15  C   UNL     1      45.754   5.438   9.540  0.00  0.00    +0.000 C 
ATOM     16  C   UNL     1      45.416   4.937  10.911  0.00  0.00    +0.000 A 
ATOM     17  N   UNL     1      44.598   3.851  10.869  0.00  0.00    +0.000 NA
ATOM     18  C   UNL     1      44.226   3.286  12.018  0.00  0.00    +0.000 A 
ATOM     19  N   UNL     1      43.391   2.193  11.940  0.00  0.00    +0.000 N 
ATOM     20  N   UNL     1      44.563   3.737  13.222  0.00  0.00    +0.000 NA
ATOM     21  C   UNL     1      45.377   4.814  13.235  0.00  0.00    +0.000 A 
ATOM     22  C   UNL     1      45.857   5.475  12.114  0.00  0.00    +0.000 A 
ATOM     23  H   UNL     1      42.897   2.213  11.058  0.00  0.00    +0.000 HD
ATOM     24  H   UNL     1      42.839   2.127  12.784  0.00  0.00    +0.000 HD
ENDBRANCH  14  22
ENDBRANCH   1  14
TORSDOF 6
ENDMDL
MODEL 5
REMARK VINA RESULT:    -6.711      1.586      2.515
REMARK INTER + INTRA:          -8.935
REMARK INTER:                  -8.306
REMARK INTRA:                  -0.629
REMARK UNBOUND:                -0.066
REMARK  Name = 
REMARK  9 active torsions:
REMARK  status: ('A' for Active; 'I' for Inactive)
REMARK    1  A    between atoms: C_1  and  C_2
REMARK    2  A    between atoms: C_8  and  O_9
REMARK    3  A    between atoms: O_9  and  C_10
REMARK    4  A    between atoms: C_10  and  C_11
REMARK    5  A    between atoms: C_11  and  C_12
REMARK    6  A    between atoms: C_11  and  C_13
REMARK    7  A    between atoms: C_11  and  C_14
REMARK    8  A    between atoms: CA_18  and  C_19
REMARK    9  A    between atoms: C_19  and  O_20
REMARK                            x       y       z     vdW  Elec       q    Type
REMARK                         _______ _______ _______ _____ _____    ______ ____
ROOT
ATOM      1  C   UNL     1      44.228   4.102   9.904  0.00  0.00    +0.000 C 
ENDROOT
BRANCH   1   2
ATOM      2  C   UNL     1      43.825   4.148  11.398  0.00  0.00    +0.000 C 
ATOM      3  C   UNL     1      42.679   5.154  11.600  0.00  0.00    +0.000 C 
ATOM      4  C   UNL     1      43.367   2.755  11.861  0.00  0.00    +0.000 C 
BRANCH   2   5
ATOM      5  C   UNL     1      45.044   4.590  12.211  0.00  0.00    +0.000 A 
ATOM      6  N   UNL     1      45.636   3.685  13.018  0.00  0.00    +0.000 NA
ATOM      7  C   UNL     1      46.723   4.083  13.700  0.00  0.00    +0.000 A 
ATOM      8  C   UNL     1      47.246   5.346  13.605  0.00  0.00    +0.000 A 
ATOM      9  CA  UNL     1      46.586   6.215  12.760  0.00  0.00    +0.000 A 
ATOM     10  N   UNL     1      45.480   5.856  12.066  0.00  0.00    +0.000 NA
BRANCH   9  11
ATOM     11  C   UNL     1      47.092   7.624  12.580  0.00  0.00    +0.000 C 
BRANCH  11  12
ATOM     12  O   UNL     1      46.093   8.455  11.999  0.00  0.00    +0.000 OA
ATOM     13  H   UNL     1      45.587   7.885  11.392  0.00  0.00    +0.000 HD
ENDBRANCH  11  12
ENDBRANCH   9  11
ENDBRANCH   2   5
ENDBRANCH   1   2
BRANCH   1  14
ATOM     14  O   UNL     1      44.550   2.795   9.442  0.00  0.00    +0.000 OA
BRANCH  14  22
ATOM     15  C   UNL     1      46.043   0.174   8.372  0.00  0.00    +0.000 C 
ATOM     16  C   UNL     1      46.133   1.591   7.894  0.00  0.00    +0.000 A 
ATOM     17  N   UNL     1      46.987   1.721   6.843  0.00  0.00    +0.000 NA
ATOM     18  C   UNL     1      47.156   2.928   6.303  0.00  0.00    +0.000 A 
ATOM     19  N   UNL     1      48.034   3.026   5.245  0.00  0.00    +0.000 N 
ATOM     20  N   UNL     1      46.577   4.039   6.746  0.00  0.00    +0.000 NA
ATOM     21  C   UNL     1      45.733   3.882   7.788  0.00  0.00    +0.000 A 
ATOM     22  C   UNL     1      45.449   2.680   8.420  0.00  0.00    +0.000 A 
ATOM     23  H   UNL     1      48.686   2.255   5.281  0.00  0.00    +0.000 HD
ATOM     24  H   UNL     1      48.417   3.961   5.208  0.00  0.00    +0.000 HD
ENDBRANCH  14  22
ENDBRANCH   1  14
TORSDOF 6
ENDMDL
MODEL 6
REMARK VINA RESULT:    -6.600      2.988      6.965
REMARK INTER + INTRA:          -8.788
REMARK INTER:                  -7.833
REMARK INTRA:                  -0.955
REMARK UNBOUND:                -0.066
REMARK  Name = 
REMARK  9 active torsions:
REMARK  status: ('A' for Active; 'I' for Inactive)
REMARK    1  A    between atoms: C_1  and  C_2
REMARK    2  A    between atoms: C_8  and  O_9
REMARK    3  A    between atoms: O_9  and  C_10
REMARK    4  A    between atoms: C_10  and  C_11
REMARK    5  A    between atoms: C_11  and  C_12
REMARK    6  A    between atoms: C_11  and  C_13
REMARK    7  A    between atoms: C_11  and  C_14
REMARK    8  A    between atoms: CA_18  and  C_19
REMARK    9  A    between atoms: C_19  and  O_20
REMARK                            x       y       z     vdW  Elec       q    Type
REMARK                         _______ _______ _______ _____ _____    ______ ____
ROOT
ATOM      1  C   UNL     1      47.447   7.492  13.845  0.00  0.00    +0.000 C 
ENDROOT
BRANCH   1   2
ATOM      2  C   UNL     1      47.077   7.690  12.354  0.00  0.00    +0.000 C 
ATOM      3  C   UNL     1      46.597   9.133  12.121  0.00  0.00    +0.000 C 
ATOM      4  C   UNL     1      48.302   7.410  11.468  0.00  0.00    +0.000 C 
BRANCH   2   5
ATOM      5  C   UNL     1      45.951   6.713  12.005  0.00  0.00    +0.000 A 
ATOM      6  N   UNL     1      44.905   6.614  12.852  0.00  0.00    +0.000 NA
ATOM      7  C   UNL     1      43.913   5.775  12.513  0.00  0.00    +0.000 A 
ATOM      8  C   UNL     1      43.918   5.033  11.360  0.00  0.00    +0.000 A 
ATOM      9  CA  UNL     1      45.021   5.189  10.544  0.00  0.00    +0.000 A 
ATOM     10  N   UNL     1      46.048   6.015  10.857  0.00  0.00    +0.000 NA
BRANCH   9  11
ATOM     11  C   UNL     1      45.114   4.425   9.248  0.00  0.00    +0.000 C 
BRANCH  11  12
ATOM     12  O   UNL     1      43.864   4.422   8.566  0.00  0.00    +0.000 OA
ATOM     13  H   UNL     1      43.194   4.183   9.232  0.00  0.00    +0.000 HD
ENDBRANCH  11  12
ENDBRANCH   9  11
ENDBRANCH   2   5
ENDBRANCH   1   2
BRANCH   1  14
ATOM     14  O   UNL     1      48.339   6.406  14.069  0.00  0.00    +0.000 OA
BRANCH  14  22
ATOM     15  C   UNL     1      46.775   3.648  13.630  0.00  0.00    +0.000 C 
ATOM     16  C   UNL     1      47.316   4.253  14.889  0.00  0.00    +0.000 A 
ATOM     17  N   UNL     1      47.082   3.467  15.974  0.00  0.00    +0.000 NA
ATOM     18  C   UNL     1      47.522   3.874  17.165  0.00  0.00    +0.000 A 
ATOM     19  N   UNL     1      47.262   3.057  18.243  0.00  0.00    +0.000 N 
ATOM     20  N   UNL     1      48.143   5.027  17.384  0.00  0.00    +0.000 NA
ATOM     21  C   UNL     1      48.364   5.788  16.290  0.00  0.00    +0.000 A 
ATOM     22  C   UNL     1      47.984   5.467  14.996  0.00  0.00    +0.000 A 
ATOM     23  H   UNL     1      46.467   2.468  18.032  0.00  0.00    +0.000 HD
ATOM     24  H   UNL     1      47.222   3.612  19.087  0.00  0.00    +0.000 HD
ENDBRANCH  14  22
ENDBRANCH   1  14
TORSDOF 6
ENDMDL
MODEL 7
REMARK VINA RESULT:    -6.496      3.935      6.411
REMARK INTER + INTRA:          -8.650
REMARK INTER:                  -7.875
REMARK INTRA:                  -0.775
REMARK UNBOUND:                -0.066
REMARK  Name = 
REMARK  9 active torsions:
REMARK  status: ('A' for Active; 'I' for Inactive)
REMARK    1  A    between atoms: C_1  and  C_2
REMARK    2  A    between atoms: C_8  and  O_9
REMARK    3  A    between atoms: O_9  and  C_10
REMARK    4  A    between atoms: C_10  and  C_11
REMARK    5  A    between atoms: C_11  and  C_12
REMARK    6  A    between atoms: C_11  and  C_13
REMARK    7  A    between atoms: C_11  and  C_14
REMARK    8  A    between atoms: CA_18  and  C_19
REMARK    9  A    between atoms: C_19  and  O_20
REMARK                            x       y       z     vdW  Elec       q    Type
REMARK                         _______ _______ _______ _____ _____    ______ ____
ROOT
ATOM      1  C   UNL     1      48.215   7.108  15.011  0.00  0.00    +0.000 C 
ENDROOT
BRANCH   1   2
ATOM      2  C   UNL     1      49.267   7.103  16.148  0.00  0.00    +0.000 C 
ATOM      3  C   UNL     1      50.683   7.039  15.550  0.00  0.00    +0.000 C 
ATOM      4  C   UNL     1      49.129   8.379  16.995  0.00  0.00    +0.000 C 
BRANCH   2   5
ATOM      5  C   UNL     1      49.024   5.871  17.022  0.00  0.00    +0.000 A 
ATOM      6  N   UNL     1      48.114   5.962  18.015  0.00  0.00    +0.000 NA
ATOM      7  C   UNL     1      47.892   4.861  18.752  0.00  0.00    +0.000 A 
ATOM      8  C   UNL     1      48.537   3.670  18.535  0.00  0.00    +0.000 A 
ATOM      9  CA  UNL     1      49.452   3.656  17.502  0.00  0.00    +0.000 A 
ATOM     10  N   UNL     1      49.714   4.748  16.745  0.00  0.00    +0.000 NA
BRANCH   9  11
ATOM     11  C   UNL     1      50.204   2.390  17.178  0.00  0.00    +0.000 C 
BRANCH  11  12
ATOM     12  O   UNL     1      49.691   1.779  15.999  0.00  0.00    +0.000 OA
ATOM     13  H   UNL     1      49.365   2.506  15.438  0.00  0.00    +0.000 HD
ENDBRANCH  11  12
ENDBRANCH   9  11
ENDBRANCH   2   5
ENDBRANCH   1   2
BRANCH   1  14
ATOM     14  O   UNL     1      48.500   6.179  13.971  0.00  0.00    +0.000 OA
BRANCH  14  22
ATOM     15  C   UNL     1      46.409   7.040  11.705  0.00  0.00    +0.000 C 
ATOM     16  C   UNL     1      46.518   5.758  12.472  0.00  0.00    +0.000 A 
ATOM     17  N   UNL     1      45.562   4.862  12.104  0.00  0.00    +0.000 NA
ATOM     18  C   UNL     1      45.546   3.667  12.695  0.00  0.00    +0.000 A 
ATOM     19  N   UNL     1      44.561   2.786  12.304  0.00  0.00    +0.000 N 
ATOM     20  N   UNL     1      46.378   3.294  13.661  0.00  0.00    +0.000 NA
ATOM     21  C   UNL     1      47.317   4.200  14.006  0.00  0.00    +0.000 A 
ATOM     22  C   UNL     1      47.460   5.463  13.450  0.00  0.00    +0.000 A 
ATOM     23  H   UNL     1      43.788   3.305  11.909  0.00  0.00    +0.000 HD
ATOM     24  H   UNL     1      44.357   2.149  13.061  0.00  0.00    +0.000 HD
ENDBRANCH  14  22
ENDBRANCH   1  14
TORSDOF 6
ENDMDL
MODEL 8
REMARK VINA RESULT:    -5.833      2.774      4.597
REMARK INTER + INTRA:          -7.775
REMARK INTER:                  -7.195
REMARK INTRA:                  -0.579
REMARK UNBOUND:                -0.066
REMARK  Name = 
REMARK  9 active torsions:
REMARK  status: ('A' for Active; 'I' for Inactive)
REMARK    1  A    between atoms: C_1  and  C_2
REMARK    2  A    between atoms: C_8  and  O_9
REMARK    3  A    between atoms: O_9  and  C_10
REMARK    4  A    between atoms: C_10  and  C_11
REMARK    5  A    between atoms: C_11  and  C_12
REMARK    6  A    between atoms: C_11  and  C_13
REMARK    7  A    between atoms: C_11  and  C_14
REMARK    8  A    between atoms: CA_18  and  C_19
REMARK    9  A    between atoms: C_19  and  O_20
REMARK                            x       y       z     vdW  Elec       q    Type
REMARK                         _______ _______ _______ _____ _____    ______ ____
ROOT
ATOM      1  C   UNL     1      47.207   6.548  12.117  0.00  0.00    +0.000 C 
ENDROOT
BRANCH   1   2
ATOM      2  C   UNL     1      47.731   7.789  12.881  0.00  0.00    +0.000 C 
ATOM      3  C   UNL     1      48.722   8.567  11.998  0.00  0.00    +0.000 C 
ATOM      4  C   UNL     1      46.557   8.706  13.259  0.00  0.00    +0.000 C 
BRANCH   2   5
ATOM      5  C   UNL     1      48.442   7.307  14.148  0.00  0.00    +0.000 A 
ATOM      6  N   UNL     1      49.466   8.045  14.626  0.00  0.00    +0.000 NA
ATOM      7  C   UNL     1      50.056   7.623  15.756  0.00  0.00    +0.000 A 
ATOM      8  C   UNL     1      49.664   6.497  16.432  0.00  0.00    +0.000 A 
ATOM      9  CA  UNL     1      48.611   5.795  15.882  0.00  0.00    +0.000 A 
ATOM     10  N   UNL     1      47.997   6.180  14.738  0.00  0.00    +0.000 NA
BRANCH   9  11
ATOM     11  C   UNL     1      48.098   4.549  16.559  0.00  0.00    +0.000 C 
BRANCH  11  12
ATOM     12  O   UNL     1      47.849   3.518  15.609  0.00  0.00    +0.000 OA
ATOM     13  H   UNL     1      47.048   3.786  15.124  0.00  0.00    +0.000 HD
ENDBRANCH  11  12
ENDBRANCH   9  11
ENDBRANCH   2   5
ENDBRANCH   1   2
BRANCH   1  14
ATOM     14  O   UNL     1      45.792   6.533  11.962  0.00  0.00    +0.000 OA
BRANCH  14  22
ATOM     15  C   UNL     1      43.145   4.743  12.157  0.00  0.00    +0.000 C 
ATOM     16  C   UNL     1      44.124   4.888  11.032  0.00  0.00    +0.000 A 
ATOM     17  N   UNL     1      43.782   4.125   9.959  0.00  0.00    +0.000 NA
ATOM     18  C   UNL     1      44.557   4.165   8.874  0.00  0.00    +0.000 A 
ATOM     19  N   UNL     1      44.186   3.376   7.808  0.00  0.00    +0.000 N 
ATOM     20  N   UNL     1      45.678   4.871   8.776  0.00  0.00    +0.000 NA
ATOM     21  C   UNL     1      45.993   5.620   9.854  0.00  0.00    +0.000 A 
ATOM     22  C   UNL     1      45.259   5.689  11.029  0.00  0.00    +0.000 A 
ATOM     23  H   UNL     1      43.606   2.618   8.140  0.00  0.00    +0.000 HD
ATOM     24  H   UNL     1      45.004   3.135   7.264  0.00  0.00    +0.000 HD
ENDBRANCH  14  22
ENDBRANCH   1  14
TORSDOF 6
ENDMDL
MODEL 9
REMARK VINA RESULT:    -5.833      4.086      6.723
REMARK INTER + INTRA:          -7.774
REMARK INTER:                  -6.970
REMARK INTRA:                  -0.804
REMARK UNBOUND:                -0.066
REMARK  Name = 
REMARK  9 active torsions:
REMARK  status: ('A' for Active; 'I' for Inactive)
REMARK    1  A    between atoms: C_1  and  C_2
REMARK    2  A    between atoms: C_8  and  O_9
REMARK    3  A    between atoms: O_9  and  C_10
REMARK    4  A    between atoms: C_10  and  C_11
REMARK    5  A    between atoms: C_11  and  C_12
REMARK    6  A    between atoms: C_11  and  C_13
REMARK    7  A    between atoms: C_11  and  C_14
REMARK    8  A    between atoms: CA_18  and  C_19
REMARK    9  A    between atoms: C_19  and  O_20
REMARK                            x       y       z     vdW  Elec       q    Type
REMARK                         _______ _______ _______ _____ _____    ______ ____
ROOT
ATOM      1  C   UNL     1      48.530   7.138  15.315  0.00  0.00    +0.000 C 
ENDROOT
BRANCH   1   2
ATOM      2  C   UNL     1      49.518   6.851  16.472  0.00  0.00    +0.000 C 
ATOM      3  C   UNL     1      50.966   7.004  15.974  0.00  0.00    +0.000 C 
ATOM      4  C   UNL     1      49.270   7.834  17.629  0.00  0.00    +0.000 C 
BRANCH   2   5
ATOM      5  C   UNL     1      49.291   5.416  16.954  0.00  0.00    +0.000 A 
ATOM      6  N   UNL     1      48.034   5.039  17.268  0.00  0.00    +0.000 NA
ATOM      7  C   UNL     1      47.850   3.767  17.659  0.00  0.00    +0.000 A 
ATOM      8  C   UNL     1      48.869   2.854  17.744  0.00  0.00    +0.000 A 
ATOM      9  CA  UNL     1      50.125   3.314  17.406  0.00  0.00    +0.000 A 
ATOM     10  N   UNL     1      50.354   4.591  17.020  0.00  0.00    +0.000 NA
BRANCH   9  11
ATOM     11  C   UNL     1      51.309   2.381  17.456  0.00  0.00    +0.000 C 
BRANCH  11  12
ATOM     12  O   UNL     1      50.897   1.047  17.734  0.00  0.00    +0.000 OA
ATOM     13  H   UNL     1      50.264   1.108  18.473  0.00  0.00    +0.000 HD
ENDBRANCH  11  12
ENDBRANCH   9  11
ENDBRANCH   2   5
ENDBRANCH   1   2
BRANCH   1  14
ATOM     14  O   UNL     1      48.779   6.358  14.151  0.00  0.00    +0.000 OA
BRANCH  14  22
ATOM     15  C   UNL     1      46.968   3.721  14.046  0.00  0.00    +0.000 C 
ATOM     16  C   UNL     1      46.889   4.971  13.224  0.00  0.00    +0.000 A 
ATOM     17  N   UNL     1      45.875   4.922  12.319  0.00  0.00    +0.000 NA
ATOM     18  C   UNL     1      45.675   5.976  11.526  0.00  0.00    +0.000 A 
ATOM     19  N   UNL     1      44.644   5.891  10.616  0.00  0.00    +0.000 N 
ATOM     20  N   UNL     1      46.430   7.069  11.523  0.00  0.00    +0.000 NA
ATOM     21  C   UNL     1      47.428   7.092  12.432  0.00  0.00    +0.000 A 
ATOM     22  C   UNL     1      47.723   6.078  13.330  0.00  0.00    +0.000 A 
ATOM     23  H   UNL     1      44.439   4.918  10.435  0.00  0.00    +0.000 HD
ATOM     24  H   UNL     1      44.844   6.482   9.821  0.00  0.00    +0.000 HD
ENDBRANCH  14  22
ENDBRANCH   1  14
TORSDOF 6
ENDMDL
