MODEL 1
REMARK VINA RESULT:    -7.381      0.000      0.000
REMARK INTER + INTRA:          -9.616
REMARK INTER:                  -9.322
REMARK INTRA:                  -0.294
REMARK UNBOUND:                -0.294
REMARK  Name = 
REMARK  5 active torsions:
REMARK  status: ('A' for Active; 'I' for Inactive)
REMARK    1  A    between atoms: N_1  and  C_2
REMARK    2  A    between atoms: C_2  and  C_3
REMARK    3  A    between atoms: C_3  and  C_4
REMARK    4  A    between atoms: C_7  and  C_8
REMARK    5  A    between atoms: C_8  and  N_9
REMARK                            x       y       z     vdW  Elec       q    Type
REMARK                         _______ _______ _______ _____ _____    ______ ____
ROOT
ATOM      1  C   UNL     1      46.228   2.429   8.263  0.00  0.00    +0.000 C 
ATOM      2  C   UNL     1      44.946   1.799   8.830  0.00  0.00    +0.000 C 
ATOM      3  C   UNL     1      44.386   2.599  10.000  0.00  0.00    +0.000 C 
ATOM      4  C   UNL     1      44.121   4.066   9.625  0.00  0.00    +0.000 C 
ATOM      5  C   UNL     1      45.390   4.704   9.037  0.00  0.00    +0.000 C 
ATOM      6  C   UNL     1      45.964   3.891   7.872  0.00  0.00    +0.000 C 
ENDROOT
BRANCH   1   7
ATOM      7  C   UNL     1      46.738   1.569   7.085  0.00  0.00    +0.000 C 
BRANCH   7   8
ATOM      8  C   UNL     1      47.254   2.345   5.870  0.00  0.00    +0.000 C 
BRANCH   8   9
ATOM      9  N   UNL     1      48.524   1.822   5.383  0.00  0.00    +0.000 NA
ATOM     10  H   UNL     1      48.936   1.222   6.097  0.00  0.00    +0.000 HD
ATOM     11  H   UNL     1      49.179   2.591   5.246  0.00  0.00    +0.000 HD
ENDBRANCH   8   9
ENDBRANCH   7   8
ENDBRANCH   1   7
BRANCH   4  12
ATOM     12  C   UNL     1      43.610   4.882  10.832  0.00  0.00    +0.000 C 
BRANCH  12  13
ATOM     13  N   UNL     1      44.658   5.660  11.483  0.00  0.00    +0.000 N 
ATOM     14  C   UNL     1      44.792   7.022  11.349  0.00  0.00    +0.000 A 
ATOM     15  C   UNL     1      45.720   7.449  12.272  0.00  0.00    +0.000 A 
ATOM     16  C   UNL     1      46.201   6.309  12.948  0.00  0.00    +0.000 A 
ATOM     17  N   UNL     1      47.107   6.242  13.955  0.00  0.00    +0.000 NA
ATOM     18  C   UNL     1      47.384   4.994  14.386  0.00  0.00    +0.000 A 
ATOM     19  C   UNL     1      46.849   3.825  13.866  0.00  0.00    +0.000 A 
ATOM     20  C   UNL     1      45.915   3.901  12.834  0.00  0.00    +0.000 A 
ATOM     21  C   UNL     1      45.578   5.187  12.397  0.00  0.00    +0.000 A 
ENDBRANCH  12  13
ENDBRANCH   4  12
TORSDOF 5
ENDMDL
MODEL 2
REMARK VINA RESULT:    -7.281      0.966      1.845
REMARK INTER + INTRA:          -9.490
REMARK INTER:                  -9.384
REMARK INTRA:                  -0.106
REMARK UNBOUND:                -0.294
REMARK  Name = 
REMARK  5 active torsions:
REMARK  status: ('A' for Active; 'I' for Inactive)
REMARK    1  A    between atoms: N_1  and  C_2
REMARK    2  A    between atoms: C_2  and  C_3
REMARK    3  A    between atoms: C_3  and  C_4
REMARK    4  A    between atoms: C_7  and  C_8
REMARK    5  A    between atoms: C_8  and  N_9
REMARK                            x       y       z     vdW  Elec       q    Type
REMARK                         _______ _______ _______ _____ _____    ______ ____
ROOT
ATOM      1  C   UNL     1      46.348   2.422   8.162  0.00  0.00    +0.000 C 
ATOM      2  C   UNL     1      45.111   1.840   8.865  0.00  0.00    +0.000 C 
ATOM      3  C   UNL     1      44.653   2.709  10.030  0.00  0.00    +0.000 C 
ATOM      4  C   UNL     1      44.370   4.157   9.596  0.00  0.00    +0.000 C 
ATOM      5  C   UNL     1      45.592   4.746   8.874  0.00  0.00    +0.000 C 
ATOM      6  C   UNL     1      46.064   3.864   7.714  0.00  0.00    +0.000 C 
ENDROOT
BRANCH   1   7
ATOM      7  C   UNL     1      46.753   1.493   6.997  0.00  0.00    +0.000 C 
BRANCH   7   8
ATOM      8  C   UNL     1      47.185   2.195   5.706  0.00  0.00    +0.000 C 
BRANCH   8   9
ATOM      9  N   UNL     1      48.562   1.882   5.344  0.00  0.00    +0.000 NA
ATOM     10  H   UNL     1      48.659   0.873   5.233  0.00  0.00    +0.000 HD
ATOM     11  H   UNL     1      49.183   2.144   6.109  0.00  0.00    +0.000 HD
ENDBRANCH   8   9
ENDBRANCH   7   8
ENDBRANCH   1   7
BRANCH   4  12
ATOM     12  C   UNL     1      43.965   5.043  10.794  0.00  0.00    +0.000 C 
BRANCH  12  13
ATOM     13  N   UNL     1      44.904   4.966  11.908  0.00  0.00    +0.000 N 
ATOM     14  C   UNL     1      44.853   3.999  12.884  0.00  0.00    +0.000 A 
ATOM     15  C   UNL     1      46.011   4.084  13.625  0.00  0.00    +0.000 A 
ATOM     16  C   UNL     1      46.759   5.165  13.118  0.00  0.00    +0.000 A 
ATOM     17  N   UNL     1      47.977   5.612  13.517  0.00  0.00    +0.000 NA
ATOM     18  C   UNL     1      48.431   6.692  12.848  0.00  0.00    +0.000 A 
ATOM     19  C   UNL     1      47.748   7.365  11.846  0.00  0.00    +0.000 A 
ATOM     20  C   UNL     1      46.500   6.898  11.438  0.00  0.00    +0.000 A 
ATOM     21  C   UNL     1      46.024   5.754  12.087  0.00  0.00    +0.000 A 
ENDBRANCH  12  13
ENDBRANCH   4  12
TORSDOF 5
ENDMDL
MODEL 3
REMARK VINA RESULT:    -7.158      1.348      2.453
REMARK INTER + INTRA:          -9.336
REMARK INTER:                  -8.802
REMARK INTRA:                  -0.533
REMARK UNBOUND:                -0.294
REMARK  Name = 
REMARK  5 active torsions:
REMARK  status: ('A' for Active; 'I' for Inactive)
REMARK    1  A    between atoms: N_1  and  C_2
REMARK    2  A    between atoms: C_2  and  C_3
REMARK    3  A    between atoms: C_3  and  C_4
REMARK    4  A    between atoms: C_7  and  C_8
REMARK    5  A    between atoms: C_8  and  N_9
REMARK                            x       y       z     vdW  Elec       q    Type
REMARK                         _______ _______ _______ _____ _____    ______ ____
ROOT
ATOM      1  C   UNL     1      45.567   3.219   7.354  0.00  0.00    +0.000 C 
ATOM      2  C   UNL     1      46.393   4.437   7.797  0.00  0.00    +0.000 C 
ATOM      3  C   UNL     1      45.758   5.159   8.980  0.00  0.00    +0.000 C 
ATOM      4  C   UNL     1      45.533   4.221  10.178  0.00  0.00    +0.000 C 
ATOM      5  C   UNL     1      44.725   2.987   9.745  0.00  0.00    +0.000 C 
ATOM      6  C   UNL     1      45.353   2.272   8.545  0.00  0.00    +0.000 C 
ENDROOT
BRANCH   1   7
ATOM      7  C   UNL     1      46.268   2.540   6.157  0.00  0.00    +0.000 C 
BRANCH   7   8
ATOM      8  C   UNL     1      47.426   1.602   6.509  0.00  0.00    +0.000 C 
BRANCH   8   9
ATOM      9  N   UNL     1      48.602   1.846   5.683  0.00  0.00    +0.000 NA
ATOM     10  H   UNL     1      48.312   2.268   4.802  0.00  0.00    +0.000 HD
ATOM     11  H   UNL     1      49.039   0.957   5.443  0.00  0.00    +0.000 HD
ENDBRANCH   8   9
ENDBRANCH   7   8
ENDBRANCH   1   7
BRANCH   4  12
ATOM     12  C   UNL     1      44.836   4.947  11.349  0.00  0.00    +0.000 C 
BRANCH  12  13
ATOM     13  N   UNL     1      45.709   5.149  12.500  0.00  0.00    +0.000 N 
ATOM     14  C   UNL     1      45.658   4.383  13.641  0.00  0.00    +0.000 A 
ATOM     15  C   UNL     1      46.762   4.689  14.406  0.00  0.00    +0.000 A 
ATOM     16  C   UNL     1      47.472   5.706  13.736  0.00  0.00    +0.000 A 
ATOM     17  N   UNL     1      48.634   6.305  14.099  0.00  0.00    +0.000 NA
ATOM     18  C   UNL     1      49.061   7.269  13.257  0.00  0.00    +0.000 A 
ATOM     19  C   UNL     1      48.400   7.690  12.112  0.00  0.00    +0.000 A 
ATOM     20  C   UNL     1      47.210   7.067  11.743  0.00  0.00    +0.000 A 
ATOM     21  C   UNL     1      46.766   6.035  12.577  0.00  0.00    +0.000 A 
ENDBRANCH  12  13
ENDBRANCH   4  12
TORSDOF 5
ENDMDL
MODEL 4
REMARK VINA RESULT:    -6.827      1.241      1.887
REMARK INTER + INTRA:          -8.917
REMARK INTER:                  -8.524
REMARK INTRA:                  -0.393
REMARK UNBOUND:                -0.294
REMARK  Name = 
REMARK  5 active torsions:
REMARK  status: ('A' for Active; 'I' for Inactive)
REMARK    1  A    between atoms: N_1  and  C_2
REMARK    2  A    between atoms: C_2  and  C_3
REMARK    3  A    between atoms: C_3  and  C_4
REMARK    4  A    between atoms: C_7  and  C_8
REMARK    5  A    between atoms: C_8  and  N_9
REMARK                            x       y       z     vdW  Elec       q    Type
REMARK                         _______ _______ _______ _____ _____    ______ ____
ROOT
ATOM      1  C   UNL     1      45.538   3.231   7.602  0.00  0.00    +0.000 C 
ATOM      2  C   UNL     1      46.327   4.459   8.082  0.00  0.00    +0.000 C 
ATOM      3  C   UNL     1      45.578   5.237   9.157  0.00  0.00    +0.000 C 
ATOM      4  C   UNL     1      45.210   4.354  10.361  0.00  0.00    +0.000 C 
ATOM      5  C   UNL     1      44.437   3.111   9.894  0.00  0.00    +0.000 C 
ATOM      6  C   UNL     1      45.181   2.338   8.801  0.00  0.00    +0.000 C 
ENDROOT
BRANCH   1   7
ATOM      7  C   UNL     1      46.354   2.493   6.519  0.00  0.00    +0.000 C 
BRANCH   7   8
ATOM      8  C   UNL     1      47.868   2.446   6.745  0.00  0.00    +0.000 C 
BRANCH   8   9
ATOM      9  N   UNL     1      48.570   1.812   5.636  0.00  0.00    +0.000 NA
ATOM     10  H   UNL     1      48.257   2.227   4.759  0.00  0.00    +0.000 HD
ATOM     11  H   UNL     1      48.316   0.826   5.591  0.00  0.00    +0.000 HD
ENDBRANCH   8   9
ENDBRANCH   7   8
ENDBRANCH   1   7
BRANCH   4  12
ATOM     12  C   UNL     1      44.400   5.137  11.416  0.00  0.00    +0.000 C 
BRANCH  12  13
ATOM     13  N   UNL     1      44.994   6.426  11.755  0.00  0.00    +0.000 N 
ATOM     14  C   UNL     1      44.442   7.636  11.408  0.00  0.00    +0.000 A 
ATOM     15  C   UNL     1      45.125   8.623  12.083  0.00  0.00    +0.000 A 
ATOM     16  C   UNL     1      46.153   7.999  12.818  0.00  0.00    +0.000 A 
ATOM     17  N   UNL     1      47.063   8.566  13.649  0.00  0.00    +0.000 NA
ATOM     18  C   UNL     1      47.945   7.704  14.197  0.00  0.00    +0.000 A 
ATOM     19  C   UNL     1      47.998   6.340  13.950  0.00  0.00    +0.000 A 
ATOM     20  C   UNL     1      47.057   5.763  13.099  0.00  0.00    +0.000 A 
ATOM     21  C   UNL     1      46.105   6.629  12.550  0.00  0.00    +0.000 A 
ENDBRANCH  12  13
ENDBRANCH   4  12
TORSDOF 5
ENDMDL
MODEL 5
REMARK VINA RESULT:    -6.022      2.100      6.470
REMARK INTER + INTRA:          -7.900
REMARK INTER:                  -7.608
REMARK INTRA:                  -0.292
REMARK UNBOUND:                -0.294
REMARK  Name = 
REMARK  5 active torsions:
REMARK  status: ('A' for Active; 'I' for Inactive)
REMARK    1  A    between atoms: N_1  and  C_2
REMARK    2  A    between atoms: C_2  and  C_3
REMARK    3  A    between atoms: C_3  and  C_4
REMARK    4  A    between atoms: C_7  and  C_8
REMARK    5  A    between atoms: C_8  and  N_9
REMARK                            x       y       z     vdW  Elec       q    Type
REMARK                         _______ _______ _______ _____ _____    ______ ____
ROOT
ATOM      1  C   UNL     1      47.794   7.912  13.068  0.00  0.00    +0.000 C 
ATOM      2  C   UNL     1      46.513   8.744  13.233  0.00  0.00    +0.000 C 
ATOM      3  C   UNL     1      45.402   8.276  12.300  0.00  0.00    +0.000 C 
ATOM      4  C   UNL     1      45.080   6.784  12.486  0.00  0.00    +0.000 C 
ATOM      5  C   UNL     1      46.356   5.941  12.342  0.00  0.00    +0.000 C 
ATOM      6  C   UNL     1      47.479   6.421  13.267  0.00  0.00    +0.000 C 
ENDROOT
BRANCH   1   7
ATOM      7  C   UNL     1      48.871   8.440  14.041  0.00  0.00    +0.000 C 
BRANCH   7   8
ATOM      8  C   UNL     1      49.207   7.524  15.222  0.00  0.00    +0.000 C 
BRANCH   8   9
ATOM      9  N   UNL     1      50.547   6.960  15.116  0.00  0.00    +0.000 NA
ATOM     10  H   UNL     1      51.194   7.686  14.812  0.00  0.00    +0.000 HD
ATOM     11  H   UNL     1      50.559   6.245  14.390  0.00  0.00    +0.000 HD
ENDBRANCH   8   9
ENDBRANCH   7   8
ENDBRANCH   1   7
BRANCH   4  12
ATOM     12  C   UNL     1      43.996   6.307  11.495  0.00  0.00    +0.000 C 
BRANCH  12  13
ATOM     13  N   UNL     1      44.032   4.868  11.256  0.00  0.00    +0.000 N 
ATOM     14  C   UNL     1      43.404   3.945  12.058  0.00  0.00    +0.000 A 
ATOM     15  C   UNL     1      43.444   2.727  11.415  0.00  0.00    +0.000 A 
ATOM     16  C   UNL     1      44.162   2.906  10.216  0.00  0.00    +0.000 A 
ATOM     17  N   UNL     1      44.435   1.994   9.249  0.00  0.00    +0.000 NA
ATOM     18  C   UNL     1      45.170   2.462   8.219  0.00  0.00    +0.000 A 
ATOM     19  C   UNL     1      45.669   3.751   8.106  0.00  0.00    +0.000 A 
ATOM     20  C   UNL     1      45.381   4.685   9.100  0.00  0.00    +0.000 A 
ATOM     21  C   UNL     1      44.585   4.236  10.160  0.00  0.00    +0.000 A 
ENDBRANCH  12  13
ENDBRANCH   4  12
TORSDOF 5
ENDMDL
MODEL 6
REMARK VINA RESULT:    -5.876      1.724      6.501
REMARK INTER + INTRA:          -7.716
REMARK INTER:                  -7.389
REMARK INTRA:                  -0.327
REMARK UNBOUND:                -0.294
REMARK  Name = 
REMARK  5 active torsions:
REMARK  status: ('A' for Active; 'I' for Inactive)
REMARK    1  A    between atoms: N_1  and  C_2
REMARK    2  A    between atoms: C_2  and  C_3
REMARK    3  A    between atoms: C_3  and  C_4
REMARK    4  A    between atoms: C_7  and  C_8
REMARK    5  A    between atoms: C_8  and  N_9
REMARK                            x       y       z     vdW  Elec       q    Type
REMARK                         _______ _______ _______ _____ _____    ______ ____
ROOT
ATOM      1  C   UNL     1      47.313   6.501  13.130  0.00  0.00    +0.000 C 
ATOM      2  C   UNL     1      46.405   7.589  12.537  0.00  0.00    +0.000 C 
ATOM      3  C   UNL     1      45.472   7.035  11.466  0.00  0.00    +0.000 C 
ATOM      4  C   UNL     1      44.614   5.872  11.991  0.00  0.00    +0.000 C 
ATOM      5  C   UNL     1      45.509   4.784  12.605  0.00  0.00    +0.000 C 
ATOM      6  C   UNL     1      46.459   5.343  13.669  0.00  0.00    +0.000 C 
ENDROOT
BRANCH   1   7
ATOM      7  C   UNL     1      48.226   7.132  14.204  0.00  0.00    +0.000 C 
BRANCH   7   8
ATOM      8  C   UNL     1      48.138   8.655  14.341  0.00  0.00    +0.000 C 
BRANCH   8   9
ATOM      9  N   UNL     1      47.577   9.060  15.623  0.00  0.00    +0.000 NA
ATOM     10  H   UNL     1      47.709  10.063  15.746  0.00  0.00    +0.000 HD
ATOM     11  H   UNL     1      48.094   8.611  16.379  0.00  0.00    +0.000 HD
ENDBRANCH   8   9
ENDBRANCH   7   8
ENDBRANCH   1   7
BRANCH   4  12
ATOM     12  C   UNL     1      43.717   5.280  10.883  0.00  0.00    +0.000 C 
BRANCH  12  13
ATOM     13  N   UNL     1      44.239   4.036  10.327  0.00  0.00    +0.000 N 
ATOM     14  C   UNL     1      43.799   2.788  10.702  0.00  0.00    +0.000 A 
ATOM     15  C   UNL     1      44.327   1.871   9.820  0.00  0.00    +0.000 A 
ATOM     16  C   UNL     1      45.151   2.575   8.919  0.00  0.00    +0.000 A 
ATOM     17  N   UNL     1      45.857   2.094   7.866  0.00  0.00    +0.000 NA
ATOM     18  C   UNL     1      46.577   3.018   7.196  0.00  0.00    +0.000 A 
ATOM     19  C   UNL     1      46.663   4.363   7.523  0.00  0.00    +0.000 A 
ATOM     20  C   UNL     1      45.932   4.852   8.603  0.00  0.00    +0.000 A 
ATOM     21  C   UNL     1      45.143   3.922   9.289  0.00  0.00    +0.000 A 
ENDBRANCH  12  13
ENDBRANCH   4  12
TORSDOF 5
ENDMDL
MODEL 7
REMARK VINA RESULT:    -5.745      2.350      3.478
REMARK INTER + INTRA:          -7.550
REMARK INTER:                  -7.186
REMARK INTRA:                  -0.364
REMARK UNBOUND:                -0.294
REMARK  Name = 
REMARK  5 active torsions:
REMARK  status: ('A' for Active; 'I' for Inactive)
REMARK    1  A    between atoms: N_1  and  C_2
REMARK    2  A    between atoms: C_2  and  C_3
REMARK    3  A    between atoms: C_3  and  C_4
REMARK    4  A    between atoms: C_7  and  C_8
REMARK    5  A    between atoms: C_8  and  N_9
REMARK                            x       y       z     vdW  Elec       q    Type
REMARK                         _______ _______ _______ _____ _____    ______ ____
ROOT
ATOM      1  C   UNL     1      44.476   3.386   9.806  0.00  0.00    +0.000 C 
ATOM      2  C   UNL     1      45.324   4.606   9.415  0.00  0.00    +0.000 C 
ATOM      3  C   UNL     1      45.209   5.734  10.434  0.00  0.00    +0.000 C 
ATOM      4  C   UNL     1      45.585   5.273  11.852  0.00  0.00    +0.000 C 
ATOM      5  C   UNL     1      44.757   4.040  12.249  0.00  0.00    +0.000 C 
ATOM      6  C   UNL     1      44.859   2.913  11.217  0.00  0.00    +0.000 C 
ENDROOT
BRANCH   1   7
ATOM      7  C   UNL     1      44.642   2.289   8.732  0.00  0.00    +0.000 C 
BRANCH   7   8
ATOM      8  C   UNL     1      46.058   2.108   8.178  0.00  0.00    +0.000 C 
BRANCH   8   9
ATOM      9  N   UNL     1      46.421   0.703   8.042  0.00  0.00    +0.000 NA
ATOM     10  H   UNL     1      46.172   0.208   8.897  0.00  0.00    +0.000 HD
ATOM     11  H   UNL     1      47.433   0.620   7.949  0.00  0.00    +0.000 HD
ENDBRANCH   8   9
ENDBRANCH   7   8
ENDBRANCH   1   7
BRANCH   4  12
ATOM     12  C   UNL     1      45.407   6.406  12.887  0.00  0.00    +0.000 C 
BRANCH  12  13
ATOM     13  N   UNL     1      45.945   7.684  12.435  0.00  0.00    +0.000 N 
ATOM     14  C   UNL     1      45.189   8.825  12.297  0.00  0.00    +0.000 A 
ATOM     15  C   UNL     1      46.049   9.880  12.088  0.00  0.00    +0.000 A 
ATOM     16  C   UNL     1      47.357   9.357  12.043  0.00  0.00    +0.000 A 
ATOM     17  N   UNL     1      48.529  10.022  11.882  0.00  0.00    +0.000 NA
ATOM     18  C   UNL     1      49.627   9.238  11.859  0.00  0.00    +0.000 A 
ATOM     19  C   UNL     1      49.631   7.854  11.953  0.00  0.00    +0.000 A 
ATOM     20  C   UNL     1      48.425   7.178  12.124  0.00  0.00    +0.000 A 
ATOM     21  C   UNL     1      47.274   7.971  12.193  0.00  0.00    +0.000 A 
ENDBRANCH  12  13
ENDBRANCH   4  12
TORSDOF 5
ENDMDL
MODEL 8
REMARK VINA RESULT:    -5.346      3.540      7.783
REMARK INTER + INTRA:          -7.047
REMARK INTER:                  -6.553
REMARK INTRA:                  -0.494
REMARK UNBOUND:                -0.294
REMARK  Name = 
REMARK  5 active torsions:
REMARK  status: ('A' for Active; 'I' for Inactive)
REMARK    1  A    between atoms: N_1  and  C_2
REMARK    2  A    between atoms: C_2  and  C_3
REMARK    3  A    between atoms: C_3  and  C_4
REMARK    4  A    between atoms: C_7  and  C_8
REMARK    5  A    between atoms: C_8  and  N_9
REMARK                            x       y       z     vdW  Elec       q    Type
REMARK                         _______ _______ _______ _____ _____    ______ ____
ROOT
ATOM      1  C   UNL     1      48.811   5.427  17.479  0.00  0.00    +0.000 C 
ATOM      2  C   UNL     1      48.871   6.793  16.777  0.00  0.00    +0.000 C 
ATOM      3  C   UNL     1      48.832   6.658  15.259  0.00  0.00    +0.000 C 
ATOM      4  C   UNL     1      47.595   5.881  14.778  0.00  0.00    +0.000 C 
ATOM      5  C   UNL     1      47.512   4.520  15.488  0.00  0.00    +0.000 C 
ATOM      6  C   UNL     1      47.569   4.653  17.012  0.00  0.00    +0.000 C 
ENDROOT
BRANCH   1   7
ATOM      7  C   UNL     1      48.855   5.640  19.008  0.00  0.00    +0.000 C 
BRANCH   7   8
ATOM      8  C   UNL     1      49.416   4.474  19.827  0.00  0.00    +0.000 C 
BRANCH   8   9
ATOM      9  N   UNL     1      48.418   3.898  20.719  0.00  0.00    +0.000 NA
ATOM     10  H   UNL     1      48.804   3.837  21.660  0.00  0.00    +0.000 HD
ATOM     11  H   UNL     1      48.216   2.941  20.431  0.00  0.00    +0.000 HD
ENDBRANCH   8   9
ENDBRANCH   7   8
ENDBRANCH   1   7
BRANCH   4  12
ATOM     12  C   UNL     1      47.597   5.698  13.245  0.00  0.00    +0.000 C 
BRANCH  12  13
ATOM     13  N   UNL     1      46.310   6.008  12.630  0.00  0.00    +0.000 N 
ATOM     14  C   UNL     1      45.979   7.247  12.135  0.00  0.00    +0.000 A 
ATOM     15  C   UNL     1      44.805   7.120  11.426  0.00  0.00    +0.000 A 
ATOM     16  C   UNL     1      44.386   5.779  11.538  0.00  0.00    +0.000 A 
ATOM     17  N   UNL     1      43.300   5.184  10.985  0.00  0.00    +0.000 NA
ATOM     18  C   UNL     1      43.150   3.879  11.295  0.00  0.00    +0.000 A 
ATOM     19  C   UNL     1      43.981   3.149  12.131  0.00  0.00    +0.000 A 
ATOM     20  C   UNL     1      45.098   3.765  12.691  0.00  0.00    +0.000 A 
ATOM     21  C   UNL     1      45.301   5.107  12.353  0.00  0.00    +0.000 A 
ENDBRANCH  12  13
ENDBRANCH   4  12
TORSDOF 5
ENDMDL
MODEL 9
REMARK VINA RESULT:    -5.257      3.254      5.458
REMARK INTER + INTRA:          -6.934
REMARK INTER:                  -6.412
REMARK INTRA:                  -0.522
REMARK UNBOUND:                -0.294
REMARK  Name = 
REMARK  5 active torsions:
REMARK  status: ('A' for Active; 'I' for Inactive)
REMARK    1  A    between atoms: N_1  and  C_2
REMARK    2  A    between atoms: C_2  and  C_3
REMARK    3  A    between atoms: C_3  and  C_4
REMARK    4  A    between atoms: C_7  and  C_8
REMARK    5  A    between atoms: C_8  and  N_9
REMARK                            x       y       z     vdW  Elec       q    Type
REMARK                         _______ _______ _______ _____ _____    ______ ____
ROOT
ATOM      1  C   UNL     1      45.383   4.897  11.667  0.00  0.00    +0.000 C 
ATOM      2  C   UNL     1      45.535   4.703  13.185  0.00  0.00    +0.000 C 
ATOM      3  C   UNL     1      46.918   5.111  13.678  0.00  0.00    +0.000 C 
ATOM      4  C   UNL     1      47.261   6.563  13.304  0.00  0.00    +0.000 C 
ATOM      5  C   UNL     1      47.095   6.776  11.791  0.00  0.00    +0.000 C 
ATOM      6  C   UNL     1      45.712   6.350  11.290  0.00  0.00    +0.000 C 
ENDROOT
BRANCH   1   7
ATOM      7  C   UNL     1      43.964   4.465  11.240  0.00  0.00    +0.000 C 
BRANCH   7   8
ATOM      8  C   UNL     1      43.830   3.025  10.736  0.00  0.00    +0.000 C 
BRANCH   8   9
ATOM      9  N   UNL     1      43.045   2.196  11.642  0.00  0.00    +0.000 NA
ATOM     10  H   UNL     1      43.122   2.567  12.588  0.00  0.00    +0.000 HD
ATOM     11  H   UNL     1      43.439   1.256  11.671  0.00  0.00    +0.000 HD
ENDBRANCH   8   9
ENDBRANCH   7   8
ENDBRANCH   1   7
BRANCH   4  12
ATOM     12  C   UNL     1      48.687   6.947  13.756  0.00  0.00    +0.000 C 
BRANCH  12  13
ATOM     13  N   UNL     1      48.713   7.648  15.035  0.00  0.00    +0.000 N 
ATOM     14  C   UNL     1      48.506   9.001  15.167  0.00  0.00    +0.000 A 
ATOM     15  C   UNL     1      48.364   9.279  16.509  0.00  0.00    +0.000 A 
ATOM     16  C   UNL     1      48.543   8.070  17.212  0.00  0.00    +0.000 A 
ATOM     17  N   UNL     1      48.469   7.850  18.548  0.00  0.00    +0.000 NA
ATOM     18  C   UNL     1      48.712   6.579  18.928  0.00  0.00    +0.000 A 
ATOM     19  C   UNL     1      49.050   5.535  18.079  0.00  0.00    +0.000 A 
ATOM     20  C   UNL     1      49.118   5.766  16.707  0.00  0.00    +0.000 A 
ATOM     21  C   UNL     1      48.830   7.068  16.282  0.00  0.00    +0.000 A 
ENDBRANCH  12  13
ENDBRANCH   4  12
TORSDOF 5
ENDMDL
