MODEL 1
REMARK VINA RESULT:    -7.879      0.000      0.000
REMARK INTER + INTRA:         -10.461
REMARK INTER:                  -9.952
REMARK INTRA:                  -0.510
REMARK UNBOUND:                -0.510
REMARK  Name = 
REMARK  5 active torsions:
REMARK  status: ('A' for Active; 'I' for Inactive)
REMARK    1  A    between atoms: C_2  and  C_4
REMARK    2  A    between atoms: C_7  and  C_8
REMARK    3  A    between atoms: C_8  and  C_9
REMARK    4  A    between atoms: C_9  and  O_10
REMARK    5  A    between atoms: C_9  and  C_11
REMARK                            x       y       z     vdW  Elec       q    Type
REMARK                         _______ _______ _______ _____ _____    ______ ____
ROOT
ATOM      1  C   UNL     1      46.418   2.484   7.821  0.00  0.00    +0.000 A 
ATOM      2  C   UNL     1      46.296   3.871   7.877  0.00  0.00    +0.000 A 
ATOM      3  C   UNL     1      45.345   4.439   8.725  0.00  0.00    +0.000 A 
ATOM      4  C   UNL     1      44.527   3.605   9.490  0.00  0.00    +0.000 A 
ATOM      5  N   UNL     1      44.631   2.253   9.448  0.00  0.00    +0.000 NA
ATOM      6  C   UNL     1      45.565   1.726   8.612  0.00  0.00    +0.000 A 
ENDROOT
BRANCH   1   8
ATOM      7  N   UNL     1      48.448   2.522   6.482  0.00  0.00    +0.000 N 
ATOM      8  C   UNL     1      47.382   1.794   6.939  0.00  0.00    +0.000 C 
ATOM      9  O   UNL     1      47.254   0.613   6.647  0.00  0.00    +0.000 OA
ATOM     10  H   UNL     1      49.149   2.010   5.961  0.00  0.00    +0.000 HD
ATOM     11  H   UNL     1      48.720   3.403   6.891  0.00  0.00    +0.000 HD
ENDBRANCH   1   8
BRANCH   4  12
ATOM     12  C   UNL     1      43.460   4.193  10.388  0.00  0.00    +0.000 C 
BRANCH  12  13
ATOM     13  C   UNL     1      43.588   3.719  11.836  0.00  0.00    +0.000 C 
BRANCH  13  14
ATOM     14  C   UNL     1      44.889   4.230  12.449  0.00  0.00    +0.000 A 
ATOM     15  N   UNL     1      45.107   5.558  12.518  0.00  0.00    +0.000 NA
ATOM     16  C   UNL     1      46.240   5.947  13.138  0.00  0.00    +0.000 A 
ATOM     17  C   UNL     1      47.155   5.072  13.677  0.00  0.00    +0.000 A 
ATOM     18  C   UNL     1      46.849   3.739  13.543  0.00  0.00    +0.000 A 
ATOM     19  N   UNL     1      45.730   3.290  12.941  0.00  0.00    +0.000 NA
ENDBRANCH  13  14
BRANCH  13  20
ATOM     20  O   UNL     1      43.589   2.271  11.861  0.00  0.00    +0.000 OA
ATOM     21  H   UNL     1      42.929   2.007  11.186  0.00  0.00    +0.000 HD
ENDBRANCH  13  20
ENDBRANCH  12  13
ENDBRANCH   4  12
TORSDOF 5
ENDMDL
MODEL 2
REMARK VINA RESULT:    -7.509      1.585      1.922
REMARK INTER + INTRA:          -9.994
REMARK INTER:                  -9.518
REMARK INTRA:                  -0.476
REMARK UNBOUND:                -0.510
REMARK  Name = 
REMARK  5 active torsions:
REMARK  status: ('A' for Active; 'I' for Inactive)
REMARK    1  A    between atoms: C_2  and  C_4
REMARK    2  A    between atoms: C_7  and  C_8
REMARK    3  A    between atoms: C_8  and  C_9
REMARK    4  A    between atoms: C_9  and  O_10
REMARK    5  A    between atoms: C_9  and  C_11
REMARK                            x       y       z     vdW  Elec       q    Type
REMARK                         _______ _______ _______ _____ _____    ______ ____
ROOT
ATOM      1  C   UNL     1      46.367   2.483   7.770  0.00  0.00    +0.000 A 
ATOM      2  C   UNL     1      45.645   1.816   8.759  0.00  0.00    +0.000 A 
ATOM      3  C   UNL     1      44.779   2.541   9.579  0.00  0.00    +0.000 A 
ATOM      4  C   UNL     1      44.664   3.921   9.399  0.00  0.00    +0.000 A 
ATOM      5  N   UNL     1      45.358   4.587   8.442  0.00  0.00    +0.000 NA
ATOM      6  C   UNL     1      46.196   3.857   7.659  0.00  0.00    +0.000 A 
ENDROOT
BRANCH   1   8
ATOM      7  N   UNL     1      48.410   2.518   6.451  0.00  0.00    +0.000 N 
ATOM      8  C   UNL     1      47.321   1.802   6.870  0.00  0.00    +0.000 C 
ATOM      9  O   UNL     1      47.163   0.637   6.531  0.00  0.00    +0.000 OA
ATOM     10  H   UNL     1      49.102   2.008   5.916  0.00  0.00    +0.000 HD
ATOM     11  H   UNL     1      48.702   3.375   6.896  0.00  0.00    +0.000 HD
ENDBRANCH   1   8
BRANCH   4  12
ATOM     12  C   UNL     1      43.762   4.738  10.299  0.00  0.00    +0.000 C 
BRANCH  12  13
ATOM     13  C   UNL     1      44.414   6.046  10.749  0.00  0.00    +0.000 C 
BRANCH  13  14
ATOM     14  C   UNL     1      45.460   5.776  11.827  0.00  0.00    +0.000 A 
ATOM     15  N   UNL     1      46.655   6.393  11.754  0.00  0.00    +0.000 NA
ATOM     16  C   UNL     1      47.507   6.171  12.776  0.00  0.00    +0.000 A 
ATOM     17  C   UNL     1      47.217   5.360  13.849  0.00  0.00    +0.000 A 
ATOM     18  C   UNL     1      45.980   4.764  13.824  0.00  0.00    +0.000 A 
ATOM     19  N   UNL     1      45.084   4.954  12.835  0.00  0.00    +0.000 NA
ENDBRANCH  13  14
BRANCH  13  20
ATOM     20  O   UNL     1      43.393   6.921  11.287  0.00  0.00    +0.000 OA
ATOM     21  H   UNL     1      43.373   6.724  12.247  0.00  0.00    +0.000 HD
ENDBRANCH  13  20
ENDBRANCH  12  13
ENDBRANCH   4  12
TORSDOF 5
ENDMDL
MODEL 3
REMARK VINA RESULT:    -6.888      2.146      5.978
REMARK INTER + INTRA:          -9.210
REMARK INTER:                  -8.754
REMARK INTRA:                  -0.456
REMARK UNBOUND:                -0.510
REMARK  Name = 
REMARK  5 active torsions:
REMARK  status: ('A' for Active; 'I' for Inactive)
REMARK    1  A    between atoms: C_2  and  C_4
REMARK    2  A    between atoms: C_7  and  C_8
REMARK    3  A    between atoms: C_8  and  C_9
REMARK    4  A    between atoms: C_9  and  O_10
REMARK    5  A    between atoms: C_9  and  C_11
REMARK                            x       y       z     vdW  Elec       q    Type
REMARK                         _______ _______ _______ _____ _____    ______ ____
ROOT
ATOM      1  C   UNL     1      46.201   4.548  13.378  0.00  0.00    +0.000 A 
ATOM      2  C   UNL     1      45.991   3.249  12.917  0.00  0.00    +0.000 A 
ATOM      3  C   UNL     1      45.330   3.053  11.705  0.00  0.00    +0.000 A 
ATOM      4  C   UNL     1      44.881   4.163  10.985  0.00  0.00    +0.000 A 
ATOM      5  N   UNL     1      45.076   5.434  11.417  0.00  0.00    +0.000 NA
ATOM      6  C   UNL     1      45.722   5.596  12.603  0.00  0.00    +0.000 A 
ENDROOT
BRANCH   1   8
ATOM      7  N   UNL     1      47.541   6.042  14.752  0.00  0.00    +0.000 N 
ATOM      8  C   UNL     1      46.874   4.850  14.659  0.00  0.00    +0.000 C 
ATOM      9  O   UNL     1      46.817   4.083  15.610  0.00  0.00    +0.000 OA
ATOM     10  H   UNL     1      47.911   6.278  15.664  0.00  0.00    +0.000 HD
ATOM     11  H   UNL     1      47.403   6.796  14.095  0.00  0.00    +0.000 HD
ENDBRANCH   1   8
BRANCH   4  12
ATOM     12  C   UNL     1      44.125   3.978   9.687  0.00  0.00    +0.000 C 
BRANCH  12  13
ATOM     13  C   UNL     1      44.967   4.343   8.463  0.00  0.00    +0.000 C 
BRANCH  13  14
ATOM     14  C   UNL     1      45.858   3.170   8.063  0.00  0.00    +0.000 A 
ATOM     15  N   UNL     1      45.523   1.926   8.453  0.00  0.00    +0.000 NA
ATOM     16  C   UNL     1      46.309   0.926   8.004  0.00  0.00    +0.000 A 
ATOM     17  C   UNL     1      47.406   1.120   7.198  0.00  0.00    +0.000 A 
ATOM     18  C   UNL     1      47.674   2.426   6.867  0.00  0.00    +0.000 A 
ATOM     19  N   UNL     1      46.922   3.466   7.279  0.00  0.00    +0.000 NA
ENDBRANCH  13  14
BRANCH  13  20
ATOM     20  O   UNL     1      45.800   5.483   8.786  0.00  0.00    +0.000 OA
ATOM     21  H   UNL     1      45.372   5.895   9.566  0.00  0.00    +0.000 HD
ENDBRANCH  13  20
ENDBRANCH  12  13
ENDBRANCH   4  12
TORSDOF 5
ENDMDL
MODEL 4
REMARK VINA RESULT:    -6.784      2.306      6.145
REMARK INTER + INTRA:          -9.078
REMARK INTER:                  -8.671
REMARK INTRA:                  -0.408
REMARK UNBOUND:                -0.510
REMARK  Name = 
REMARK  5 active torsions:
REMARK  status: ('A' for Active; 'I' for Inactive)
REMARK    1  A    between atoms: C_2  and  C_4
REMARK    2  A    between atoms: C_7  and  C_8
REMARK    3  A    between atoms: C_8  and  C_9
REMARK    4  A    between atoms: C_9  and  O_10
REMARK    5  A    between atoms: C_9  and  C_11
REMARK                            x       y       z     vdW  Elec       q    Type
REMARK                         _______ _______ _______ _____ _____    ______ ____
ROOT
ATOM      1  C   UNL     1      46.858   4.841  14.251  0.00  0.00    +0.000 A 
ATOM      2  C   UNL     1      47.186   6.033  13.608  0.00  0.00    +0.000 A 
ATOM      3  C   UNL     1      46.716   6.263  12.315  0.00  0.00    +0.000 A 
ATOM      4  C   UNL     1      45.937   5.288  11.688  0.00  0.00    +0.000 A 
ATOM      5  N   UNL     1      45.607   4.122  12.298  0.00  0.00    +0.000 NA
ATOM      6  C   UNL     1      46.081   3.923  13.557  0.00  0.00    +0.000 A 
ENDROOT
BRANCH   1   8
ATOM      7  N   UNL     1      47.976   5.482  16.314  0.00  0.00    +0.000 N 
ATOM      8  C   UNL     1      47.327   4.503  15.611  0.00  0.00    +0.000 C 
ATOM      9  O   UNL     1      47.123   3.402  16.105  0.00  0.00    +0.000 OA
ATOM     10  H   UNL     1      48.202   5.267  17.277  0.00  0.00    +0.000 HD
ATOM     11  H   UNL     1      47.942   6.456  16.048  0.00  0.00    +0.000 HD
ENDBRANCH   1   8
BRANCH   4  12
ATOM     12  C   UNL     1      45.446   5.494  10.271  0.00  0.00    +0.000 C 
BRANCH  12  13
ATOM     13  C   UNL     1      44.660   4.294   9.743  0.00  0.00    +0.000 C 
BRANCH  13  14
ATOM     14  C   UNL     1      45.511   3.490   8.764  0.00  0.00    +0.000 A 
ATOM     15  N   UNL     1      45.633   2.160   8.936  0.00  0.00    +0.000 NA
ATOM     16  C   UNL     1      46.335   1.497   7.994  0.00  0.00    +0.000 A 
ATOM     17  C   UNL     1      46.919   2.105   6.907  0.00  0.00    +0.000 A 
ATOM     18  C   UNL     1      46.750   3.466   6.828  0.00  0.00    +0.000 A 
ATOM     19  N   UNL     1      46.053   4.182   7.734  0.00  0.00    +0.000 NA
ENDBRANCH  13  14
BRANCH  13  20
ATOM     20  O   UNL     1      43.474   4.769   9.062  0.00  0.00    +0.000 OA
ATOM     21  H   UNL     1      43.806   5.390   8.381  0.00  0.00    +0.000 HD
ENDBRANCH  13  20
ENDBRANCH  12  13
ENDBRANCH   4  12
TORSDOF 5
ENDMDL
MODEL 5
REMARK VINA RESULT:    -6.702      2.662      6.212
REMARK INTER + INTRA:          -8.975
REMARK INTER:                  -8.494
REMARK INTRA:                  -0.480
REMARK UNBOUND:                -0.510
REMARK  Name = 
REMARK  5 active torsions:
REMARK  status: ('A' for Active; 'I' for Inactive)
REMARK    1  A    between atoms: C_2  and  C_4
REMARK    2  A    between atoms: C_7  and  C_8
REMARK    3  A    between atoms: C_8  and  C_9
REMARK    4  A    between atoms: C_9  and  O_10
REMARK    5  A    between atoms: C_9  and  C_11
REMARK                            x       y       z     vdW  Elec       q    Type
REMARK                         _______ _______ _______ _____ _____    ______ ____
ROOT
ATOM      1  C   UNL     1      45.585   7.374  12.381  0.00  0.00    +0.000 A 
ATOM      2  C   UNL     1      46.495   6.760  11.521  0.00  0.00    +0.000 A 
ATOM      3  C   UNL     1      46.231   5.472  11.055  0.00  0.00    +0.000 A 
ATOM      4  C   UNL     1      45.067   4.821  11.470  0.00  0.00    +0.000 A 
ATOM      5  N   UNL     1      44.171   5.403  12.306  0.00  0.00    +0.000 NA
ATOM      6  C   UNL     1      44.454   6.658  12.747  0.00  0.00    +0.000 A 
ENDROOT
BRANCH   1   8
ATOM      7  N   UNL     1      46.670   8.849  13.982  0.00  0.00    +0.000 N 
ATOM      8  C   UNL     1      45.791   8.727  12.940  0.00  0.00    +0.000 C 
ATOM      9  O   UNL     1      45.222   9.706  12.476  0.00  0.00    +0.000 OA
ATOM     10  H   UNL     1      46.873   9.793  14.288  0.00  0.00    +0.000 HD
ATOM     11  H   UNL     1      47.333   8.128  14.223  0.00  0.00    +0.000 HD
ENDBRANCH   1   8
BRANCH   4  12
ATOM     12  C   UNL     1      44.775   3.409  11.012  0.00  0.00    +0.000 C 
BRANCH  12  13
ATOM     13  C   UNL     1      44.224   3.358   9.587  0.00  0.00    +0.000 C 
BRANCH  13  14
ATOM     14  C   UNL     1      45.330   2.987   8.602  0.00  0.00    +0.000 A 
ATOM     15  N   UNL     1      45.816   1.731   8.601  0.00  0.00    +0.000 NA
ATOM     16  C   UNL     1      46.737   1.446   7.658  0.00  0.00    +0.000 A 
ATOM     17  C   UNL     1      47.191   2.359   6.734  0.00  0.00    +0.000 A 
ATOM     18  C   UNL     1      46.647   3.616   6.827  0.00  0.00    +0.000 A 
ATOM     19  N   UNL     1      45.718   3.958   7.742  0.00  0.00    +0.000 NA
ENDBRANCH  13  14
BRANCH  13  20
ATOM     20  O   UNL     1      43.696   4.660   9.238  0.00  0.00    +0.000 OA
ATOM     21  H   UNL     1      42.946   4.475   8.636  0.00  0.00    +0.000 HD
ENDBRANCH  13  20
ENDBRANCH  12  13
ENDBRANCH   4  12
TORSDOF 5
ENDMDL
MODEL 6
REMARK VINA RESULT:    -6.105      3.418      5.034
REMARK INTER + INTRA:          -8.220
REMARK INTER:                  -7.844
REMARK INTRA:                  -0.376
REMARK UNBOUND:                -0.510
REMARK  Name = 
REMARK  5 active torsions:
REMARK  status: ('A' for Active; 'I' for Inactive)
REMARK    1  A    between atoms: C_2  and  C_4
REMARK    2  A    between atoms: C_7  and  C_8
REMARK    3  A    between atoms: C_8  and  C_9
REMARK    4  A    between atoms: C_9  and  O_10
REMARK    5  A    between atoms: C_9  and  C_11
REMARK                            x       y       z     vdW  Elec       q    Type
REMARK                         _______ _______ _______ _____ _____    ______ ____
ROOT
ATOM      1  C   UNL     1      45.046   4.122  11.020  0.00  0.00    +0.000 A 
ATOM      2  C   UNL     1      45.600   5.401  11.070  0.00  0.00    +0.000 A 
ATOM      3  C   UNL     1      46.332   5.784  12.193  0.00  0.00    +0.000 A 
ATOM      4  C   UNL     1      46.484   4.883  13.249  0.00  0.00    +0.000 A 
ATOM      5  N   UNL     1      45.953   3.636  13.219  0.00  0.00    +0.000 NA
ATOM      6  C   UNL     1      45.242   3.288  12.113  0.00  0.00    +0.000 A 
ENDROOT
BRANCH   1   8
ATOM      7  N   UNL     1      43.956   4.531   8.884  0.00  0.00    +0.000 N 
ATOM      8  C   UNL     1      44.239   3.636   9.881  0.00  0.00    +0.000 C 
ATOM      9  O   UNL     1      43.859   2.475   9.813  0.00  0.00    +0.000 OA
ATOM     10  H   UNL     1      43.488   4.158   8.068  0.00  0.00    +0.000 HD
ATOM     11  H   UNL     1      44.450   5.405   8.781  0.00  0.00    +0.000 HD
ENDBRANCH   1   8
BRANCH   4  12
ATOM     12  C   UNL     1      47.241   5.287  14.497  0.00  0.00    +0.000 C 
BRANCH  12  13
ATOM     13  C   UNL     1      47.191   4.213  15.584  0.00  0.00    +0.000 C 
BRANCH  13  14
ATOM     14  C   UNL     1      47.946   4.679  16.826  0.00  0.00    +0.000 A 
ATOM     15  N   UNL     1      49.260   4.959  16.731  0.00  0.00    +0.000 NA
ATOM     16  C   UNL     1      49.852   5.439  17.843  0.00  0.00    +0.000 A 
ATOM     17  C   UNL     1      49.193   5.637  19.034  0.00  0.00    +0.000 A 
ATOM     18  C   UNL     1      47.859   5.308  19.035  0.00  0.00    +0.000 A 
ATOM     19  N   UNL     1      47.211   4.832  17.952  0.00  0.00    +0.000 NA
ENDBRANCH  13  14
BRANCH  13  20
ATOM     20  O   UNL     1      47.808   3.003  15.081  0.00  0.00    +0.000 OA
ATOM     21  H   UNL     1      47.167   2.644  14.432  0.00  0.00    +0.000 HD
ENDBRANCH  13  20
ENDBRANCH  12  13
ENDBRANCH   4  12
TORSDOF 5
ENDMDL
MODEL 7
REMARK VINA RESULT:    -5.697      2.912      4.205
REMARK INTER + INTRA:          -7.705
REMARK INTER:                  -7.324
REMARK INTRA:                  -0.381
REMARK UNBOUND:                -0.510
REMARK  Name = 
REMARK  5 active torsions:
REMARK  status: ('A' for Active; 'I' for Inactive)
REMARK    1  A    between atoms: C_2  and  C_4
REMARK    2  A    between atoms: C_7  and  C_8
REMARK    3  A    between atoms: C_8  and  C_9
REMARK    4  A    between atoms: C_9  and  O_10
REMARK    5  A    between atoms: C_9  and  C_11
REMARK                            x       y       z     vdW  Elec       q    Type
REMARK                         _______ _______ _______ _____ _____    ______ ____
ROOT
ATOM      1  C   UNL     1      45.318   4.198   9.599  0.00  0.00    +0.000 A 
ATOM      2  C   UNL     1      45.000   3.251  10.571  0.00  0.00    +0.000 A 
ATOM      3  C   UNL     1      45.134   3.584  11.919  0.00  0.00    +0.000 A 
ATOM      4  C   UNL     1      45.597   4.855  12.265  0.00  0.00    +0.000 A 
ATOM      5  N   UNL     1      45.912   5.790  11.333  0.00  0.00    +0.000 NA
ATOM      6  C   UNL     1      45.773   5.438  10.027  0.00  0.00    +0.000 A 
ENDROOT
BRANCH   1   8
ATOM      7  N   UNL     1      44.157   3.191   7.713  0.00  0.00    +0.000 N 
ATOM      8  C   UNL     1      45.226   3.928   8.148  0.00  0.00    +0.000 C 
ATOM      9  O   UNL     1      46.053   4.366   7.360  0.00  0.00    +0.000 OA
ATOM     10  H   UNL     1      44.056   3.099   6.710  0.00  0.00    +0.000 HD
ATOM     11  H   UNL     1      43.340   3.029   8.282  0.00  0.00    +0.000 HD
ENDBRANCH   1   8
BRANCH   4  12
ATOM     12  C   UNL     1      45.790   5.230  13.718  0.00  0.00    +0.000 C 
BRANCH  12  13
ATOM     13  C   UNL     1      47.236   5.609  14.038  0.00  0.00    +0.000 C 
BRANCH  13  14
ATOM     14  C   UNL     1      47.733   4.833  15.254  0.00  0.00    +0.000 A 
ATOM     15  N   UNL     1      47.465   3.516  15.349  0.00  0.00    +0.000 NA
ATOM     16  C   UNL     1      47.996   2.872  16.409  0.00  0.00    +0.000 A 
ATOM     17  C   UNL     1      48.766   3.487  17.369  0.00  0.00    +0.000 A 
ATOM     18  C   UNL     1      48.969   4.833  17.192  0.00  0.00    +0.000 A 
ATOM     19  N   UNL     1      48.472   5.529  16.150  0.00  0.00    +0.000 NA
ENDBRANCH  13  14
BRANCH  13  20
ATOM     20  O   UNL     1      47.300   7.028  14.322  0.00  0.00    +0.000 OA
ATOM     21  H   UNL     1      46.596   7.428  13.770  0.00  0.00    +0.000 HD
ENDBRANCH  13  20
ENDBRANCH  12  13
ENDBRANCH   4  12
TORSDOF 5
ENDMDL
MODEL 8
REMARK VINA RESULT:    -5.472      3.313      5.170
REMARK INTER + INTRA:          -7.421
REMARK INTER:                  -6.758
REMARK INTRA:                  -0.663
REMARK UNBOUND:                -0.510
REMARK  Name = 
REMARK  5 active torsions:
REMARK  status: ('A' for Active; 'I' for Inactive)
REMARK    1  A    between atoms: C_2  and  C_4
REMARK    2  A    between atoms: C_7  and  C_8
REMARK    3  A    between atoms: C_8  and  C_9
REMARK    4  A    between atoms: C_9  and  O_10
REMARK    5  A    between atoms: C_9  and  C_11
REMARK                            x       y       z     vdW  Elec       q    Type
REMARK                         _______ _______ _______ _____ _____    ______ ____
ROOT
ATOM      1  C   UNL     1      44.420   4.205  11.378  0.00  0.00    +0.000 A 
ATOM      2  C   UNL     1      45.183   4.995  10.520  0.00  0.00    +0.000 A 
ATOM      3  C   UNL     1      45.613   6.251  10.949  0.00  0.00    +0.000 A 
ATOM      4  C   UNL     1      45.259   6.694  12.226  0.00  0.00    +0.000 A 
ATOM      5  N   UNL     1      44.518   5.939  13.075  0.00  0.00    +0.000 NA
ATOM      6  C   UNL     1      44.111   4.720  12.630  0.00  0.00    +0.000 A 
ENDROOT
BRANCH   1   8
ATOM      7  N   UNL     1      44.507   2.239   9.948  0.00  0.00    +0.000 N 
ATOM      8  C   UNL     1      43.905   2.871  11.003  0.00  0.00    +0.000 C 
ATOM      9  O   UNL     1      42.995   2.337  11.622  0.00  0.00    +0.000 OA
ATOM     10  H   UNL     1      44.209   1.289   9.766  0.00  0.00    +0.000 HD
ATOM     11  H   UNL     1      45.401   2.526   9.580  0.00  0.00    +0.000 HD
ENDBRANCH   1   8
BRANCH   4  12
ATOM     12  C   UNL     1      45.678   8.068  12.702  0.00  0.00    +0.000 C 
BRANCH  12  13
ATOM     13  C   UNL     1      46.959   8.032  13.536  0.00  0.00    +0.000 C 
BRANCH  13  14
ATOM     14  C   UNL     1      48.166   8.388  12.672  0.00  0.00    +0.000 A 
ATOM     15  N   UNL     1      48.273   9.634  12.172  0.00  0.00    +0.000 NA
ATOM     16  C   UNL     1      49.398   9.907  11.481  0.00  0.00    +0.000 A 
ATOM     17  C   UNL     1      50.403   8.992  11.265  0.00  0.00    +0.000 A 
ATOM     18  C   UNL     1      50.194   7.745  11.802  0.00  0.00    +0.000 A 
ATOM     19  N   UNL     1      49.094   7.416  12.509  0.00  0.00    +0.000 NA
ENDBRANCH  13  14
BRANCH  13  20
ATOM     20  O   UNL     1      47.137   6.699  14.072  0.00  0.00    +0.000 OA
ATOM     21  H   UNL     1      46.241   6.420  14.356  0.00  0.00    +0.000 HD
ENDBRANCH  13  20
ENDBRANCH  12  13
ENDBRANCH   4  12
TORSDOF 5
ENDMDL
MODEL 9
REMARK VINA RESULT:    -5.296      3.320      5.094
REMARK INTER + INTRA:          -7.198
REMARK INTER:                  -6.824
REMARK INTRA:                  -0.374
REMARK UNBOUND:                -0.510
REMARK  Name = 
REMARK  5 active torsions:
REMARK  status: ('A' for Active; 'I' for Inactive)
REMARK    1  A    between atoms: C_2  and  C_4
REMARK    2  A    between atoms: C_7  and  C_8
REMARK    3  A    between atoms: C_8  and  C_9
REMARK    4  A    between atoms: C_9  and  O_10
REMARK    5  A    between atoms: C_9  and  C_11
REMARK                            x       y       z     vdW  Elec       q    Type
REMARK                         _______ _______ _______ _____ _____    ______ ____
ROOT
ATOM      1  C   UNL     1      44.873   4.011  11.314  0.00  0.00    +0.000 A 
ATOM      2  C   UNL     1      45.221   5.103  10.520  0.00  0.00    +0.000 A 
ATOM      3  C   UNL     1      45.966   6.141  11.077  0.00  0.00    +0.000 A 
ATOM      4  C   UNL     1      46.338   6.070  12.421  0.00  0.00    +0.000 A 
ATOM      5  N   UNL     1      46.009   5.016  13.209  0.00  0.00    +0.000 NA
ATOM      6  C   UNL     1      45.280   4.018  12.641  0.00  0.00    +0.000 A 
ENDROOT
BRANCH   1   8
ATOM      7  N   UNL     1      44.570   2.167   9.755  0.00  0.00    +0.000 N 
ATOM      8  C   UNL     1      44.069   2.875  10.815  0.00  0.00    +0.000 C 
ATOM      9  O   UNL     1      43.010   2.558  11.341  0.00  0.00    +0.000 OA
ATOM     10  H   UNL     1      44.057   1.336   9.490  0.00  0.00    +0.000 HD
ATOM     11  H   UNL     1      45.532   2.236   9.461  0.00  0.00    +0.000 HD
ENDBRANCH   1   8
BRANCH   4  12
ATOM     12  C   UNL     1      47.113   7.201  13.062  0.00  0.00    +0.000 C 
BRANCH  12  13
ATOM     13  C   UNL     1      48.536   6.792  13.446  0.00  0.00    +0.000 C 
BRANCH  13  14
ATOM     14  C   UNL     1      48.683   6.741  14.964  0.00  0.00    +0.000 A 
ATOM     15  N   UNL     1      48.882   7.886  15.645  0.00  0.00    +0.000 NA
ATOM     16  C   UNL     1      48.928   7.783  16.989  0.00  0.00    +0.000 A 
ATOM     17  C   UNL     1      48.793   6.594  17.668  0.00  0.00    +0.000 A 
ATOM     18  C   UNL     1      48.609   5.481  16.885  0.00  0.00    +0.000 A 
ATOM     19  N   UNL     1      48.546   5.523  15.539  0.00  0.00    +0.000 NA
ENDBRANCH  13  14
BRANCH  13  20
ATOM     20  O   UNL     1      49.466   7.765  12.912  0.00  0.00    +0.000 OA
ATOM     21  H   UNL     1      50.225   7.236  12.588  0.00  0.00    +0.000 HD
ENDBRANCH  13  20
ENDBRANCH  12  13
ENDBRANCH   4  12
TORSDOF 5
ENDMDL
