MODEL 1
REMARK VINA RESULT:    -7.364      0.000      0.000
REMARK INTER + INTRA:         -11.584
REMARK INTER:                 -10.378
REMARK INTRA:                  -1.206
REMARK UNBOUND:                -1.206
REMARK  Name = 
REMARK  9 active torsions:
REMARK  status: ('A' for Active; 'I' for Inactive)
REMARK    1  A    between atoms: C_1  and  O_2
REMARK    2  A    between atoms: O_2  and  C_3
REMARK    3  A    between atoms: C_8  and  C_9
REMARK    4  A    between atoms: N_11  and  C_12
REMARK    5  A    between atoms: C_12  and  C_13
REMARK    6  A    between atoms: C_16  and  C_17
REMARK    7  A    between atoms: C_17  and  C_18
REMARK    8  A    between atoms: C_17  and  N_19
REMARK    9  A    between atoms: C_20  and  C_22
REMARK                            x       y       z     vdW  Elec       q    Type
REMARK                         _______ _______ _______ _____ _____    ______ ____
ROOT
ATOM      1  C   UNL     1      47.907   6.055  14.631  0.00  0.00    +0.000 A 
ATOM      2  C   UNL     1      48.875   6.564  15.507  0.00  0.00    +0.000 A 
ATOM      3  C   UNL     1      49.126   5.940  16.733  0.00  0.00    +0.000 A 
ATOM      4  C   UNL     1      48.431   4.776  17.107  0.00  0.00    +0.000 A 
ATOM      5  C   UNL     1      47.477   4.273  16.218  0.00  0.00    +0.000 A 
ATOM      6  F   UNL     1      46.802   3.154  16.520  0.00  0.00    +0.000 F 
ATOM      7  C   UNL     1      47.214   4.895  14.998  0.00  0.00    +0.000 A 
ENDROOT
BRANCH   4   8
ATOM      8  C   UNL     1      48.756   4.020  18.382  0.00  0.00    +0.000 C 
ATOM      9  C   UNL     1      48.586   4.879  19.638  0.00  0.00    +0.000 C 
BRANCH   8  10
ATOM     10  N   UNL     1      50.122   3.540  18.291  0.00  0.00    +0.000 N 
ATOM     11  C   UNL     1      50.531   2.531  17.465  0.00  0.00    +0.000 C 
ATOM     12  O   UNL     1      49.802   2.001  16.636  0.00  0.00    +0.000 OA
ATOM     13  H   UNL     1      50.726   3.811  19.055  0.00  0.00    +0.000 HD
BRANCH  11  14
ATOM     14  C   UNL     1      51.946   2.163  17.603  0.00  0.00    +0.000 A 
ATOM     15  C   UNL     1      52.322   0.831  17.673  0.00  0.00    +0.000 A 
ATOM     16  S   UNL     1      54.008   0.607  17.797  0.00  0.00    +0.000 S 
ATOM     17  C   UNL     1      54.288   2.286  17.820  0.00  0.00    +0.000 A 
ATOM     18  N   UNL     1      55.546   2.788  17.949  0.00  0.00    +0.000 NA
ATOM     19  C   UNL     1      55.606   4.077  17.992  0.00  0.00    +0.000 A 
ATOM     20  N   UNL     1      54.522   4.913  17.903  0.00  0.00    +0.000 N 
ATOM     21  C   UNL     1      53.244   4.455  17.706  0.00  0.00    +0.000 A 
ATOM     22  O   UNL     1      52.317   5.234  17.509  0.00  0.00    +0.000 OA
ATOM     23  C   UNL     1      53.115   3.008  17.698  0.00  0.00    +0.000 A 
ATOM     24  H   UNL     1      54.640   5.916  17.911  0.00  0.00    +0.000 HD
ENDBRANCH  11  14
ENDBRANCH   8  10
ENDBRANCH   4   8
BRANCH   1  25
ATOM     25  C   UNL     1      47.659   6.708  13.298  0.00  0.00    +0.000 C 
BRANCH  25  28
ATOM     26  C   UNL     1      45.852   5.923  11.821  0.00  0.00    +0.000 C 
ATOM     27  O   UNL     1      45.113   6.840  12.161  0.00  0.00    +0.000 OA
ATOM     28  N   UNL     1      47.108   5.768  12.357  0.00  0.00    +0.000 N 
ATOM     29  H   UNL     1      47.672   4.983  12.046  0.00  0.00    +0.000 HD
BRANCH  26  35
ATOM     30  C   UNL     1      44.787   3.704  11.025  0.00  0.00    +0.000 A 
ATOM     31  C   UNL     1      44.506   2.846   9.951  0.00  0.00    +0.000 A 
ATOM     32  C   UNL     1      44.819   3.208   8.639  0.00  0.00    +0.000 A 
ATOM     33  C   UNL     1      45.410   4.438   8.379  0.00  0.00    +0.000 A 
ATOM     34  C   UNL     1      45.707   5.298   9.436  0.00  0.00    +0.000 A 
ATOM     35  C   UNL     1      45.417   4.941  10.768  0.00  0.00    +0.000 A 
BRANCH  30  37
ATOM     36  C   UNL     1      43.255   3.885  12.859  0.00  0.00    +0.000 C 
ATOM     37  O   UNL     1      44.482   3.395  12.328  0.00  0.00    +0.000 OA
ENDBRANCH  30  37
ENDBRANCH  26  35
ENDBRANCH  25  28
ENDBRANCH   1  25
TORSDOF 7
ENDMDL
MODEL 2
REMARK VINA RESULT:    -7.207      1.281      1.876
REMARK INTER + INTRA:         -11.362
REMARK INTER:                 -10.226
REMARK INTRA:                  -1.136
REMARK UNBOUND:                -1.206
REMARK  Name = 
REMARK  9 active torsions:
REMARK  status: ('A' for Active; 'I' for Inactive)
REMARK    1  A    between atoms: C_1  and  O_2
REMARK    2  A    between atoms: O_2  and  C_3
REMARK    3  A    between atoms: C_8  and  C_9
REMARK    4  A    between atoms: N_11  and  C_12
REMARK    5  A    between atoms: C_12  and  C_13
REMARK    6  A    between atoms: C_16  and  C_17
REMARK    7  A    between atoms: C_17  and  C_18
REMARK    8  A    between atoms: C_17  and  N_19
REMARK    9  A    between atoms: C_20  and  C_22
REMARK                            x       y       z     vdW  Elec       q    Type
REMARK                         _______ _______ _______ _____ _____    ______ ____
ROOT
ATOM      1  C   UNL     1      47.702   6.304  14.312  0.00  0.00    +0.000 A 
ATOM      2  C   UNL     1      48.498   6.975  15.250  0.00  0.00    +0.000 A 
ATOM      3  C   UNL     1      48.779   6.395  16.492  0.00  0.00    +0.000 A 
ATOM      4  C   UNL     1      48.289   5.119  16.821  0.00  0.00    +0.000 A 
ATOM      5  C   UNL     1      47.506   4.457  15.871  0.00  0.00    +0.000 A 
ATOM      6  F   UNL     1      47.033   3.229  16.130  0.00  0.00    +0.000 F 
ATOM      7  C   UNL     1      47.214   5.032  14.635  0.00  0.00    +0.000 A 
ENDROOT
BRANCH   4   8
ATOM      8  C   UNL     1      48.664   4.424  18.116  0.00  0.00    +0.000 C 
ATOM      9  C   UNL     1      48.199   5.194  19.356  0.00  0.00    +0.000 C 
BRANCH   8  10
ATOM     10  N   UNL     1      50.104   4.260  18.145  0.00  0.00    +0.000 N 
ATOM     11  C   UNL     1      50.779   3.254  17.512  0.00  0.00    +0.000 C 
ATOM     12  O   UNL     1      50.240   2.449  16.764  0.00  0.00    +0.000 OA
ATOM     13  H   UNL     1      50.583   4.778  18.870  0.00  0.00    +0.000 HD
BRANCH  11  14
ATOM     14  C   UNL     1      52.228   3.245  17.750  0.00  0.00    +0.000 A 
ATOM     15  C   UNL     1      52.957   4.421  17.686  0.00  0.00    +0.000 A 
ATOM     16  S   UNL     1      54.616   4.212  18.024  0.00  0.00    +0.000 S 
ATOM     17  C   UNL     1      54.424   2.531  18.209  0.00  0.00    +0.000 A 
ATOM     18  N   UNL     1      55.489   1.726  18.479  0.00  0.00    +0.000 NA
ATOM     19  C   UNL     1      55.205   0.470  18.553  0.00  0.00    +0.000 A 
ATOM     20  N   UNL     1      53.948  -0.058  18.397  0.00  0.00    +0.000 N 
ATOM     21  C   UNL     1      52.836   0.719  18.192  0.00  0.00    +0.000 A 
ATOM     22  O   UNL     1      51.714   0.223  18.180  0.00  0.00    +0.000 OA
ATOM     23  C   UNL     1      53.108   2.139  18.052  0.00  0.00    +0.000 A 
ATOM     24  H   UNL     1      53.786  -1.049  18.500  0.00  0.00    +0.000 HD
ENDBRANCH  11  14
ENDBRANCH   8  10
ENDBRANCH   4   8
BRANCH   1  25
ATOM     25  C   UNL     1      47.426   6.913  12.964  0.00  0.00    +0.000 C 
BRANCH  25  28
ATOM     26  C   UNL     1      45.791   6.206  11.264  0.00  0.00    +0.000 C 
ATOM     27  O   UNL     1      45.193   7.274  11.329  0.00  0.00    +0.000 OA
ATOM     28  N   UNL     1      46.880   5.936  12.058  0.00  0.00    +0.000 N 
ATOM     29  H   UNL     1      47.330   5.030  11.969  0.00  0.00    +0.000 HD
BRANCH  26  35
ATOM     30  C   UNL     1      44.397   4.157  10.522  0.00  0.00    +0.000 A 
ATOM     31  C   UNL     1      44.156   3.184   9.540  0.00  0.00    +0.000 A 
ATOM     32  C   UNL     1      44.845   3.200   8.325  0.00  0.00    +0.000 A 
ATOM     33  C   UNL     1      45.778   4.197   8.069  0.00  0.00    +0.000 A 
ATOM     34  C   UNL     1      46.039   5.165   9.038  0.00  0.00    +0.000 A 
ATOM     35  C   UNL     1      45.370   5.152  10.278  0.00  0.00    +0.000 A 
BRANCH  30  37
ATOM     36  C   UNL     1      43.636   2.971  12.461  0.00  0.00    +0.000 C 
ATOM     37  O   UNL     1      43.733   4.187  11.724  0.00  0.00    +0.000 OA
ENDBRANCH  30  37
ENDBRANCH  26  35
ENDBRANCH  25  28
ENDBRANCH   1  25
TORSDOF 7
ENDMDL
MODEL 3
REMARK VINA RESULT:    -7.123      3.215      9.405
REMARK INTER + INTRA:         -11.243
REMARK INTER:                 -10.376
REMARK INTRA:                  -0.867
REMARK UNBOUND:                -1.206
REMARK  Name = 
REMARK  9 active torsions:
REMARK  status: ('A' for Active; 'I' for Inactive)
REMARK    1  A    between atoms: C_1  and  O_2
REMARK    2  A    between atoms: O_2  and  C_3
REMARK    3  A    between atoms: C_8  and  C_9
REMARK    4  A    between atoms: N_11  and  C_12
REMARK    5  A    between atoms: C_12  and  C_13
REMARK    6  A    between atoms: C_16  and  C_17
REMARK    7  A    between atoms: C_17  and  C_18
REMARK    8  A    between atoms: C_17  and  N_19
REMARK    9  A    between atoms: C_20  and  C_22
REMARK                            x       y       z     vdW  Elec       q    Type
REMARK                         _______ _______ _______ _____ _____    ______ ____
ROOT
ATOM      1  C   UNL     1      49.898   7.506  15.573  0.00  0.00    +0.000 A 
ATOM      2  C   UNL     1      48.889   6.555  15.373  0.00  0.00    +0.000 A 
ATOM      3  C   UNL     1      47.899   6.758  14.404  0.00  0.00    +0.000 A 
ATOM      4  C   UNL     1      47.906   7.908  13.595  0.00  0.00    +0.000 A 
ATOM      5  C   UNL     1      48.925   8.842  13.799  0.00  0.00    +0.000 A 
ATOM      6  F   UNL     1      48.986   9.945  13.038  0.00  0.00    +0.000 F 
ATOM      7  C   UNL     1      49.909   8.652  14.768  0.00  0.00    +0.000 A 
ENDROOT
BRANCH   4   8
ATOM      8  C   UNL     1      46.908   8.104  12.470  0.00  0.00    +0.000 C 
ATOM      9  C   UNL     1      45.807   9.108  12.823  0.00  0.00    +0.000 C 
BRANCH   8  10
ATOM     10  N   UNL     1      46.320   6.817  12.153  0.00  0.00    +0.000 N 
ATOM     11  C   UNL     1      45.141   6.650  11.481  0.00  0.00    +0.000 C 
ATOM     12  O   UNL     1      44.515   7.577  10.982  0.00  0.00    +0.000 OA
ATOM     13  H   UNL     1      46.690   6.033  12.675  0.00  0.00    +0.000 HD
BRANCH  11  14
ATOM     14  C   UNL     1      44.705   5.255  11.346  0.00  0.00    +0.000 A 
ATOM     15  C   UNL     1      44.014   4.633  12.373  0.00  0.00    +0.000 A 
ATOM     16  S   UNL     1      43.564   3.027  12.014  0.00  0.00    +0.000 S 
ATOM     17  C   UNL     1      44.330   3.092  10.496  0.00  0.00    +0.000 A 
ATOM     18  N   UNL     1      44.351   2.008   9.671  0.00  0.00    +0.000 NA
ATOM     19  C   UNL     1      45.000   2.186   8.571  0.00  0.00    +0.000 A 
ATOM     20  N   UNL     1      45.620   3.356   8.209  0.00  0.00    +0.000 N 
ATOM     21  C   UNL     1      45.568   4.493   8.975  0.00  0.00    +0.000 A 
ATOM     22  O   UNL     1      46.029   5.552   8.564  0.00  0.00    +0.000 OA
ATOM     23  C   UNL     1      44.889   4.332  10.249  0.00  0.00    +0.000 A 
ATOM     24  H   UNL     1      46.085   3.441   7.317  0.00  0.00    +0.000 HD
ENDBRANCH  11  14
ENDBRANCH   8  10
ENDBRANCH   4   8
BRANCH   1  25
ATOM     25  C   UNL     1      50.981   7.273  16.592  0.00  0.00    +0.000 C 
BRANCH  25  28
ATOM     26  C   UNL     1      51.423   5.193  17.831  0.00  0.00    +0.000 C 
ATOM     27  O   UNL     1      51.232   5.740  18.911  0.00  0.00    +0.000 OA
ATOM     28  N   UNL     1      51.351   5.883  16.644  0.00  0.00    +0.000 N 
ATOM     29  H   UNL     1      51.529   5.380  15.780  0.00  0.00    +0.000 HD
BRANCH  26  35
ATOM     30  C   UNL     1      50.810   2.735  17.307  0.00  0.00    +0.000 A 
ATOM     31  C   UNL     1      51.183   1.383  17.370  0.00  0.00    +0.000 A 
ATOM     32  C   UNL     1      52.439   1.005  17.852  0.00  0.00    +0.000 A 
ATOM     33  C   UNL     1      53.344   1.972  18.269  0.00  0.00    +0.000 A 
ATOM     34  C   UNL     1      52.984   3.319  18.225  0.00  0.00    +0.000 A 
ATOM     35  C   UNL     1      51.715   3.718  17.762  0.00  0.00    +0.000 A 
BRANCH  30  37
ATOM     36  C   UNL     1      48.447   2.943  17.648  0.00  0.00    +0.000 C 
ATOM     37  O   UNL     1      49.592   3.151  16.827  0.00  0.00    +0.000 OA
ENDBRANCH  30  37
ENDBRANCH  26  35
ENDBRANCH  25  28
ENDBRANCH   1  25
TORSDOF 7
ENDMDL
MODEL 4
REMARK VINA RESULT:    -7.087      4.183      9.429
REMARK INTER + INTRA:         -11.193
REMARK INTER:                  -9.590
REMARK INTRA:                  -1.603
REMARK UNBOUND:                -1.206
REMARK  Name = 
REMARK  9 active torsions:
REMARK  status: ('A' for Active; 'I' for Inactive)
REMARK    1  A    between atoms: C_1  and  O_2
REMARK    2  A    between atoms: O_2  and  C_3
REMARK    3  A    between atoms: C_8  and  C_9
REMARK    4  A    between atoms: N_11  and  C_12
REMARK    5  A    between atoms: C_12  and  C_13
REMARK    6  A    between atoms: C_16  and  C_17
REMARK    7  A    between atoms: C_17  and  C_18
REMARK    8  A    between atoms: C_17  and  N_19
REMARK    9  A    between atoms: C_20  and  C_22
REMARK                            x       y       z     vdW  Elec       q    Type
REMARK                         _______ _______ _______ _____ _____    ______ ____
ROOT
ATOM      1  C   UNL     1      47.605   6.411  13.962  0.00  0.00    +0.000 A 
ATOM      2  C   UNL     1      47.269   5.081  14.249  0.00  0.00    +0.000 A 
ATOM      3  C   UNL     1      46.190   4.463  13.608  0.00  0.00    +0.000 A 
ATOM      4  C   UNL     1      45.431   5.152  12.646  0.00  0.00    +0.000 A 
ATOM      5  C   UNL     1      45.784   6.474  12.361  0.00  0.00    +0.000 A 
ATOM      6  F   UNL     1      45.103   7.167  11.437  0.00  0.00    +0.000 F 
ATOM      7  C   UNL     1      46.853   7.100  13.003  0.00  0.00    +0.000 A 
ENDROOT
BRANCH   4   8
ATOM      8  C   UNL     1      44.322   4.476  11.861  0.00  0.00    +0.000 C 
ATOM      9  C   UNL     1      43.350   3.703  12.758  0.00  0.00    +0.000 C 
BRANCH   8  10
ATOM     10  N   UNL     1      44.929   3.577  10.898  0.00  0.00    +0.000 N 
ATOM     11  C   UNL     1      44.646   3.574   9.561  0.00  0.00    +0.000 C 
ATOM     12  O   UNL     1      43.928   4.407   9.023  0.00  0.00    +0.000 OA
ATOM     13  H   UNL     1      45.392   2.769  11.294  0.00  0.00    +0.000 HD
BRANCH  11  14
ATOM     14  C   UNL     1      45.324   2.521   8.794  0.00  0.00    +0.000 A 
ATOM     15  C   UNL     1      44.975   1.192   8.967  0.00  0.00    +0.000 A 
ATOM     16  S   UNL     1      45.850   0.124   7.965  0.00  0.00    +0.000 S 
ATOM     17  C   UNL     1      46.765   1.400   7.307  0.00  0.00    +0.000 A 
ATOM     18  N   UNL     1      47.743   1.165   6.390  0.00  0.00    +0.000 NA
ATOM     19  C   UNL     1      48.383   2.218   6.008  0.00  0.00    +0.000 A 
ATOM     20  N   UNL     1      48.124   3.492   6.448  0.00  0.00    +0.000 N 
ATOM     21  C   UNL     1      47.105   3.785   7.319  0.00  0.00    +0.000 A 
ATOM     22  O   UNL     1      46.826   4.947   7.595  0.00  0.00    +0.000 OA
ATOM     23  C   UNL     1      46.384   2.627   7.818  0.00  0.00    +0.000 A 
ATOM     24  H   UNL     1      48.640   4.280   6.085  0.00  0.00    +0.000 HD
ENDBRANCH  11  14
ENDBRANCH   8  10
ENDBRANCH   4   8
BRANCH   1  25
ATOM     25  C   UNL     1      48.785   7.065  14.627  0.00  0.00    +0.000 C 
BRANCH  25  28
ATOM     26  C   UNL     1      48.816   7.012  17.088  0.00  0.00    +0.000 C 
ATOM     27  O   UNL     1      48.342   8.140  17.165  0.00  0.00    +0.000 OA
ATOM     28  N   UNL     1      49.095   6.423  15.878  0.00  0.00    +0.000 N 
ATOM     29  H   UNL     1      49.497   5.491  15.875  0.00  0.00    +0.000 HD
BRANCH  26  35
ATOM     30  C   UNL     1      48.374   5.048  18.713  0.00  0.00    +0.000 A 
ATOM     31  C   UNL     1      48.674   4.439  19.942  0.00  0.00    +0.000 A 
ATOM     32  C   UNL     1      49.673   4.950  20.774  0.00  0.00    +0.000 A 
ATOM     33  C   UNL     1      50.395   6.072  20.386  0.00  0.00    +0.000 A 
ATOM     34  C   UNL     1      50.102   6.697  19.175  0.00  0.00    +0.000 A 
ATOM     35  C   UNL     1      49.083   6.208  18.332  0.00  0.00    +0.000 A 
BRANCH  30  37
ATOM     36  C   UNL     1      47.520   3.220  17.420  0.00  0.00    +0.000 C 
ATOM     37  O   UNL     1      47.411   4.571  17.859  0.00  0.00    +0.000 OA
ENDBRANCH  30  37
ENDBRANCH  26  35
ENDBRANCH  25  28
ENDBRANCH   1  25
TORSDOF 7
ENDMDL
MODEL 5
REMARK VINA RESULT:    -7.086      2.419      3.588
REMARK INTER + INTRA:         -11.191
REMARK INTER:                  -9.673
REMARK INTRA:                  -1.518
REMARK UNBOUND:                -1.206
REMARK  Name = 
REMARK  9 active torsions:
REMARK  status: ('A' for Active; 'I' for Inactive)
REMARK    1  A    between atoms: C_1  and  O_2
REMARK    2  A    between atoms: O_2  and  C_3
REMARK    3  A    between atoms: C_8  and  C_9
REMARK    4  A    between atoms: N_11  and  C_12
REMARK    5  A    between atoms: C_12  and  C_13
REMARK    6  A    between atoms: C_16  and  C_17
REMARK    7  A    between atoms: C_17  and  C_18
REMARK    8  A    between atoms: C_17  and  N_19
REMARK    9  A    between atoms: C_20  and  C_22
REMARK                            x       y       z     vdW  Elec       q    Type
REMARK                         _______ _______ _______ _____ _____    ______ ____
ROOT
ATOM      1  C   UNL     1      48.441   7.950  13.393  0.00  0.00    +0.000 A 
ATOM      2  C   UNL     1      49.639   7.298  13.712  0.00  0.00    +0.000 A 
ATOM      3  C   UNL     1      50.204   7.426  14.986  0.00  0.00    +0.000 A 
ATOM      4  C   UNL     1      49.573   8.193  15.981  0.00  0.00    +0.000 A 
ATOM      5  C   UNL     1      48.373   8.829  15.652  0.00  0.00    +0.000 A 
ATOM      6  F   UNL     1      47.724   9.555  16.574  0.00  0.00    +0.000 F 
ATOM      7  C   UNL     1      47.808   8.713  14.382  0.00  0.00    +0.000 A 
ENDROOT
BRANCH   4   8
ATOM      8  C   UNL     1      50.108   8.265  17.399  0.00  0.00    +0.000 C 
ATOM      9  C   UNL     1      50.978   9.501  17.641  0.00  0.00    +0.000 C 
BRANCH   8  10
ATOM     10  N   UNL     1      50.875   7.061  17.658  0.00  0.00    +0.000 N 
ATOM     11  C   UNL     1      50.423   6.002  18.395  0.00  0.00    +0.000 C 
ATOM     12  O   UNL     1      49.278   5.918  18.821  0.00  0.00    +0.000 OA
ATOM     13  H   UNL     1      51.868   7.137  17.485  0.00  0.00    +0.000 HD
BRANCH  11  14
ATOM     14  C   UNL     1      51.405   4.928  18.590  0.00  0.00    +0.000 A 
ATOM     15  C   UNL     1      52.565   5.160  19.309  0.00  0.00    +0.000 A 
ATOM     16  S   UNL     1      53.562   3.784  19.454  0.00  0.00    +0.000 S 
ATOM     17  C   UNL     1      52.501   2.846  18.510  0.00  0.00    +0.000 A 
ATOM     18  N   UNL     1      52.785   1.548  18.211  0.00  0.00    +0.000 NA
ATOM     19  C   UNL     1      51.914   0.971  17.454  0.00  0.00    +0.000 A 
ATOM     20  N   UNL     1      50.773   1.568  16.978  0.00  0.00    +0.000 N 
ATOM     21  C   UNL     1      50.413   2.850  17.307  0.00  0.00    +0.000 A 
ATOM     22  O   UNL     1      49.328   3.309  16.964  0.00  0.00    +0.000 OA
ATOM     23  C   UNL     1      51.385   3.562  18.119  0.00  0.00    +0.000 A 
ATOM     24  H   UNL     1      50.114   1.050  16.416  0.00  0.00    +0.000 HD
ENDBRANCH  11  14
ENDBRANCH   8  10
ENDBRANCH   4   8
BRANCH   1  25
ATOM     25  C   UNL     1      47.816   7.787  12.034  0.00  0.00    +0.000 C 
BRANCH  25  28
ATOM     26  C   UNL     1      45.639   6.644  11.920  0.00  0.00    +0.000 C 
ATOM     27  O   UNL     1      45.026   7.704  11.976  0.00  0.00    +0.000 OA
ATOM     28  N   UNL     1      47.011   6.594  11.975  0.00  0.00    +0.000 N 
ATOM     29  H   UNL     1      47.465   5.687  11.935  0.00  0.00    +0.000 HD
BRANCH  26  35
ATOM     30  C   UNL     1      44.852   4.588  10.561  0.00  0.00    +0.000 A 
ATOM     31  C   UNL     1      44.060   3.430  10.520  0.00  0.00    +0.000 A 
ATOM     32  C   UNL     1      43.343   3.007  11.642  0.00  0.00    +0.000 A 
ATOM     33  C   UNL     1      43.416   3.730  12.826  0.00  0.00    +0.000 A 
ATOM     34  C   UNL     1      44.188   4.889  12.881  0.00  0.00    +0.000 A 
ATOM     35  C   UNL     1      44.901   5.343  11.753  0.00  0.00    +0.000 A 
BRANCH  30  37
ATOM     36  C   UNL     1      45.587   4.230   8.308  0.00  0.00    +0.000 C 
ATOM     37  O   UNL     1      45.584   5.030   9.487  0.00  0.00    +0.000 OA
ENDBRANCH  30  37
ENDBRANCH  26  35
ENDBRANCH  25  28
ENDBRANCH   1  25
TORSDOF 7
ENDMDL
MODEL 6
REMARK VINA RESULT:    -6.973      5.711      7.531
REMARK INTER + INTRA:         -11.032
REMARK INTER:                  -9.659
REMARK INTRA:                  -1.374
REMARK UNBOUND:                -1.206
REMARK  Name = 
REMARK  9 active torsions:
REMARK  status: ('A' for Active; 'I' for Inactive)
REMARK    1  A    between atoms: C_1  and  O_2
REMARK    2  A    between atoms: O_2  and  C_3
REMARK    3  A    between atoms: C_8  and  C_9
REMARK    4  A    between atoms: N_11  and  C_12
REMARK    5  A    between atoms: C_12  and  C_13
REMARK    6  A    between atoms: C_16  and  C_17
REMARK    7  A    between atoms: C_17  and  C_18
REMARK    8  A    between atoms: C_17  and  N_19
REMARK    9  A    between atoms: C_20  and  C_22
REMARK                            x       y       z     vdW  Elec       q    Type
REMARK                         _______ _______ _______ _____ _____    ______ ____
ROOT
ATOM      1  C   UNL     1      48.016   7.224  13.003  0.00  0.00    +0.000 A 
ATOM      2  C   UNL     1      48.220   7.723  11.710  0.00  0.00    +0.000 A 
ATOM      3  C   UNL     1      49.434   8.323  11.360  0.00  0.00    +0.000 A 
ATOM      4  C   UNL     1      50.485   8.422  12.289  0.00  0.00    +0.000 A 
ATOM      5  C   UNL     1      50.271   7.911  13.572  0.00  0.00    +0.000 A 
ATOM      6  F   UNL     1      51.250   7.963  14.487  0.00  0.00    +0.000 F 
ATOM      7  C   UNL     1      49.061   7.318  13.931  0.00  0.00    +0.000 A 
ENDROOT
BRANCH   4   8
ATOM      8  C   UNL     1      51.846   8.974  11.907  0.00  0.00    +0.000 C 
ATOM      9  C   UNL     1      51.907  10.502  11.985  0.00  0.00    +0.000 C 
BRANCH   8  10
ATOM     10  N   UNL     1      52.154   8.533  10.561  0.00  0.00    +0.000 N 
ATOM     11  C   UNL     1      53.420   8.428  10.054  0.00  0.00    +0.000 C 
ATOM     12  O   UNL     1      54.430   8.593  10.727  0.00  0.00    +0.000 OA
ATOM     13  H   UNL     1      51.377   8.547   9.914  0.00  0.00    +0.000 HD
BRANCH  11  14
ATOM     14  C   UNL     1      53.483   8.038   8.640  0.00  0.00    +0.000 A 
ATOM     15  C   UNL     1      53.338   8.988   7.642  0.00  0.00    +0.000 A 
ATOM     16  S   UNL     1      53.475   8.346   6.068  0.00  0.00    +0.000 S 
ATOM     17  C   UNL     1      53.675   6.766   6.668  0.00  0.00    +0.000 A 
ATOM     18  N   UNL     1      53.813   5.705   5.826  0.00  0.00    +0.000 NA
ATOM     19  C   UNL     1      53.915   4.563   6.416  0.00  0.00    +0.000 A 
ATOM     20  N   UNL     1      53.908   4.382   7.777  0.00  0.00    +0.000 N 
ATOM     21  C   UNL     1      53.840   5.427   8.664  0.00  0.00    +0.000 A 
ATOM     22  O   UNL     1      53.959   5.238   9.871  0.00  0.00    +0.000 OA
ATOM     23  C   UNL     1      53.674   6.732   8.050  0.00  0.00    +0.000 A 
ATOM     24  H   UNL     1      54.026   3.464   8.178  0.00  0.00    +0.000 HD
ENDBRANCH  11  14
ENDBRANCH   8  10
ENDBRANCH   4   8
BRANCH   1  25
ATOM     25  C   UNL     1      46.722   6.549  13.370  0.00  0.00    +0.000 C 
BRANCH  25  28
ATOM     26  C   UNL     1      45.441   5.716  11.440  0.00  0.00    +0.000 C 
ATOM     27  O   UNL     1      44.794   6.754  11.363  0.00  0.00    +0.000 OA
ATOM     28  N   UNL     1      46.387   5.522  12.418  0.00  0.00    +0.000 N 
ATOM     29  H   UNL     1      46.886   4.638  12.441  0.00  0.00    +0.000 HD
BRANCH  26  35
ATOM     30  C   UNL     1      44.882   3.288  10.746  0.00  0.00    +0.000 A 
ATOM     31  C   UNL     1      44.810   2.339   9.714  0.00  0.00    +0.000 A 
ATOM     32  C   UNL     1      45.070   2.697   8.388  0.00  0.00    +0.000 A 
ATOM     33  C   UNL     1      45.395   4.010   8.073  0.00  0.00    +0.000 A 
ATOM     34  C   UNL     1      45.483   4.962   9.088  0.00  0.00    +0.000 A 
ATOM     35  C   UNL     1      45.245   4.616  10.433  0.00  0.00    +0.000 A 
BRANCH  30  37
ATOM     36  C   UNL     1      43.303   3.216  12.547  0.00  0.00    +0.000 C 
ATOM     37  O   UNL     1      44.621   2.983  12.059  0.00  0.00    +0.000 OA
ENDBRANCH  30  37
ENDBRANCH  26  35
ENDBRANCH  25  28
ENDBRANCH   1  25
TORSDOF 7
ENDMDL
MODEL 7
REMARK VINA RESULT:    -6.348      6.374      9.847
REMARK INTER + INTRA:         -10.151
REMARK INTER:                  -8.704
REMARK INTRA:                  -1.447
REMARK UNBOUND:                -1.206
REMARK  Name = 
REMARK  9 active torsions:
REMARK  status: ('A' for Active; 'I' for Inactive)
REMARK    1  A    between atoms: C_1  and  O_2
REMARK    2  A    between atoms: O_2  and  C_3
REMARK    3  A    between atoms: C_8  and  C_9
REMARK    4  A    between atoms: N_11  and  C_12
REMARK    5  A    between atoms: C_12  and  C_13
REMARK    6  A    between atoms: C_16  and  C_17
REMARK    7  A    between atoms: C_17  and  C_18
REMARK    8  A    between atoms: C_17  and  N_19
REMARK    9  A    between atoms: C_20  and  C_22
REMARK                            x       y       z     vdW  Elec       q    Type
REMARK                         _______ _______ _______ _____ _____    ______ ____
ROOT
ATOM      1  C   UNL     1      51.534   9.037  10.640  0.00  0.00    +0.000 A 
ATOM      2  C   UNL     1      51.179   7.731  11.003  0.00  0.00    +0.000 A 
ATOM      3  C   UNL     1      49.963   7.475  11.646  0.00  0.00    +0.000 A 
ATOM      4  C   UNL     1      49.060   8.517  11.923  0.00  0.00    +0.000 A 
ATOM      5  C   UNL     1      49.423   9.812  11.546  0.00  0.00    +0.000 A 
ATOM      6  F   UNL     1      48.586  10.836  11.771  0.00  0.00    +0.000 F 
ATOM      7  C   UNL     1      50.637  10.077  10.913  0.00  0.00    +0.000 A 
ENDROOT
BRANCH   4   8
ATOM      8  C   UNL     1      47.692   8.254  12.525  0.00  0.00    +0.000 C 
ATOM      9  C   UNL     1      47.753   7.959  14.026  0.00  0.00    +0.000 C 
BRANCH   8  10
ATOM     10  N   UNL     1      47.094   7.135  11.823  0.00  0.00    +0.000 N 
ATOM     11  C   UNL     1      45.797   7.099  11.392  0.00  0.00    +0.000 C 
ATOM     12  O   UNL     1      45.039   8.058  11.459  0.00  0.00    +0.000 OA
ATOM     13  H   UNL     1      47.603   6.264  11.887  0.00  0.00    +0.000 HD
BRANCH  11  14
ATOM     14  C   UNL     1      45.391   5.829  10.777  0.00  0.00    +0.000 A 
ATOM     15  C   UNL     1      45.668   5.575   9.443  0.00  0.00    +0.000 A 
ATOM     16  S   UNL     1      45.149   4.035   8.923  0.00  0.00    +0.000 S 
ATOM     17  C   UNL     1      44.485   3.680  10.450  0.00  0.00    +0.000 A 
ATOM     18  N   UNL     1      43.842   2.503  10.682  0.00  0.00    +0.000 NA
ATOM     19  C   UNL     1      43.354   2.385  11.870  0.00  0.00    +0.000 A 
ATOM     20  N   UNL     1      43.463   3.331  12.858  0.00  0.00    +0.000 N 
ATOM     21  C   UNL     1      44.160   4.502  12.692  0.00  0.00    +0.000 A 
ATOM     22  O   UNL     1      44.340   5.268  13.633  0.00  0.00    +0.000 OA
ATOM     23  C   UNL     1      44.689   4.706  11.355  0.00  0.00    +0.000 A 
ATOM     24  H   UNL     1      43.087   3.164  13.780  0.00  0.00    +0.000 HD
ENDBRANCH  11  14
ENDBRANCH   8  10
ENDBRANCH   4   8
BRANCH   1  25
ATOM     25  C   UNL     1      52.828   9.309   9.920  0.00  0.00    +0.000 C 
BRANCH  25  28
ATOM     26  C   UNL     1      54.379   7.662   8.951  0.00  0.00    +0.000 C 
ATOM     27  O   UNL     1      55.305   8.050   9.655  0.00  0.00    +0.000 OA
ATOM     28  N   UNL     1      53.138   8.249   8.996  0.00  0.00    +0.000 N 
ATOM     29  H   UNL     1      52.411   7.893   8.382  0.00  0.00    +0.000 HD
BRANCH  26  35
ATOM     30  C   UNL     1      54.113   6.443   6.685  0.00  0.00    +0.000 A 
ATOM     31  C   UNL     1      54.281   5.256   5.953  0.00  0.00    +0.000 A 
ATOM     32  C   UNL     1      54.903   4.142   6.521  0.00  0.00    +0.000 A 
ATOM     33  C   UNL     1      55.375   4.199   7.826  0.00  0.00    +0.000 A 
ATOM     34  C   UNL     1      55.206   5.365   8.571  0.00  0.00    +0.000 A 
ATOM     35  C   UNL     1      54.563   6.492   8.023  0.00  0.00    +0.000 A 
BRANCH  30  37
ATOM     36  C   UNL     1      54.026   8.071   4.929  0.00  0.00    +0.000 C 
ATOM     37  O   UNL     1      53.522   7.565   6.161  0.00  0.00    +0.000 OA
ENDBRANCH  30  37
ENDBRANCH  26  35
ENDBRANCH  25  28
ENDBRANCH   1  25
TORSDOF 7
ENDMDL
MODEL 8
REMARK VINA RESULT:    -6.128      2.209      3.212
REMARK INTER + INTRA:          -9.842
REMARK INTER:                  -8.786
REMARK INTRA:                  -1.056
REMARK UNBOUND:                -1.206
REMARK  Name = 
REMARK  9 active torsions:
REMARK  status: ('A' for Active; 'I' for Inactive)
REMARK    1  A    between atoms: C_1  and  O_2
REMARK    2  A    between atoms: O_2  and  C_3
REMARK    3  A    between atoms: C_8  and  C_9
REMARK    4  A    between atoms: N_11  and  C_12
REMARK    5  A    between atoms: C_12  and  C_13
REMARK    6  A    between atoms: C_16  and  C_17
REMARK    7  A    between atoms: C_17  and  C_18
REMARK    8  A    between atoms: C_17  and  N_19
REMARK    9  A    between atoms: C_20  and  C_22
REMARK                            x       y       z     vdW  Elec       q    Type
REMARK                         _______ _______ _______ _____ _____    ______ ____
ROOT
ATOM      1  C   UNL     1      49.332   7.290  14.156  0.00  0.00    +0.000 A 
ATOM      2  C   UNL     1      50.522   7.975  14.433  0.00  0.00    +0.000 A 
ATOM      3  C   UNL     1      50.993   8.085  15.746  0.00  0.00    +0.000 A 
ATOM      4  C   UNL     1      50.297   7.494  16.814  0.00  0.00    +0.000 A 
ATOM      5  C   UNL     1      49.117   6.804  16.522  0.00  0.00    +0.000 A 
ATOM      6  F   UNL     1      48.428   6.206  17.504  0.00  0.00    +0.000 F 
ATOM      7  C   UNL     1      48.636   6.698  15.217  0.00  0.00    +0.000 A 
ENDROOT
BRANCH   4   8
ATOM      8  C   UNL     1      50.838   7.508  18.232  0.00  0.00    +0.000 C 
ATOM      9  C   UNL     1      51.805   8.668  18.484  0.00  0.00    +0.000 C 
BRANCH   8  10
ATOM     10  N   UNL     1      51.505   6.245  18.477  0.00  0.00    +0.000 N 
ATOM     11  C   UNL     1      52.730   5.908  17.973  0.00  0.00    +0.000 C 
ATOM     12  O   UNL     1      53.438   6.687  17.348  0.00  0.00    +0.000 OA
ATOM     13  H   UNL     1      50.913   5.506  18.835  0.00  0.00    +0.000 HD
BRANCH  11  14
ATOM     14  C   UNL     1      53.169   4.543  18.290  0.00  0.00    +0.000 A 
ATOM     15  C   UNL     1      54.380   4.325  18.927  0.00  0.00    +0.000 A 
ATOM     16  S   UNL     1      54.696   2.679  19.240  0.00  0.00    +0.000 S 
ATOM     17  C   UNL     1      53.251   2.197  18.482  0.00  0.00    +0.000 A 
ATOM     18  N   UNL     1      52.918   0.882  18.370  0.00  0.00    +0.000 NA
ATOM     19  C   UNL     1      51.816   0.660  17.737  0.00  0.00    +0.000 A 
ATOM     20  N   UNL     1      51.003   1.636  17.218  0.00  0.00    +0.000 N 
ATOM     21  C   UNL     1      51.262   2.976  17.366  0.00  0.00    +0.000 A 
ATOM     22  O   UNL     1      50.452   3.820  16.996  0.00  0.00    +0.000 OA
ATOM     23  C   UNL     1      52.518   3.279  18.029  0.00  0.00    +0.000 A 
ATOM     24  H   UNL     1      50.135   1.398  16.762  0.00  0.00    +0.000 HD
ENDBRANCH  11  14
ENDBRANCH   8  10
ENDBRANCH   4   8
BRANCH   1  25
ATOM     25  C   UNL     1      48.842   7.144  12.740  0.00  0.00    +0.000 C 
BRANCH  25  28
ATOM     26  C   UNL     1      46.400   6.922  12.525  0.00  0.00    +0.000 C 
ATOM     27  O   UNL     1      46.247   8.137  12.471  0.00  0.00    +0.000 OA
ATOM     28  N   UNL     1      47.640   6.353  12.689  0.00  0.00    +0.000 N 
ATOM     29  H   UNL     1      47.705   5.341  12.737  0.00  0.00    +0.000 HD
BRANCH  26  35
ATOM     30  C   UNL     1      45.037   4.801  13.108  0.00  0.00    +0.000 A 
ATOM     31  C   UNL     1      43.931   3.988  12.814  0.00  0.00    +0.000 A 
ATOM     32  C   UNL     1      43.008   4.355  11.832  0.00  0.00    +0.000 A 
ATOM     33  C   UNL     1      43.170   5.546  11.135  0.00  0.00    +0.000 A 
ATOM     34  C   UNL     1      44.270   6.359  11.406  0.00  0.00    +0.000 A 
ATOM     35  C   UNL     1      45.223   5.996  12.378  0.00  0.00    +0.000 A 
BRANCH  30  37
ATOM     36  C   UNL     1      46.838   3.393  13.825  0.00  0.00    +0.000 C 
ATOM     37  O   UNL     1      45.960   4.486  14.075  0.00  0.00    +0.000 OA
ENDBRANCH  30  37
ENDBRANCH  26  35
ENDBRANCH  25  28
ENDBRANCH   1  25
TORSDOF 7
ENDMDL
MODEL 9
REMARK VINA RESULT:    -5.768      5.643      8.736
REMARK INTER + INTRA:          -9.335
REMARK INTER:                  -8.610
REMARK INTRA:                  -0.725
REMARK UNBOUND:                -1.206
REMARK  Name = 
REMARK  9 active torsions:
REMARK  status: ('A' for Active; 'I' for Inactive)
REMARK    1  A    between atoms: C_1  and  O_2
REMARK    2  A    between atoms: O_2  and  C_3
REMARK    3  A    between atoms: C_8  and  C_9
REMARK    4  A    between atoms: N_11  and  C_12
REMARK    5  A    between atoms: C_12  and  C_13
REMARK    6  A    between atoms: C_16  and  C_17
REMARK    7  A    between atoms: C_17  and  C_18
REMARK    8  A    between atoms: C_17  and  N_19
REMARK    9  A    between atoms: C_20  and  C_22
REMARK                            x       y       z     vdW  Elec       q    Type
REMARK                         _______ _______ _______ _____ _____    ______ ____
ROOT
ATOM      1  C   UNL     1      51.729   9.335  12.978  0.00  0.00    +0.000 A 
ATOM      2  C   UNL     1      52.038   8.318  13.891  0.00  0.00    +0.000 A 
ATOM      3  C   UNL     1      51.053   7.794  14.735  0.00  0.00    +0.000 A 
ATOM      4  C   UNL     1      49.728   8.260  14.675  0.00  0.00    +0.000 A 
ATOM      5  C   UNL     1      49.433   9.267  13.752  0.00  0.00    +0.000 A 
ATOM      6  F   UNL     1      48.179   9.730  13.643  0.00  0.00    +0.000 F 
ATOM      7  C   UNL     1      50.410   9.800  12.913  0.00  0.00    +0.000 A 
ENDROOT
BRANCH   4   8
ATOM      8  C   UNL     1      48.619   7.639  15.504  0.00  0.00    +0.000 C 
ATOM      9  C   UNL     1      49.081   6.399  16.275  0.00  0.00    +0.000 C 
BRANCH   8  10
ATOM     10  N   UNL     1      47.527   7.292  14.617  0.00  0.00    +0.000 N 
ATOM     11  C   UNL     1      47.637   6.441  13.553  0.00  0.00    +0.000 C 
ATOM     12  O   UNL     1      48.650   5.798  13.308  0.00  0.00    +0.000 OA
ATOM     13  H   UNL     1      46.725   7.907  14.659  0.00  0.00    +0.000 HD
BRANCH  11  14
ATOM     14  C   UNL     1      46.415   6.303  12.749  0.00  0.00    +0.000 A 
ATOM     15  C   UNL     1      45.845   7.411  12.145  0.00  0.00    +0.000 A 
ATOM     16  S   UNL     1      44.454   7.044  11.229  0.00  0.00    +0.000 S 
ATOM     17  C   UNL     1      44.536   5.399  11.657  0.00  0.00    +0.000 A 
ATOM     18  N   UNL     1      43.598   4.512  11.226  0.00  0.00    +0.000 NA
ATOM     19  C   UNL     1      43.761   3.308  11.660  0.00  0.00    +0.000 A 
ATOM     20  N   UNL     1      44.787   2.903  12.476  0.00  0.00    +0.000 N 
ATOM     21  C   UNL     1      45.792   3.746  12.880  0.00  0.00    +0.000 A 
ATOM     22  O   UNL     1      46.757   3.322  13.507  0.00  0.00    +0.000 OA
ATOM     23  C   UNL     1      45.629   5.126  12.458  0.00  0.00    +0.000 A 
ATOM     24  H   UNL     1      44.877   1.937  12.754  0.00  0.00    +0.000 HD
ENDBRANCH  11  14
ENDBRANCH   8  10
ENDBRANCH   4   8
BRANCH   1  25
ATOM     25  C   UNL     1      52.781   9.877  12.048  0.00  0.00    +0.000 C 
BRANCH  25  28
ATOM     26  C   UNL     1      53.710   8.191  10.512  0.00  0.00    +0.000 C 
ATOM     27  O   UNL     1      54.622   7.922  11.285  0.00  0.00    +0.000 OA
ATOM     28  N   UNL     1      52.781   9.163  10.797  0.00  0.00    +0.000 N 
ATOM     29  H   UNL     1      52.053   9.352  10.114  0.00  0.00    +0.000 HD
BRANCH  26  35
ATOM     30  C   UNL     1      53.072   7.987   8.013  0.00  0.00    +0.000 A 
ATOM     31  C   UNL     1      52.901   7.148   6.901  0.00  0.00    +0.000 A 
ATOM     32  C   UNL     1      53.219   5.790   6.968  0.00  0.00    +0.000 A 
ATOM     33  C   UNL     1      53.723   5.250   8.145  0.00  0.00    +0.000 A 
ATOM     34  C   UNL     1      53.888   6.067   9.263  0.00  0.00    +0.000 A 
ATOM     35  C   UNL     1      53.553   7.435   9.221  0.00  0.00    +0.000 A 
BRANCH  30  37
ATOM     36  C   UNL     1      53.684  10.188   7.288  0.00  0.00    +0.000 C 
ATOM     37  O   UNL     1      52.787   9.330   7.987  0.00  0.00    +0.000 OA
ENDBRANCH  30  37
ENDBRANCH  26  35
ENDBRANCH  25  28
ENDBRANCH   1  25
TORSDOF 7
ENDMDL
