MODEL 1
REMARK VINA RESULT:    -7.762      0.000      0.000
REMARK INTER + INTRA:         -11.010
REMARK INTER:                 -10.485
REMARK INTRA:                  -0.525
REMARK UNBOUND:                -0.525
REMARK  Name = 
REMARK  6 active torsions:
REMARK  status: ('A' for Active; 'I' for Inactive)
REMARK    1  A    between atoms: C_5  and  N_6
REMARK    2  A    between atoms: N_6  and  C_7
REMARK    3  A    between atoms: C_7  and  C_8
REMARK    4  A    between atoms: C_8  and  C_9
REMARK    5  A    between atoms: C_13  and  O_14
REMARK    6  A    between atoms: O_14  and  C_15
REMARK                            x       y       z     vdW  Elec       q    Type
REMARK                         _______ _______ _______ _____ _____    ______ ____
ROOT
ATOM      1  C   UNL     1      45.243   4.026  12.219  0.00  0.00    +0.000 A 
ATOM      2  C   UNL     1      45.665   5.253  11.744  0.00  0.00    +0.000 A 
ATOM      3  C   UNL     1      46.726   5.829  12.409  0.00  0.00    +0.000 A 
ATOM      4  N   UNL     1      47.358   5.260  13.451  0.00  0.00    +0.000 NA
ATOM      5  C   UNL     1      46.876   4.071  13.835  0.00  0.00    +0.000 A 
ATOM      6  N   UNL     1      45.839   3.434  13.274  0.00  0.00    +0.000 NA
ENDROOT
BRANCH   1   7
ATOM      7  C   UNL     1      44.098   3.296  11.551  0.00  0.00    +0.000 C 
BRANCH   7   8
ATOM      8  C   UNL     1      44.260   3.267  10.029  0.00  0.00    +0.000 C 
BRANCH   8   9
ATOM      9  N   UNL     1      44.922   2.048   9.561  0.00  0.00    +0.000 N 
ATOM     10  H   UNL     1      45.355   1.496  10.297  0.00  0.00    +0.000 HD
BRANCH   9  15
ATOM     11  C   UNL     1      46.724   3.368   6.555  0.00  0.00    +0.000 A 
ATOM     12  C   UNL     1      47.381   2.209   6.190  0.00  0.00    +0.000 A 
ATOM     13  N   UNL     1      47.279   1.049   6.869  0.00  0.00    +0.000 NA
ATOM     14  C   UNL     1      46.477   1.061   7.965  0.00  0.00    +0.000 A 
ATOM     15  C   UNL     1      45.782   2.174   8.451  0.00  0.00    +0.000 A 
ATOM     16  C   UNL     1      45.911   3.340   7.688  0.00  0.00    +0.000 A 
ENDBRANCH   9  15
ENDBRANCH   8   9
ENDBRANCH   7   8
ENDBRANCH   1   7
BRANCH   5  17
ATOM     17  O   UNL     1      47.479   3.398  14.875  0.00  0.00    +0.000 OA
BRANCH  17  18
ATOM     18  C   UNL     1      47.240   3.942  16.188  0.00  0.00    +0.000 C 
ATOM     19  C   UNL     1      48.392   4.771  16.815  0.00  0.00    +0.000 C 
ATOM     20  C   UNL     1      48.138   4.048  18.144  0.00  0.00    +0.000 C 
ATOM     21  C   UNL     1      47.434   2.937  17.351  0.00  0.00    +0.000 C 
ENDBRANCH  17  18
ENDBRANCH   5  17
TORSDOF 6
ENDMDL
MODEL 2
REMARK VINA RESULT:    -7.667      1.327      1.794
REMARK INTER + INTRA:         -10.881
REMARK INTER:                 -10.082
REMARK INTRA:                  -0.799
REMARK UNBOUND:                -0.525
REMARK  Name = 
REMARK  6 active torsions:
REMARK  status: ('A' for Active; 'I' for Inactive)
REMARK    1  A    between atoms: C_5  and  N_6
REMARK    2  A    between atoms: N_6  and  C_7
REMARK    3  A    between atoms: C_7  and  C_8
REMARK    4  A    between atoms: C_8  and  C_9
REMARK    5  A    between atoms: C_13  and  O_14
REMARK    6  A    between atoms: O_14  and  C_15
REMARK                            x       y       z     vdW  Elec       q    Type
REMARK                         _______ _______ _______ _____ _____    ______ ____
ROOT
ATOM      1  C   UNL     1      45.044   4.995  12.866  0.00  0.00    +0.000 A 
ATOM      2  C   UNL     1      45.790   6.054  12.386  0.00  0.00    +0.000 A 
ATOM      3  C   UNL     1      47.121   6.073  12.747  0.00  0.00    +0.000 A 
ATOM      4  N   UNL     1      47.707   5.129  13.503  0.00  0.00    +0.000 NA
ATOM      5  C   UNL     1      46.901   4.143  13.918  0.00  0.00    +0.000 A 
ATOM      6  N   UNL     1      45.593   4.039  13.644  0.00  0.00    +0.000 NA
ENDROOT
BRANCH   1   7
ATOM      7  C   UNL     1      43.577   4.866  12.516  0.00  0.00    +0.000 C 
BRANCH   7   8
ATOM      8  C   UNL     1      43.381   4.484  11.046  0.00  0.00    +0.000 C 
BRANCH   8   9
ATOM      9  N   UNL     1      44.008   3.203  10.713  0.00  0.00    +0.000 N 
ATOM     10  H   UNL     1      44.477   2.750  11.493  0.00  0.00    +0.000 HD
BRANCH   9  15
ATOM     11  C   UNL     1      46.202   2.040   7.911  0.00  0.00    +0.000 A 
ATOM     12  C   UNL     1      46.497   3.273   7.362  0.00  0.00    +0.000 A 
ATOM     13  N   UNL     1      46.013   4.436   7.840  0.00  0.00    +0.000 NA
ATOM     14  C   UNL     1      45.197   4.351   8.923  0.00  0.00    +0.000 A 
ATOM     15  C   UNL     1      44.805   3.164   9.551  0.00  0.00    +0.000 A 
ATOM     16  C   UNL     1      45.359   1.994   9.021  0.00  0.00    +0.000 A 
ENDBRANCH   9  15
ENDBRANCH   8   9
ENDBRANCH   7   8
ENDBRANCH   1   7
BRANCH   5  17
ATOM     17  O   UNL     1      47.420   3.113  14.673  0.00  0.00    +0.000 OA
BRANCH  17  18
ATOM     18  C   UNL     1      48.038   3.506  15.915  0.00  0.00    +0.000 C 
ATOM     19  C   UNL     1      48.748   2.385  16.720  0.00  0.00    +0.000 C 
ATOM     20  C   UNL     1      48.109   2.950  17.996  0.00  0.00    +0.000 C 
ATOM     21  C   UNL     1      47.061   3.639  17.110  0.00  0.00    +0.000 C 
ENDBRANCH  17  18
ENDBRANCH   5  17
TORSDOF 6
ENDMDL
MODEL 3
REMARK VINA RESULT:    -7.033      2.707      3.239
REMARK INTER + INTRA:         -10.025
REMARK INTER:                  -9.265
REMARK INTRA:                  -0.760
REMARK UNBOUND:                -0.525
REMARK  Name = 
REMARK  6 active torsions:
REMARK  status: ('A' for Active; 'I' for Inactive)
REMARK    1  A    between atoms: C_5  and  N_6
REMARK    2  A    between atoms: N_6  and  C_7
REMARK    3  A    between atoms: C_7  and  C_8
REMARK    4  A    between atoms: C_8  and  C_9
REMARK    5  A    between atoms: C_13  and  O_14
REMARK    6  A    between atoms: O_14  and  C_15
REMARK                            x       y       z     vdW  Elec       q    Type
REMARK                         _______ _______ _______ _____ _____    ______ ____
ROOT
ATOM      1  C   UNL     1      44.015   4.142  11.020  0.00  0.00    +0.000 A 
ATOM      2  C   UNL     1      42.901   4.886  11.358  0.00  0.00    +0.000 A 
ATOM      3  C   UNL     1      43.113   6.230  11.582  0.00  0.00    +0.000 A 
ATOM      4  N   UNL     1      44.312   6.830  11.471  0.00  0.00    +0.000 NA
ATOM      5  C   UNL     1      45.328   6.024  11.137  0.00  0.00    +0.000 A 
ATOM      6  N   UNL     1      45.237   4.704  10.919  0.00  0.00    +0.000 NA
ENDROOT
BRANCH   1   7
ATOM      7  C   UNL     1      43.892   2.661  10.736  0.00  0.00    +0.000 C 
BRANCH   7   8
ATOM      8  C   UNL     1      44.252   2.335   9.284  0.00  0.00    +0.000 C 
BRANCH   8   9
ATOM      9  N   UNL     1      45.604   1.790   9.151  0.00  0.00    +0.000 N 
ATOM     10  H   UNL     1      46.194   1.929   9.968  0.00  0.00    +0.000 HD
BRANCH   9  15
ATOM     11  C   UNL     1      46.718   3.404   5.962  0.00  0.00    +0.000 A 
ATOM     12  C   UNL     1      47.642   2.455   5.568  0.00  0.00    +0.000 A 
ATOM     13  N   UNL     1      47.923   1.348   6.283  0.00  0.00    +0.000 NA
ATOM     14  C   UNL     1      47.240   1.192   7.447  0.00  0.00    +0.000 A 
ATOM     15  C   UNL     1      46.302   2.092   7.965  0.00  0.00    +0.000 A 
ATOM     16  C   UNL     1      46.039   3.209   7.164  0.00  0.00    +0.000 A 
ENDBRANCH   9  15
ENDBRANCH   8   9
ENDBRANCH   7   8
ENDBRANCH   1   7
BRANCH   5  17
ATOM     17  O   UNL     1      46.589   6.555  10.970  0.00  0.00    +0.000 OA
BRANCH  17  18
ATOM     18  C   UNL     1      47.184   7.124  12.153  0.00  0.00    +0.000 C 
ATOM     19  C   UNL     1      48.665   7.571  12.037  0.00  0.00    +0.000 C 
ATOM     20  C   UNL     1      48.926   6.931  13.407  0.00  0.00    +0.000 C 
ATOM     21  C   UNL     1      47.660   6.087  13.202  0.00  0.00    +0.000 C 
ENDBRANCH  17  18
ENDBRANCH   5  17
TORSDOF 6
ENDMDL
MODEL 4
REMARK VINA RESULT:    -6.983      2.298      3.774
REMARK INTER + INTRA:          -9.957
REMARK INTER:                  -9.327
REMARK INTRA:                  -0.630
REMARK UNBOUND:                -0.525
REMARK  Name = 
REMARK  6 active torsions:
REMARK  status: ('A' for Active; 'I' for Inactive)
REMARK    1  A    between atoms: C_5  and  N_6
REMARK    2  A    between atoms: N_6  and  C_7
REMARK    3  A    between atoms: C_7  and  C_8
REMARK    4  A    between atoms: C_8  and  C_9
REMARK    5  A    between atoms: C_13  and  O_14
REMARK    6  A    between atoms: O_14  and  C_15
REMARK                            x       y       z     vdW  Elec       q    Type
REMARK                         _______ _______ _______ _____ _____    ______ ____
ROOT
ATOM      1  C   UNL     1      45.748   5.433  12.015  0.00  0.00    +0.000 A 
ATOM      2  C   UNL     1      45.435   4.480  12.965  0.00  0.00    +0.000 A 
ATOM      3  C   UNL     1      46.380   4.268  13.947  0.00  0.00    +0.000 A 
ATOM      4  N   UNL     1      47.543   4.938  14.027  0.00  0.00    +0.000 NA
ATOM      5  C   UNL     1      47.753   5.841  13.060  0.00  0.00    +0.000 A 
ATOM      6  N   UNL     1      46.914   6.110  12.050  0.00  0.00    +0.000 NA
ENDROOT
BRANCH   1   7
ATOM      7  C   UNL     1      44.774   5.758  10.903  0.00  0.00    +0.000 C 
BRANCH   7   8
ATOM      8  C   UNL     1      44.029   4.509  10.425  0.00  0.00    +0.000 C 
BRANCH   8   9
ATOM      9  N   UNL     1      44.118   4.325   8.975  0.00  0.00    +0.000 N 
ATOM     10  H   UNL     1      43.225   4.164   8.516  0.00  0.00    +0.000 HD
BRANCH   9  15
ATOM     11  C   UNL     1      46.930   2.782   7.043  0.00  0.00    +0.000 A 
ATOM     12  C   UNL     1      46.846   1.502   7.553  0.00  0.00    +0.000 A 
ATOM     13  N   UNL     1      45.947   1.129   8.486  0.00  0.00    +0.000 NA
ATOM     14  C   UNL     1      45.096   2.094   8.922  0.00  0.00    +0.000 A 
ATOM     15  C   UNL     1      45.098   3.428   8.503  0.00  0.00    +0.000 A 
ATOM     16  C   UNL     1      46.039   3.745   7.516  0.00  0.00    +0.000 A 
ENDBRANCH   9  15
ENDBRANCH   8   9
ENDBRANCH   7   8
ENDBRANCH   1   7
BRANCH   5  17
ATOM     17  O   UNL     1      48.905   6.598  13.077  0.00  0.00    +0.000 OA
BRANCH  17  18
ATOM     18  C   UNL     1      49.032   7.558  12.010  0.00  0.00    +0.000 C 
ATOM     19  C   UNL     1      50.449   7.733  11.401  0.00  0.00    +0.000 C 
ATOM     20  C   UNL     1      50.225   9.252  11.417  0.00  0.00    +0.000 C 
ATOM     21  C   UNL     1      49.133   9.033  12.475  0.00  0.00    +0.000 C 
ENDBRANCH  17  18
ENDBRANCH   5  17
TORSDOF 6
ENDMDL
MODEL 5
REMARK VINA RESULT:    -6.676      3.115      7.009
REMARK INTER + INTRA:          -9.543
REMARK INTER:                  -8.814
REMARK INTRA:                  -0.729
REMARK UNBOUND:                -0.525
REMARK  Name = 
REMARK  6 active torsions:
REMARK  status: ('A' for Active; 'I' for Inactive)
REMARK    1  A    between atoms: C_5  and  N_6
REMARK    2  A    between atoms: N_6  and  C_7
REMARK    3  A    between atoms: C_7  and  C_8
REMARK    4  A    between atoms: C_8  and  C_9
REMARK    5  A    between atoms: C_13  and  O_14
REMARK    6  A    between atoms: O_14  and  C_15
REMARK                            x       y       z     vdW  Elec       q    Type
REMARK                         _______ _______ _______ _____ _____    ______ ____
ROOT
ATOM      1  C   UNL     1      43.823   5.026  10.961  0.00  0.00    +0.000 A 
ATOM      2  C   UNL     1      43.367   4.198  11.969  0.00  0.00    +0.000 A 
ATOM      3  C   UNL     1      43.346   2.849  11.686  0.00  0.00    +0.000 A 
ATOM      4  N   UNL     1      43.755   2.321  10.519  0.00  0.00    +0.000 NA
ATOM      5  C   UNL     1      44.181   3.204   9.607  0.00  0.00    +0.000 A 
ATOM      6  N   UNL     1      44.222   4.534   9.770  0.00  0.00    +0.000 NA
ENDROOT
BRANCH   1   7
ATOM      7  C   UNL     1      43.904   6.522  11.172  0.00  0.00    +0.000 C 
BRANCH   7   8
ATOM      8  C   UNL     1      45.062   6.898  12.100  0.00  0.00    +0.000 C 
BRANCH   8   9
ATOM      9  N   UNL     1      46.323   6.267  11.704  0.00  0.00    +0.000 N 
ATOM     10  H   UNL     1      46.316   5.251  11.748  0.00  0.00    +0.000 HD
BRANCH   9  15
ATOM     11  C   UNL     1      49.564   8.078  12.193  0.00  0.00    +0.000 A 
ATOM     12  C   UNL     1      49.879   7.590  13.446  0.00  0.00    +0.000 A 
ATOM     13  N   UNL     1      49.097   6.731  14.130  0.00  0.00    +0.000 NA
ATOM     14  C   UNL     1      47.946   6.347  13.520  0.00  0.00    +0.000 A 
ATOM     15  C   UNL     1      47.504   6.790  12.268  0.00  0.00    +0.000 A 
ATOM     16  C   UNL     1      48.372   7.662  11.601  0.00  0.00    +0.000 A 
ENDBRANCH   9  15
ENDBRANCH   8   9
ENDBRANCH   7   8
ENDBRANCH   1   7
BRANCH   5  17
ATOM     17  O   UNL     1      44.648   2.753   8.391  0.00  0.00    +0.000 OA
BRANCH  17  18
ATOM     18  C   UNL     1      46.077   2.806   8.216  0.00  0.00    +0.000 C 
ATOM     19  C   UNL     1      46.590   3.440   6.896  0.00  0.00    +0.000 C 
ATOM     20  C   UNL     1      47.607   2.296   6.787  0.00  0.00    +0.000 C 
ATOM     21  C   UNL     1      46.721   1.479   7.739  0.00  0.00    +0.000 C 
ENDBRANCH  17  18
ENDBRANCH   5  17
TORSDOF 6
ENDMDL
MODEL 6
REMARK VINA RESULT:    -6.667      2.206      7.729
REMARK INTER + INTRA:          -9.530
REMARK INTER:                  -9.004
REMARK INTRA:                  -0.526
REMARK UNBOUND:                -0.525
REMARK  Name = 
REMARK  6 active torsions:
REMARK  status: ('A' for Active; 'I' for Inactive)
REMARK    1  A    between atoms: C_5  and  N_6
REMARK    2  A    between atoms: N_6  and  C_7
REMARK    3  A    between atoms: C_7  and  C_8
REMARK    4  A    between atoms: C_8  and  C_9
REMARK    5  A    between atoms: C_13  and  O_14
REMARK    6  A    between atoms: O_14  and  C_15
REMARK                            x       y       z     vdW  Elec       q    Type
REMARK                         _______ _______ _______ _____ _____    ______ ____
ROOT
ATOM      1  C   UNL     1      44.945   5.385  12.415  0.00  0.00    +0.000 A 
ATOM      2  C   UNL     1      43.617   5.754  12.510  0.00  0.00    +0.000 A 
ATOM      3  C   UNL     1      42.718   4.974  11.813  0.00  0.00    +0.000 A 
ATOM      4  N   UNL     1      43.064   3.896  11.087  0.00  0.00    +0.000 NA
ATOM      5  C   UNL     1      44.374   3.620  11.059  0.00  0.00    +0.000 A 
ATOM      6  N   UNL     1      45.332   4.323  11.679  0.00  0.00    +0.000 NA
ENDROOT
BRANCH   1   7
ATOM      7  C   UNL     1      46.013   6.162  13.154  0.00  0.00    +0.000 C 
BRANCH   7   8
ATOM      8  C   UNL     1      47.075   5.233  13.748  0.00  0.00    +0.000 C 
BRANCH   8   9
ATOM      9  N   UNL     1      46.566   4.450  14.876  0.00  0.00    +0.000 N 
ATOM     10  H   UNL     1      45.615   4.681  15.152  0.00  0.00    +0.000 HD
BRANCH   9  15
ATOM     11  C   UNL     1      48.170   3.246  18.038  0.00  0.00    +0.000 A 
ATOM     12  C   UNL     1      48.998   4.327  18.268  0.00  0.00    +0.000 A 
ATOM     13  N   UNL     1      49.068   5.399  17.453  0.00  0.00    +0.000 NA
ATOM     14  C   UNL     1      48.265   5.377  16.358  0.00  0.00    +0.000 A 
ATOM     15  C   UNL     1      47.405   4.331  16.002  0.00  0.00    +0.000 A 
ATOM     16  C   UNL     1      47.362   3.260  16.901  0.00  0.00    +0.000 A 
ENDBRANCH   9  15
ENDBRANCH   8   9
ENDBRANCH   7   8
ENDBRANCH   1   7
BRANCH   5  17
ATOM     17  O   UNL     1      44.820   2.516  10.365  0.00  0.00    +0.000 OA
BRANCH  17  18
ATOM     18  C   UNL     1      44.806   2.639   8.929  0.00  0.00    +0.000 C 
ATOM     19  C   UNL     1      45.992   1.991   8.167  0.00  0.00    +0.000 C 
ATOM     20  C   UNL     1      46.066   3.249   7.290  0.00  0.00    +0.000 C 
ATOM     21  C   UNL     1      45.307   4.003   8.391  0.00  0.00    +0.000 C 
ENDBRANCH  17  18
ENDBRANCH   5  17
TORSDOF 6
ENDMDL
MODEL 7
REMARK VINA RESULT:    -6.041      3.448      7.162
REMARK INTER + INTRA:          -8.685
REMARK INTER:                  -7.198
REMARK INTRA:                  -1.486
REMARK UNBOUND:                -0.525
REMARK  Name = 
REMARK  6 active torsions:
REMARK  status: ('A' for Active; 'I' for Inactive)
REMARK    1  A    between atoms: C_5  and  N_6
REMARK    2  A    between atoms: N_6  and  C_7
REMARK    3  A    between atoms: C_7  and  C_8
REMARK    4  A    between atoms: C_8  and  C_9
REMARK    5  A    between atoms: C_13  and  O_14
REMARK    6  A    between atoms: O_14  and  C_15
REMARK                            x       y       z     vdW  Elec       q    Type
REMARK                         _______ _______ _______ _____ _____    ______ ____
ROOT
ATOM      1  C   UNL     1      46.905   5.898  13.211  0.00  0.00    +0.000 A 
ATOM      2  C   UNL     1      45.881   5.533  12.358  0.00  0.00    +0.000 A 
ATOM      3  C   UNL     1      45.493   4.211  12.404  0.00  0.00    +0.000 A 
ATOM      4  N   UNL     1      46.036   3.298  13.229  0.00  0.00    +0.000 NA
ATOM      5  C   UNL     1      47.019   3.750  14.019  0.00  0.00    +0.000 A 
ATOM      6  N   UNL     1      47.487   5.005  14.038  0.00  0.00    +0.000 NA
ENDROOT
BRANCH   1   7
ATOM      7  C   UNL     1      47.396   7.328  13.254  0.00  0.00    +0.000 C 
BRANCH   7   8
ATOM      8  C   UNL     1      48.602   7.482  14.186  0.00  0.00    +0.000 C 
BRANCH   8   9
ATOM      9  N   UNL     1      48.211   7.596  15.592  0.00  0.00    +0.000 N 
ATOM     10  H   UNL     1      47.902   8.525  15.868  0.00  0.00    +0.000 HD
BRANCH   9  15
ATOM     11  C   UNL     1      51.126   5.907  17.225  0.00  0.00    +0.000 A 
ATOM     12  C   UNL     1      50.635   5.861  18.515  0.00  0.00    +0.000 A 
ATOM     13  N   UNL     1      49.434   6.356  18.873  0.00  0.00    +0.000 NA
ATOM     14  C   UNL     1      48.696   6.922  17.883  0.00  0.00    +0.000 A 
ATOM     15  C   UNL     1      49.092   7.052  16.548  0.00  0.00    +0.000 A 
ATOM     16  C   UNL     1      50.339   6.497  16.237  0.00  0.00    +0.000 A 
ENDBRANCH   9  15
ENDBRANCH   8   9
ENDBRANCH   7   8
ENDBRANCH   1   7
BRANCH   5  17
ATOM     17  O   UNL     1      47.615   2.893  14.919  0.00  0.00    +0.000 OA
BRANCH  17  18
ATOM     18  C   UNL     1      48.072   3.499  16.144  0.00  0.00    +0.000 C 
ATOM     19  C   UNL     1      49.058   2.664  17.003  0.00  0.00    +0.000 C 
ATOM     20  C   UNL     1      48.262   3.077  18.249  0.00  0.00    +0.000 C 
ATOM     21  C   UNL     1      47.076   3.397  17.327  0.00  0.00    +0.000 C 
ENDBRANCH  17  18
ENDBRANCH   5  17
TORSDOF 6
ENDMDL
MODEL 8
REMARK VINA RESULT:    -5.689      3.136      4.570
REMARK INTER + INTRA:          -8.210
REMARK INTER:                  -7.370
REMARK INTRA:                  -0.840
REMARK UNBOUND:                -0.525
REMARK  Name = 
REMARK  6 active torsions:
REMARK  status: ('A' for Active; 'I' for Inactive)
REMARK    1  A    between atoms: C_5  and  N_6
REMARK    2  A    between atoms: N_6  and  C_7
REMARK    3  A    between atoms: C_7  and  C_8
REMARK    4  A    between atoms: C_8  and  C_9
REMARK    5  A    between atoms: C_13  and  O_14
REMARK    6  A    between atoms: O_14  and  C_15
REMARK                            x       y       z     vdW  Elec       q    Type
REMARK                         _______ _______ _______ _____ _____    ______ ____
ROOT
ATOM      1  C   UNL     1      48.524   7.518  13.591  0.00  0.00    +0.000 A 
ATOM      2  C   UNL     1      48.346   8.764  14.161  0.00  0.00    +0.000 A 
ATOM      3  C   UNL     1      48.481   8.831  15.532  0.00  0.00    +0.000 A 
ATOM      4  N   UNL     1      48.786   7.776  16.308  0.00  0.00    +0.000 NA
ATOM      5  C   UNL     1      48.940   6.613  15.662  0.00  0.00    +0.000 A 
ATOM      6  N   UNL     1      48.810   6.433  14.340  0.00  0.00    +0.000 NA
ENDROOT
BRANCH   1   7
ATOM      7  C   UNL     1      48.416   7.336  12.093  0.00  0.00    +0.000 C 
BRANCH   7   8
ATOM      8  C   UNL     1      47.000   6.930  11.676  0.00  0.00    +0.000 C 
BRANCH   8   9
ATOM      9  N   UNL     1      46.354   6.060  12.661  0.00  0.00    +0.000 N 
ATOM     10  H   UNL     1      46.992   5.637  13.330  0.00  0.00    +0.000 HD
BRANCH   9  15
ATOM     11  C   UNL     1      43.781   4.307  10.581  0.00  0.00    +0.000 A 
ATOM     12  C   UNL     1      43.523   3.249  11.430  0.00  0.00    +0.000 A 
ATOM     13  N   UNL     1      44.145   3.075  12.613  0.00  0.00    +0.000 NA
ATOM     14  C   UNL     1      45.066   4.013  12.954  0.00  0.00    +0.000 A 
ATOM     15  C   UNL     1      45.433   5.112  12.171  0.00  0.00    +0.000 A 
ATOM     16  C   UNL     1      44.735   5.249  10.966  0.00  0.00    +0.000 A 
ENDBRANCH   9  15
ENDBRANCH   8   9
ENDBRANCH   7   8
ENDBRANCH   1   7
BRANCH   5  17
ATOM     17  O   UNL     1      49.284   5.482  16.371  0.00  0.00    +0.000 OA
BRANCH  17  18
ATOM     18  C   UNL     1      48.210   4.859  17.103  0.00  0.00    +0.000 C 
ATOM     19  C   UNL     1      48.599   3.681  18.036  0.00  0.00    +0.000 C 
ATOM     20  C   UNL     1      47.375   2.915  17.516  0.00  0.00    +0.000 C 
ATOM     21  C   UNL     1      47.379   3.836  16.287  0.00  0.00    +0.000 C 
ENDBRANCH  17  18
ENDBRANCH   5  17
TORSDOF 6
ENDMDL
MODEL 9
REMARK VINA RESULT:    -5.440      3.504      7.711
REMARK INTER + INTRA:          -7.873
REMARK INTER:                  -7.500
REMARK INTRA:                  -0.373
REMARK UNBOUND:                -0.525
REMARK  Name = 
REMARK  6 active torsions:
REMARK  status: ('A' for Active; 'I' for Inactive)
REMARK    1  A    between atoms: C_5  and  N_6
REMARK    2  A    between atoms: N_6  and  C_7
REMARK    3  A    between atoms: C_7  and  C_8
REMARK    4  A    between atoms: C_8  and  C_9
REMARK    5  A    between atoms: C_13  and  O_14
REMARK    6  A    between atoms: O_14  and  C_15
REMARK                            x       y       z     vdW  Elec       q    Type
REMARK                         _______ _______ _______ _____ _____    ______ ____
ROOT
ATOM      1  C   UNL     1      45.204   5.971  11.996  0.00  0.00    +0.000 A 
ATOM      2  C   UNL     1      43.928   6.485  11.873  0.00  0.00    +0.000 A 
ATOM      3  C   UNL     1      43.020   5.702  11.190  0.00  0.00    +0.000 A 
ATOM      4  N   UNL     1      43.310   4.495  10.674  0.00  0.00    +0.000 NA
ATOM      5  C   UNL     1      44.572   4.084  10.848  0.00  0.00    +0.000 A 
ATOM      6  N   UNL     1      45.537   4.773  11.473  0.00  0.00    +0.000 NA
ENDROOT
BRANCH   1   7
ATOM      7  C   UNL     1      46.273   6.740  12.741  0.00  0.00    +0.000 C 
BRANCH   7   8
ATOM      8  C   UNL     1      45.863   8.197  12.971  0.00  0.00    +0.000 C 
BRANCH   8   9
ATOM      9  N   UNL     1      46.759   8.891  13.897  0.00  0.00    +0.000 N 
ATOM     10  H   UNL     1      46.286   9.494  14.566  0.00  0.00    +0.000 HD
BRANCH   9  15
ATOM     11  C   UNL     1      49.991  10.735  13.477  0.00  0.00    +0.000 A 
ATOM     12  C   UNL     1      49.929  10.940  12.112  0.00  0.00    +0.000 A 
ATOM     13  N   UNL     1      48.916  10.503  11.338  0.00  0.00    +0.000 NA
ATOM     14  C   UNL     1      47.920   9.830  11.972  0.00  0.00    +0.000 A 
ATOM     15  C   UNL     1      47.880   9.537  13.339  0.00  0.00    +0.000 A 
ATOM     16  C   UNL     1      48.950  10.039  14.090  0.00  0.00    +0.000 A 
ENDBRANCH   9  15
ENDBRANCH   8   9
ENDBRANCH   7   8
ENDBRANCH   1   7
BRANCH   5  17
ATOM     17  O   UNL     1      44.953   2.845  10.379  0.00  0.00    +0.000 OA
BRANCH  17  18
ATOM     18  C   UNL     1      44.963   2.700   8.945  0.00  0.00    +0.000 C 
ATOM     19  C   UNL     1      46.052   1.767   8.351  0.00  0.00    +0.000 C 
ATOM     20  C   UNL     1      46.304   2.819   7.262  0.00  0.00    +0.000 C 
ATOM     21  C   UNL     1      45.651   3.861   8.182  0.00  0.00    +0.000 C 
ENDBRANCH  17  18
ENDBRANCH   5  17
TORSDOF 6
ENDMDL
