MODEL 1
REMARK VINA RESULT:    -8.747      0.000      0.000
REMARK INTER + INTRA:         -12.106
REMARK INTER:                 -11.304
REMARK INTRA:                  -0.802
REMARK UNBOUND:                -0.802
REMARK  Name = 
REMARK  6 active torsions:
REMARK  status: ('A' for Active; 'I' for Inactive)
REMARK    1  A    between atoms: C_1  and  C_2
REMARK    2  A    between atoms: C_4  and  O_5
REMARK    3  A    between atoms: O_5  and  C_6
REMARK    4  A    between atoms: C_6  and  C_7
REMARK    5  A    between atoms: C_11  and  C_12
REMARK    6  A    between atoms: C_21  and  C_22
REMARK                            x       y       z     vdW  Elec       q    Type
REMARK                         _______ _______ _______ _____ _____    ______ ____
ROOT
ATOM      1  O   UNL     1      43.612   3.127  10.279  0.00  0.00    +0.000 OA
ENDROOT
BRANCH   1   5
ATOM      2  C   UNL     1      46.733   0.254   7.683  0.00  0.00    +0.000 C 
ATOM      3  C   UNL     1      46.165   1.614   7.991  0.00  0.00    +0.000 A 
ATOM      4  C   UNL     1      45.213   1.719   9.033  0.00  0.00    +0.000 A 
ATOM      5  C   UNL     1      44.595   2.936   9.338  0.00  0.00    +0.000 A 
ATOM      6  C   UNL     1      44.976   4.074   8.629  0.00  0.00    +0.000 A 
ATOM      7  C   UNL     1      45.929   3.993   7.601  0.00  0.00    +0.000 A 
ATOM      8  C   UNL     1      46.518   2.764   7.262  0.00  0.00    +0.000 A 
BRANCH   8   9
ATOM      9  C   UNL     1      47.468   2.688   6.105  0.00  0.00    +0.000 C 
ATOM     10  N   UNL     1      48.795   2.507   6.396  0.00  0.00    +0.000 N 
ATOM     11  O   UNL     1      47.105   2.773   4.940  0.00  0.00    +0.000 OA
ATOM     12  H   UNL     1      49.123   2.243   7.304  0.00  0.00    +0.000 HD
ATOM     13  H   UNL     1      49.411   2.380   5.599  0.00  0.00    +0.000 HD
ENDBRANCH   8   9
ENDBRANCH   1   5
BRANCH   1  14
ATOM     14  C   UNL     1      43.999   2.919  11.641  0.00  0.00    +0.000 C 
BRANCH  14  15
ATOM     15  C   UNL     1      44.951   3.973  12.171  0.00  0.00    +0.000 A 
ATOM     16  C   UNL     1      45.983   3.556  13.025  0.00  0.00    +0.000 A 
ATOM     17  C   UNL     1      46.940   4.459  13.472  0.00  0.00    +0.000 A 
ATOM     18  C   UNL     1      46.847   5.804  13.113  0.00  0.00    +0.000 A 
ATOM     19  C   UNL     1      45.761   6.295  12.363  0.00  0.00    +0.000 A 
ATOM     20  C   UNL     1      44.832   5.344  11.880  0.00  0.00    +0.000 A 
BRANCH  19  21
ATOM     21  C   UNL     1      45.576   7.755  12.164  0.00  0.00    +0.000 A 
ATOM     22  C   UNL     1      44.508   8.269  11.406  0.00  0.00    +0.000 A 
ATOM     23  C   UNL     1      44.396   9.635  11.147  0.00  0.00    +0.000 A 
ATOM     24  C   UNL     1      45.364  10.477  11.656  0.00  0.00    +0.000 A 
ATOM     25  N   UNL     1      46.393  10.050  12.412  0.00  0.00    +0.000 NA
ATOM     26  C   UNL     1      46.470   8.714  12.648  0.00  0.00    +0.000 A 
ENDBRANCH  19  21
ENDBRANCH  14  15
ENDBRANCH   1  14
TORSDOF 5
ENDMDL
MODEL 2
REMARK VINA RESULT:    -8.720      1.165      1.649
REMARK INTER + INTRA:         -12.071
REMARK INTER:                 -11.565
REMARK INTRA:                  -0.506
REMARK UNBOUND:                -0.802
REMARK  Name = 
REMARK  6 active torsions:
REMARK  status: ('A' for Active; 'I' for Inactive)
REMARK    1  A    between atoms: C_1  and  C_2
REMARK    2  A    between atoms: C_4  and  O_5
REMARK    3  A    between atoms: O_5  and  C_6
REMARK    4  A    between atoms: C_6  and  C_7
REMARK    5  A    between atoms: C_11  and  C_12
REMARK    6  A    between atoms: C_21  and  C_22
REMARK                            x       y       z     vdW  Elec       q    Type
REMARK                         _______ _______ _______ _____ _____    ______ ____
ROOT
ATOM      1  O   UNL     1      43.700   3.079  10.423  0.00  0.00    +0.000 OA
ENDROOT
BRANCH   1   5
ATOM      2  C   UNL     1      46.744   0.277   7.665  0.00  0.00    +0.000 C 
ATOM      3  C   UNL     1      46.168   1.625   8.009  0.00  0.00    +0.000 A 
ATOM      4  C   UNL     1      45.265   1.706   9.095  0.00  0.00    +0.000 A 
ATOM      5  C   UNL     1      44.641   2.911   9.437  0.00  0.00    +0.000 A 
ATOM      6  C   UNL     1      44.970   4.060   8.718  0.00  0.00    +0.000 A 
ATOM      7  C   UNL     1      45.875   4.001   7.647  0.00  0.00    +0.000 A 
ATOM      8  C   UNL     1      46.468   2.785   7.272  0.00  0.00    +0.000 A 
BRANCH   8   9
ATOM      9  C   UNL     1      47.364   2.733   6.072  0.00  0.00    +0.000 C 
ATOM     10  N   UNL     1      48.702   2.542   6.298  0.00  0.00    +0.000 N 
ATOM     11  O   UNL     1      46.950   2.844   4.928  0.00  0.00    +0.000 OA
ATOM     12  H   UNL     1      49.070   2.256   7.185  0.00  0.00    +0.000 HD
ATOM     13  H   UNL     1      49.281   2.431   5.472  0.00  0.00    +0.000 HD
ENDBRANCH   8   9
ENDBRANCH   1   5
BRANCH   1  14
ATOM     14  C   UNL     1      43.576   4.402  10.953  0.00  0.00    +0.000 C 
BRANCH  14  15
ATOM     15  C   UNL     1      44.781   4.852  11.757  0.00  0.00    +0.000 A 
ATOM     16  C   UNL     1      45.179   4.057  12.843  0.00  0.00    +0.000 A 
ATOM     17  C   UNL     1      46.327   4.367  13.562  0.00  0.00    +0.000 A 
ATOM     18  C   UNL     1      47.064   5.506  13.238  0.00  0.00    +0.000 A 
ATOM     19  C   UNL     1      46.637   6.403  12.240  0.00  0.00    +0.000 A 
ATOM     20  C   UNL     1      45.495   6.035  11.491  0.00  0.00    +0.000 A 
BRANCH  19  21
ATOM     21  C   UNL     1      47.323   7.706  12.049  0.00  0.00    +0.000 A 
ATOM     22  C   UNL     1      48.692   7.783  11.735  0.00  0.00    +0.000 A 
ATOM     23  C   UNL     1      49.347   9.011  11.648  0.00  0.00    +0.000 A 
ATOM     24  C   UNL     1      48.615  10.158  11.879  0.00  0.00    +0.000 A 
ATOM     25  N   UNL     1      47.297  10.153  12.155  0.00  0.00    +0.000 NA
ATOM     26  C   UNL     1      46.690   8.939  12.227  0.00  0.00    +0.000 A 
ENDBRANCH  19  21
ENDBRANCH  14  15
ENDBRANCH   1  14
TORSDOF 5
ENDMDL
MODEL 3
REMARK VINA RESULT:    -8.137      2.304      4.039
REMARK INTER + INTRA:         -11.317
REMARK INTER:                 -11.113
REMARK INTRA:                  -0.204
REMARK UNBOUND:                -0.802
REMARK  Name = 
REMARK  6 active torsions:
REMARK  status: ('A' for Active; 'I' for Inactive)
REMARK    1  A    between atoms: C_1  and  C_2
REMARK    2  A    between atoms: C_4  and  O_5
REMARK    3  A    between atoms: O_5  and  C_6
REMARK    4  A    between atoms: C_6  and  C_7
REMARK    5  A    between atoms: C_11  and  C_12
REMARK    6  A    between atoms: C_21  and  C_22
REMARK                            x       y       z     vdW  Elec       q    Type
REMARK                         _______ _______ _______ _____ _____    ______ ____
ROOT
ATOM      1  O   UNL     1      43.659   4.658   9.940  0.00  0.00    +0.000 OA
ENDROOT
BRANCH   1   5
ATOM      2  C   UNL     1      46.991   3.641   6.392  0.00  0.00    +0.000 C 
ATOM      3  C   UNL     1      46.100   3.178   7.514  0.00  0.00    +0.000 A 
ATOM      4  C   UNL     1      45.262   4.133   8.137  0.00  0.00    +0.000 A 
ATOM      5  C   UNL     1      44.452   3.793   9.225  0.00  0.00    +0.000 A 
ATOM      6  C   UNL     1      44.438   2.469   9.659  0.00  0.00    +0.000 A 
ATOM      7  C   UNL     1      45.252   1.504   9.045  0.00  0.00    +0.000 A 
ATOM      8  C   UNL     1      46.101   1.851   7.982  0.00  0.00    +0.000 A 
BRANCH   8   9
ATOM      9  C   UNL     1      47.023   0.824   7.399  0.00  0.00    +0.000 C 
ATOM     10  N   UNL     1      46.736  -0.492   7.654  0.00  0.00    +0.000 N 
ATOM     11  O   UNL     1      47.995   1.114   6.715  0.00  0.00    +0.000 OA
ATOM     12  H   UNL     1      45.862  -0.794   8.039  0.00  0.00    +0.000 HD
ATOM     13  H   UNL     1      47.326  -1.174   7.187  0.00  0.00    +0.000 HD
ENDBRANCH   8   9
ENDBRANCH   1   5
BRANCH   1  14
ATOM     14  C   UNL     1      43.747   4.558  11.365  0.00  0.00    +0.000 C 
BRANCH  14  15
ATOM     15  C   UNL     1      44.980   5.223  11.947  0.00  0.00    +0.000 A 
ATOM     16  C   UNL     1      45.560   6.276  11.225  0.00  0.00    +0.000 A 
ATOM     17  C   UNL     1      46.636   6.983  11.747  0.00  0.00    +0.000 A 
ATOM     18  C   UNL     1      47.180   6.612  12.976  0.00  0.00    +0.000 A 
ATOM     19  C   UNL     1      46.716   5.484  13.680  0.00  0.00    +0.000 A 
ATOM     20  C   UNL     1      45.588   4.817  13.149  0.00  0.00    +0.000 A 
BRANCH  19  21
ATOM     21  C   UNL     1      47.436   4.989  14.880  0.00  0.00    +0.000 A 
ATOM     22  C   UNL     1      47.116   3.757  15.480  0.00  0.00    +0.000 A 
ATOM     23  C   UNL     1      47.735   3.345  16.660  0.00  0.00    +0.000 A 
ATOM     24  C   UNL     1      48.675   4.179  17.230  0.00  0.00    +0.000 A 
ATOM     25  N   UNL     1      49.045   5.356  16.690  0.00  0.00    +0.000 NA
ATOM     26  C   UNL     1      48.426   5.725  15.538  0.00  0.00    +0.000 A 
ENDBRANCH  19  21
ENDBRANCH  14  15
ENDBRANCH   1  14
TORSDOF 5
ENDMDL
MODEL 4
REMARK VINA RESULT:    -8.125      1.938      2.977
REMARK INTER + INTRA:         -11.301
REMARK INTER:                 -10.574
REMARK INTRA:                  -0.727
REMARK UNBOUND:                -0.802
REMARK  Name = 
REMARK  6 active torsions:
REMARK  status: ('A' for Active; 'I' for Inactive)
REMARK    1  A    between atoms: C_1  and  C_2
REMARK    2  A    between atoms: C_4  and  O_5
REMARK    3  A    between atoms: O_5  and  C_6
REMARK    4  A    between atoms: C_6  and  C_7
REMARK    5  A    between atoms: C_11  and  C_12
REMARK    6  A    between atoms: C_21  and  C_22
REMARK                            x       y       z     vdW  Elec       q    Type
REMARK                         _______ _______ _______ _____ _____    ______ ____
ROOT
ATOM      1  O   UNL     1      44.058   3.655  10.500  0.00  0.00    +0.000 OA
ENDROOT
BRANCH   1   5
ATOM      2  C   UNL     1      46.568   0.328   7.788  0.00  0.00    +0.000 C 
ATOM      3  C   UNL     1      46.202   1.758   8.083  0.00  0.00    +0.000 A 
ATOM      4  C   UNL     1      45.361   2.016   9.192  0.00  0.00    +0.000 A 
ATOM      5  C   UNL     1      44.928   3.311   9.494  0.00  0.00    +0.000 A 
ATOM      6  C   UNL     1      45.388   4.368   8.710  0.00  0.00    +0.000 A 
ATOM      7  C   UNL     1      46.235   4.134   7.616  0.00  0.00    +0.000 A 
ATOM      8  C   UNL     1      46.635   2.831   7.282  0.00  0.00    +0.000 A 
BRANCH   8   9
ATOM      9  C   UNL     1      47.468   2.598   6.058  0.00  0.00    +0.000 C 
ATOM     10  N   UNL     1      48.812   2.400   6.244  0.00  0.00    +0.000 N 
ATOM     11  O   UNL     1      46.999   2.572   4.930  0.00  0.00    +0.000 OA
ATOM     12  H   UNL     1      49.217   2.222   7.143  0.00  0.00    +0.000 HD
ATOM     13  H   UNL     1      49.346   2.167   5.413  0.00  0.00    +0.000 HD
ENDBRANCH   8   9
ENDBRANCH   1   5
BRANCH   1  14
ATOM     14  C   UNL     1      44.631   3.794  11.804  0.00  0.00    +0.000 C 
BRANCH  14  15
ATOM     15  C   UNL     1      45.140   5.191  12.100  0.00  0.00    +0.000 A 
ATOM     16  C   UNL     1      44.427   6.275  11.567  0.00  0.00    +0.000 A 
ATOM     17  C   UNL     1      44.790   7.581  11.876  0.00  0.00    +0.000 A 
ATOM     18  C   UNL     1      45.905   7.821  12.679  0.00  0.00    +0.000 A 
ATOM     19  C   UNL     1      46.727   6.772  13.133  0.00  0.00    +0.000 A 
ATOM     20  C   UNL     1      46.303   5.453  12.847  0.00  0.00    +0.000 A 
BRANCH  19  21
ATOM     21  C   UNL     1      48.015   7.058  13.815  0.00  0.00    +0.000 A 
ATOM     22  C   UNL     1      48.904   8.038  13.335  0.00  0.00    +0.000 A 
ATOM     23  C   UNL     1      50.151   8.236  13.928  0.00  0.00    +0.000 A 
ATOM     24  C   UNL     1      50.495   7.442  15.003  0.00  0.00    +0.000 A 
ATOM     25  N   UNL     1      49.679   6.508  15.526  0.00  0.00    +0.000 NA
ATOM     26  C   UNL     1      48.470   6.345  14.927  0.00  0.00    +0.000 A 
ENDBRANCH  19  21
ENDBRANCH  14  15
ENDBRANCH   1  14
TORSDOF 5
ENDMDL
MODEL 5
REMARK VINA RESULT:    -7.798      2.770      7.042
REMARK INTER + INTRA:         -10.880
REMARK INTER:                  -9.880
REMARK INTRA:                  -0.999
REMARK UNBOUND:                -0.802
REMARK  Name = 
REMARK  6 active torsions:
REMARK  status: ('A' for Active; 'I' for Inactive)
REMARK    1  A    between atoms: C_1  and  C_2
REMARK    2  A    between atoms: C_4  and  O_5
REMARK    3  A    between atoms: O_5  and  C_6
REMARK    4  A    between atoms: C_6  and  C_7
REMARK    5  A    between atoms: C_11  and  C_12
REMARK    6  A    between atoms: C_21  and  C_22
REMARK                            x       y       z     vdW  Elec       q    Type
REMARK                         _______ _______ _______ _____ _____    ______ ____
ROOT
ATOM      1  O   UNL     1      44.622   6.557  12.686  0.00  0.00    +0.000 OA
ENDROOT
BRANCH   1   5
ATOM      2  C   UNL     1      48.205   9.872  11.738  0.00  0.00    +0.000 C 
ATOM      3  C   UNL     1      47.789   8.482  12.140  0.00  0.00    +0.000 A 
ATOM      4  C   UNL     1      46.408   8.176  12.151  0.00  0.00    +0.000 A 
ATOM      5  C   UNL     1      45.940   6.927  12.572  0.00  0.00    +0.000 A 
ATOM      6  C   UNL     1      46.870   5.953  12.931  0.00  0.00    +0.000 A 
ATOM      7  C   UNL     1      48.246   6.233  12.913  0.00  0.00    +0.000 A 
ATOM      8  C   UNL     1      48.716   7.500  12.535  0.00  0.00    +0.000 A 
BRANCH   8   9
ATOM      9  C   UNL     1      50.182   7.802  12.606  0.00  0.00    +0.000 C 
ATOM     10  N   UNL     1      50.941   7.483  11.510  0.00  0.00    +0.000 N 
ATOM     11  O   UNL     1      50.709   8.316  13.582  0.00  0.00    +0.000 OA
ATOM     12  H   UNL     1      50.542   7.240  10.623  0.00  0.00    +0.000 HD
ATOM     13  H   UNL     1      51.915   7.765  11.546  0.00  0.00    +0.000 HD
ENDBRANCH   8   9
ENDBRANCH   1   5
BRANCH   1  14
ATOM     14  C   UNL     1      43.932   6.306  11.457  0.00  0.00    +0.000 C 
BRANCH  14  15
ATOM     15  C   UNL     1      44.061   4.876  10.968  0.00  0.00    +0.000 A 
ATOM     16  C   UNL     1      43.414   3.871  11.702  0.00  0.00    +0.000 A 
ATOM     17  C   UNL     1      43.420   2.555  11.256  0.00  0.00    +0.000 A 
ATOM     18  C   UNL     1      44.118   2.217  10.096  0.00  0.00    +0.000 A 
ATOM     19  C   UNL     1      44.887   3.166   9.395  0.00  0.00    +0.000 A 
ATOM     20  C   UNL     1      44.819   4.505   9.843  0.00  0.00    +0.000 A 
BRANCH  19  21
ATOM     21  C   UNL     1      45.780   2.746   8.285  0.00  0.00    +0.000 A 
ATOM     22  C   UNL     1      46.102   3.615   7.226  0.00  0.00    +0.000 A 
ATOM     23  C   UNL     1      46.865   3.181   6.142  0.00  0.00    +0.000 A 
ATOM     24  C   UNL     1      47.302   1.872   6.133  0.00  0.00    +0.000 A 
ATOM     25  N   UNL     1      47.051   1.001   7.129  0.00  0.00    +0.000 NA
ATOM     26  C   UNL     1      46.308   1.458   8.171  0.00  0.00    +0.000 A 
ENDBRANCH  19  21
ENDBRANCH  14  15
ENDBRANCH   1  14
TORSDOF 5
ENDMDL
MODEL 6
REMARK VINA RESULT:    -7.353      2.917      7.552
REMARK INTER + INTRA:         -10.304
REMARK INTER:                  -9.569
REMARK INTRA:                  -0.735
REMARK UNBOUND:                -0.802
REMARK  Name = 
REMARK  6 active torsions:
REMARK  status: ('A' for Active; 'I' for Inactive)
REMARK    1  A    between atoms: C_1  and  C_2
REMARK    2  A    between atoms: C_4  and  O_5
REMARK    3  A    between atoms: O_5  and  C_6
REMARK    4  A    between atoms: C_6  and  C_7
REMARK    5  A    between atoms: C_11  and  C_12
REMARK    6  A    between atoms: C_21  and  C_22
REMARK                            x       y       z     vdW  Elec       q    Type
REMARK                         _______ _______ _______ _____ _____    ______ ____
ROOT
ATOM      1  O   UNL     1      46.101   6.969  11.477  0.00  0.00    +0.000 OA
ENDROOT
BRANCH   1   5
ATOM      2  C   UNL     1      47.239   4.092  15.369  0.00  0.00    +0.000 C 
ATOM      3  C   UNL     1      47.362   5.402  14.637  0.00  0.00    +0.000 A 
ATOM      4  C   UNL     1      46.617   5.573  13.447  0.00  0.00    +0.000 A 
ATOM      5  C   UNL     1      46.725   6.737  12.678  0.00  0.00    +0.000 A 
ATOM      6  C   UNL     1      47.546   7.766  13.138  0.00  0.00    +0.000 A 
ATOM      7  C   UNL     1      48.282   7.620  14.324  0.00  0.00    +0.000 A 
ATOM      8  C   UNL     1      48.211   6.436  15.074  0.00  0.00    +0.000 A 
BRANCH   8   9
ATOM      9  C   UNL     1      49.071   6.271  16.290  0.00  0.00    +0.000 C 
ATOM     10  N   UNL     1      48.522   6.619  17.497  0.00  0.00    +0.000 N 
ATOM     11  O   UNL     1      50.214   5.841  16.243  0.00  0.00    +0.000 OA
ATOM     12  H   UNL     1      47.544   6.793  17.621  0.00  0.00    +0.000 HD
ATOM     13  H   UNL     1      49.091   6.428  18.316  0.00  0.00    +0.000 HD
ENDBRANCH   8   9
ENDBRANCH   1   5
BRANCH   1  14
ATOM     14  C   UNL     1      44.745   6.523  11.377  0.00  0.00    +0.000 C 
BRANCH  14  15
ATOM     15  C   UNL     1      44.607   5.108  10.849  0.00  0.00    +0.000 A 
ATOM     16  C   UNL     1      43.803   4.214  11.571  0.00  0.00    +0.000 A 
ATOM     17  C   UNL     1      43.565   2.932  11.092  0.00  0.00    +0.000 A 
ATOM     18  C   UNL     1      44.172   2.508   9.910  0.00  0.00    +0.000 A 
ATOM     19  C   UNL     1      45.087   3.323   9.216  0.00  0.00    +0.000 A 
ATOM     20  C   UNL     1      45.269   4.640   9.699  0.00  0.00    +0.000 A 
BRANCH  19  21
ATOM     21  C   UNL     1      45.872   2.783   8.077  0.00  0.00    +0.000 A 
ATOM     22  C   UNL     1      46.379   1.470   8.085  0.00  0.00    +0.000 A 
ATOM     23  C   UNL     1      47.192   1.003   7.052  0.00  0.00    +0.000 A 
ATOM     24  C   UNL     1      47.491   1.864   6.016  0.00  0.00    +0.000 A 
ATOM     25  N   UNL     1      47.015   3.121   5.937  0.00  0.00    +0.000 NA
ATOM     26  C   UNL     1      46.222   3.542   6.958  0.00  0.00    +0.000 A 
ENDBRANCH  19  21
ENDBRANCH  14  15
ENDBRANCH   1  14
TORSDOF 5
ENDMDL
MODEL 7
REMARK VINA RESULT:    -7.295      2.918      7.646
REMARK INTER + INTRA:         -10.229
REMARK INTER:                  -9.862
REMARK INTRA:                  -0.368
REMARK UNBOUND:                -0.802
REMARK  Name = 
REMARK  6 active torsions:
REMARK  status: ('A' for Active; 'I' for Inactive)
REMARK    1  A    between atoms: C_1  and  C_2
REMARK    2  A    between atoms: C_4  and  O_5
REMARK    3  A    between atoms: O_5  and  C_6
REMARK    4  A    between atoms: C_6  and  C_7
REMARK    5  A    between atoms: C_11  and  C_12
REMARK    6  A    between atoms: C_21  and  C_22
REMARK                            x       y       z     vdW  Elec       q    Type
REMARK                         _______ _______ _______ _____ _____    ______ ____
ROOT
ATOM      1  O   UNL     1      45.917   6.730  11.726  0.00  0.00    +0.000 OA
ENDROOT
BRANCH   1   5
ATOM      2  C   UNL     1      49.354   7.577  15.219  0.00  0.00    +0.000 C 
ATOM      3  C   UNL     1      48.276   6.701  14.636  0.00  0.00    +0.000 A 
ATOM      4  C   UNL     1      47.668   7.109  13.426  0.00  0.00    +0.000 A 
ATOM      5  C   UNL     1      46.618   6.382  12.855  0.00  0.00    +0.000 A 
ATOM      6  C   UNL     1      46.211   5.200  13.474  0.00  0.00    +0.000 A 
ATOM      7  C   UNL     1      46.813   4.772  14.667  0.00  0.00    +0.000 A 
ATOM      8  C   UNL     1      47.836   5.523  15.267  0.00  0.00    +0.000 A 
BRANCH   8   9
ATOM      9  C   UNL     1      48.403   5.091  16.585  0.00  0.00    +0.000 C 
ATOM     10  N   UNL     1      47.745   5.500  17.715  0.00  0.00    +0.000 N 
ATOM     11  O   UNL     1      49.404   4.396  16.682  0.00  0.00    +0.000 OA
ATOM     12  H   UNL     1      46.828   5.902  17.696  0.00  0.00    +0.000 HD
ATOM     13  H   UNL     1      48.098   5.134  18.593  0.00  0.00    +0.000 HD
ENDBRANCH   8   9
ENDBRANCH   1   5
BRANCH   1  14
ATOM     14  C   UNL     1      44.582   6.222  11.635  0.00  0.00    +0.000 C 
BRANCH  14  15
ATOM     15  C   UNL     1      44.498   4.840  11.016  0.00  0.00    +0.000 A 
ATOM     16  C   UNL     1      43.692   3.885  11.653  0.00  0.00    +0.000 A 
ATOM     17  C   UNL     1      43.503   2.630  11.088  0.00  0.00    +0.000 A 
ATOM     18  C   UNL     1      44.160   2.294   9.904  0.00  0.00    +0.000 A 
ATOM     19  C   UNL     1      45.078   3.172   9.295  0.00  0.00    +0.000 A 
ATOM     20  C   UNL     1      45.209   4.460   9.864  0.00  0.00    +0.000 A 
BRANCH  19  21
ATOM     21  C   UNL     1      45.914   2.721   8.153  0.00  0.00    +0.000 A 
ATOM     22  C   UNL     1      46.198   3.567   7.065  0.00  0.00    +0.000 A 
ATOM     23  C   UNL     1      46.906   3.105   5.956  0.00  0.00    +0.000 A 
ATOM     24  C   UNL     1      47.325   1.790   5.951  0.00  0.00    +0.000 A 
ATOM     25  N   UNL     1      47.110   0.940   6.972  0.00  0.00    +0.000 NA
ATOM     26  C   UNL     1      46.421   1.424   8.039  0.00  0.00    +0.000 A 
ENDBRANCH  19  21
ENDBRANCH  14  15
ENDBRANCH   1  14
TORSDOF 5
ENDMDL
MODEL 8
REMARK VINA RESULT:    -6.724      4.524      8.651
REMARK INTER + INTRA:          -9.491
REMARK INTER:                  -8.910
REMARK INTRA:                  -0.581
REMARK UNBOUND:                -0.802
REMARK  Name = 
REMARK  6 active torsions:
REMARK  status: ('A' for Active; 'I' for Inactive)
REMARK    1  A    between atoms: C_1  and  C_2
REMARK    2  A    between atoms: C_4  and  O_5
REMARK    3  A    between atoms: O_5  and  C_6
REMARK    4  A    between atoms: C_6  and  C_7
REMARK    5  A    between atoms: C_11  and  C_12
REMARK    6  A    between atoms: C_21  and  C_22
REMARK                            x       y       z     vdW  Elec       q    Type
REMARK                         _______ _______ _______ _____ _____    ______ ____
ROOT
ATOM      1  O   UNL     1      46.770   3.985  14.831  0.00  0.00    +0.000 OA
ENDROOT
BRANCH   1   5
ATOM      2  C   UNL     1      49.354   6.934  17.888  0.00  0.00    +0.000 C 
ATOM      3  C   UNL     1      48.750   5.591  17.575  0.00  0.00    +0.000 A 
ATOM      4  C   UNL     1      48.112   5.422  16.324  0.00  0.00    +0.000 A 
ATOM      5  C   UNL     1      47.474   4.223  15.985  0.00  0.00    +0.000 A 
ATOM      6  C   UNL     1      47.526   3.162  16.888  0.00  0.00    +0.000 A 
ATOM      7  C   UNL     1      48.167   3.306  18.128  0.00  0.00    +0.000 A 
ATOM      8  C   UNL     1      48.768   4.522  18.491  0.00  0.00    +0.000 A 
BRANCH   8   9
ATOM      9  C   UNL     1      49.371   4.678  19.854  0.00  0.00    +0.000 C 
ATOM     10  N   UNL     1      50.693   4.348  19.995  0.00  0.00    +0.000 N 
ATOM     11  O   UNL     1      48.738   5.087  20.817  0.00  0.00    +0.000 OA
ATOM     12  H   UNL     1      51.302   4.193  19.216  0.00  0.00    +0.000 HD
ATOM     13  H   UNL     1      51.103   4.533  20.905  0.00  0.00    +0.000 HD
ENDBRANCH   8   9
ENDBRANCH   1   5
BRANCH   1  14
ATOM     14  C   UNL     1      46.213   5.135  14.186  0.00  0.00    +0.000 C 
BRANCH  14  15
ATOM     15  C   UNL     1      45.302   4.798  13.021  0.00  0.00    +0.000 A 
ATOM     16  C   UNL     1      43.917   4.807  13.248  0.00  0.00    +0.000 A 
ATOM     17  C   UNL     1      43.029   4.595  12.201  0.00  0.00    +0.000 A 
ATOM     18  C   UNL     1      43.513   4.318  10.923  0.00  0.00    +0.000 A 
ATOM     19  C   UNL     1      44.891   4.173  10.671  0.00  0.00    +0.000 A 
ATOM     20  C   UNL     1      45.772   4.446  11.743  0.00  0.00    +0.000 A 
BRANCH  19  21
ATOM     21  C   UNL     1      45.374   3.684   9.355  0.00  0.00    +0.000 A 
ATOM     22  C   UNL     1      45.532   2.311   9.089  0.00  0.00    +0.000 A 
ATOM     23  C   UNL     1      46.073   1.866   7.883  0.00  0.00    +0.000 A 
ATOM     24  C   UNL     1      46.452   2.809   6.950  0.00  0.00    +0.000 A 
ATOM     25  N   UNL     1      46.301   4.135   7.133  0.00  0.00    +0.000 NA
ATOM     26  C   UNL     1      45.766   4.534   8.317  0.00  0.00    +0.000 A 
ENDBRANCH  19  21
ENDBRANCH  14  15
ENDBRANCH   1  14
TORSDOF 5
ENDMDL
MODEL 9
REMARK VINA RESULT:    -6.595      4.391      8.382
REMARK INTER + INTRA:          -9.324
REMARK INTER:                  -8.422
REMARK INTRA:                  -0.902
REMARK UNBOUND:                -0.802
REMARK  Name = 
REMARK  6 active torsions:
REMARK  status: ('A' for Active; 'I' for Inactive)
REMARK    1  A    between atoms: C_1  and  C_2
REMARK    2  A    between atoms: C_4  and  O_5
REMARK    3  A    between atoms: O_5  and  C_6
REMARK    4  A    between atoms: C_6  and  C_7
REMARK    5  A    between atoms: C_11  and  C_12
REMARK    6  A    between atoms: C_21  and  C_22
REMARK                            x       y       z     vdW  Elec       q    Type
REMARK                         _______ _______ _______ _____ _____    ______ ____
ROOT
ATOM      1  O   UNL     1      48.963   6.586  14.022  0.00  0.00    +0.000 OA
ENDROOT
BRANCH   1   5
ATOM      2  C   UNL     1      47.146   3.392  17.372  0.00  0.00    +0.000 C 
ATOM      3  C   UNL     1      47.785   4.716  17.047  0.00  0.00    +0.000 A 
ATOM      4  C   UNL     1      48.001   5.036  15.685  0.00  0.00    +0.000 A 
ATOM      5  C   UNL     1      48.644   6.218  15.306  0.00  0.00    +0.000 A 
ATOM      6  C   UNL     1      49.025   7.119  16.300  0.00  0.00    +0.000 A 
ATOM      7  C   UNL     1      48.806   6.826  17.655  0.00  0.00    +0.000 A 
ATOM      8  C   UNL     1      48.202   5.619  18.042  0.00  0.00    +0.000 A 
BRANCH   8   9
ATOM      9  C   UNL     1      48.057   5.291  19.497  0.00  0.00    +0.000 C 
ATOM     10  N   UNL     1      46.880   5.643  20.104  0.00  0.00    +0.000 N 
ATOM     11  O   UNL     1      48.930   4.728  20.142  0.00  0.00    +0.000 OA
ATOM     12  H   UNL     1      46.067   5.928  19.593  0.00  0.00    +0.000 HD
ATOM     13  H   UNL     1      46.770   5.344  21.068  0.00  0.00    +0.000 HD
ENDBRANCH   8   9
ENDBRANCH   1   5
BRANCH   1  14
ATOM     14  C   UNL     1      48.349   7.786  13.542  0.00  0.00    +0.000 C 
BRANCH  14  15
ATOM     15  C   UNL     1      47.058   7.549  12.783  0.00  0.00    +0.000 A 
ATOM     16  C   UNL     1      46.009   8.461  12.972  0.00  0.00    +0.000 A 
ATOM     17  C   UNL     1      44.834   8.349  12.239  0.00  0.00    +0.000 A 
ATOM     18  C   UNL     1      44.671   7.291  11.344  0.00  0.00    +0.000 A 
ATOM     19  C   UNL     1      45.642   6.279  11.212  0.00  0.00    +0.000 A 
ATOM     20  C   UNL     1      46.848   6.449  11.932  0.00  0.00    +0.000 A 
BRANCH  19  21
ATOM     21  C   UNL     1      45.364   5.062  10.409  0.00  0.00    +0.000 A 
ATOM     22  C   UNL     1      45.691   4.987   9.042  0.00  0.00    +0.000 A 
ATOM     23  C   UNL     1      45.343   3.875   8.275  0.00  0.00    +0.000 A 
ATOM     24  C   UNL     1      44.664   2.844   8.892  0.00  0.00    +0.000 A 
ATOM     25  N   UNL     1      44.348   2.844  10.201  0.00  0.00    +0.000 NA
ATOM     26  C   UNL     1      44.706   3.940  10.919  0.00  0.00    +0.000 A 
ENDBRANCH  19  21
ENDBRANCH  14  15
ENDBRANCH   1  14
TORSDOF 5
ENDMDL
