MODEL 1
REMARK VINA RESULT:    -8.085      0.000      0.000
REMARK INTER + INTRA:         -11.250
REMARK INTER:                 -10.684
REMARK INTRA:                  -0.565
REMARK UNBOUND:                -0.565
REMARK  Name = 
REMARK  6 active torsions:
REMARK  status: ('A' for Active; 'I' for Inactive)
REMARK    1  A    between atoms: C_2  and  C_4
REMARK    2  A    between atoms: C_7  and  O_8
REMARK    3  A    between atoms: O_8  and  C_9
REMARK    4  A    between atoms: C_9  and  C_10
REMARK    5  A    between atoms: C_10  and  O_11
REMARK    6  A    between atoms: C_10  and  C_12
REMARK                            x       y       z     vdW  Elec       q    Type
REMARK                         _______ _______ _______ _____ _____    ______ ____
ROOT
ATOM      1  C   UNL     1      46.304   2.320   7.859  0.00  0.00    +0.000 A 
ATOM      2  C   UNL     1      45.405   1.782   8.783  0.00  0.00    +0.000 A 
ATOM      3  C   UNL     1      44.496   2.629   9.421  0.00  0.00    +0.000 A 
ATOM      4  C   UNL     1      44.505   3.975   9.091  0.00  0.00    +0.000 A 
ATOM      5  N   UNL     1      45.374   4.525   8.216  0.00  0.00    +0.000 NA
ATOM      6  C   UNL     1      46.266   3.688   7.631  0.00  0.00    +0.000 A 
ENDROOT
BRANCH   1   8
ATOM      7  N   UNL     1      48.403   2.162   6.643  0.00  0.00    +0.000 N 
ATOM      8  C   UNL     1      47.301   1.515   7.124  0.00  0.00    +0.000 C 
ATOM      9  O   UNL     1      47.171   0.308   6.992  0.00  0.00    +0.000 OA
ATOM     10  H   UNL     1      49.126   1.575   6.246  0.00  0.00    +0.000 HD
ATOM     11  H   UNL     1      48.671   3.089   6.944  0.00  0.00    +0.000 HD
ENDBRANCH   1   8
BRANCH   4  12
ATOM     12  O   UNL     1      43.578   4.781   9.723  0.00  0.00    +0.000 OA
BRANCH  12  13
ATOM     13  C   UNL     1      43.435   4.440  11.112  0.00  0.00    +0.000 C 
BRANCH  13  14
ATOM     14  C   UNL     1      43.655   5.682  11.992  0.00  0.00    +0.000 C 
BRANCH  14  15
ATOM     15  C   UNL     1      45.106   5.935  12.358  0.00  0.00    +0.000 A 
ATOM     16  C   UNL     1      45.709   5.146  13.351  0.00  0.00    +0.000 A 
ATOM     17  C   UNL     1      47.052   5.325  13.695  0.00  0.00    +0.000 A 
ATOM     18  C   UNL     1      47.815   6.290  13.045  0.00  0.00    +0.000 A 
ATOM     19  C   UNL     1      47.239   7.075  12.051  0.00  0.00    +0.000 A 
ATOM     20  C   UNL     1      45.897   6.897  11.706  0.00  0.00    +0.000 A 
ENDBRANCH  14  15
BRANCH  14  21
ATOM     21  O   UNL     1      42.917   5.551  13.213  0.00  0.00    +0.000 OA
ATOM     22  H   UNL     1      42.488   6.408  13.379  0.00  0.00    +0.000 HD
ENDBRANCH  14  21
ENDBRANCH  13  14
ENDBRANCH  12  13
ENDBRANCH   4  12
TORSDOF 6
ENDMDL
MODEL 2
REMARK VINA RESULT:    -7.979      0.692      1.572
REMARK INTER + INTRA:         -11.109
REMARK INTER:                 -10.450
REMARK INTRA:                  -0.659
REMARK UNBOUND:                -0.565
REMARK  Name = 
REMARK  6 active torsions:
REMARK  status: ('A' for Active; 'I' for Inactive)
REMARK    1  A    between atoms: C_2  and  C_4
REMARK    2  A    between atoms: C_7  and  O_8
REMARK    3  A    between atoms: O_8  and  C_9
REMARK    4  A    between atoms: C_9  and  C_10
REMARK    5  A    between atoms: C_10  and  O_11
REMARK    6  A    between atoms: C_10  and  C_12
REMARK                            x       y       z     vdW  Elec       q    Type
REMARK                         _______ _______ _______ _____ _____    ______ ____
ROOT
ATOM      1  C   UNL     1      46.240   2.247   7.965  0.00  0.00    +0.000 A 
ATOM      2  C   UNL     1      46.261   3.628   7.755  0.00  0.00    +0.000 A 
ATOM      3  C   UNL     1      45.301   4.427   8.382  0.00  0.00    +0.000 A 
ATOM      4  C   UNL     1      44.377   3.816   9.215  0.00  0.00    +0.000 A 
ATOM      5  N   UNL     1      44.323   2.483   9.422  0.00  0.00    +0.000 NA
ATOM      6  C   UNL     1      45.246   1.726   8.780  0.00  0.00    +0.000 A 
ENDROOT
BRANCH   1   8
ATOM      7  N   UNL     1      48.293   1.852   6.726  0.00  0.00    +0.000 N 
ATOM      8  C   UNL     1      47.210   1.313   7.357  0.00  0.00    +0.000 C 
ATOM      9  O   UNL     1      47.074   0.103   7.456  0.00  0.00    +0.000 OA
ATOM     10  H   UNL     1      49.001   1.196   6.420  0.00  0.00    +0.000 HD
ATOM     11  H   UNL     1      48.573   2.816   6.841  0.00  0.00    +0.000 HD
ENDBRANCH   1   8
BRANCH   4  12
ATOM     12  O   UNL     1      43.457   4.638   9.838  0.00  0.00    +0.000 OA
BRANCH  12  13
ATOM     13  C   UNL     1      43.370   4.368  11.247  0.00  0.00    +0.000 C 
BRANCH  13  14
ATOM     14  C   UNL     1      43.694   5.635  12.055  0.00  0.00    +0.000 C 
BRANCH  14  15
ATOM     15  C   UNL     1      45.165   5.797  12.393  0.00  0.00    +0.000 A 
ATOM     16  C   UNL     1      45.954   6.661  11.617  0.00  0.00    +0.000 A 
ATOM     17  C   UNL     1      47.305   6.863  11.915  0.00  0.00    +0.000 A 
ATOM     18  C   UNL     1      47.885   6.210  12.998  0.00  0.00    +0.000 A 
ATOM     19  C   UNL     1      47.117   5.357  13.785  0.00  0.00    +0.000 A 
ATOM     20  C   UNL     1      45.767   5.154  13.489  0.00  0.00    +0.000 A 
ENDBRANCH  14  15
BRANCH  14  21
ATOM     21  O   UNL     1      42.963   5.628  13.287  0.00  0.00    +0.000 OA
ATOM     22  H   UNL     1      42.337   4.885  13.241  0.00  0.00    +0.000 HD
ENDBRANCH  14  21
ENDBRANCH  13  14
ENDBRANCH  12  13
ENDBRANCH   4  12
TORSDOF 6
ENDMDL
MODEL 3
REMARK VINA RESULT:    -7.444      2.805      6.284
REMARK INTER + INTRA:         -10.403
REMARK INTER:                  -9.882
REMARK INTRA:                  -0.520
REMARK UNBOUND:                -0.565
REMARK  Name = 
REMARK  6 active torsions:
REMARK  status: ('A' for Active; 'I' for Inactive)
REMARK    1  A    between atoms: C_2  and  C_4
REMARK    2  A    between atoms: C_7  and  O_8
REMARK    3  A    between atoms: O_8  and  C_9
REMARK    4  A    between atoms: C_9  and  C_10
REMARK    5  A    between atoms: C_10  and  O_11
REMARK    6  A    between atoms: C_10  and  C_12
REMARK                            x       y       z     vdW  Elec       q    Type
REMARK                         _______ _______ _______ _____ _____    ______ ____
ROOT
ATOM      1  C   UNL     1      46.976   5.783  13.225  0.00  0.00    +0.000 A 
ATOM      2  C   UNL     1      46.622   6.370  12.007  0.00  0.00    +0.000 A 
ATOM      3  C   UNL     1      45.542   5.851  11.289  0.00  0.00    +0.000 A 
ATOM      4  C   UNL     1      44.843   4.783  11.831  0.00  0.00    +0.000 A 
ATOM      5  N   UNL     1      45.174   4.185  12.996  0.00  0.00    +0.000 NA
ATOM      6  C   UNL     1      46.243   4.688  13.659  0.00  0.00    +0.000 A 
ENDROOT
BRANCH   1   8
ATOM      7  N   UNL     1      47.907   6.265  15.418  0.00  0.00    +0.000 N 
ATOM      8  C   UNL     1      48.095   6.256  14.066  0.00  0.00    +0.000 C 
ATOM      9  O   UNL     1      49.165   6.582  13.575  0.00  0.00    +0.000 OA
ATOM     10  H   UNL     1      48.722   6.481  15.978  0.00  0.00    +0.000 HD
ATOM     11  H   UNL     1      47.149   5.773  15.871  0.00  0.00    +0.000 HD
ENDBRANCH   1   8
BRANCH   4  12
ATOM     12  O   UNL     1      43.766   4.309  11.107  0.00  0.00    +0.000 OA
BRANCH  12  13
ATOM     13  C   UNL     1      44.128   4.007   9.749  0.00  0.00    +0.000 C 
BRANCH  13  14
ATOM     14  C   UNL     1      44.884   2.669   9.682  0.00  0.00    +0.000 C 
BRANCH  14  15
ATOM     15  C   UNL     1      45.711   2.486   8.423  0.00  0.00    +0.000 A 
ATOM     16  C   UNL     1      45.881   3.574   7.552  0.00  0.00    +0.000 A 
ATOM     17  C   UNL     1      46.662   3.456   6.398  0.00  0.00    +0.000 A 
ATOM     18  C   UNL     1      47.291   2.251   6.102  0.00  0.00    +0.000 A 
ATOM     19  C   UNL     1      47.142   1.163   6.958  0.00  0.00    +0.000 A 
ATOM     20  C   UNL     1      46.363   1.280   8.112  0.00  0.00    +0.000 A 
ENDBRANCH  14  15
BRANCH  14  21
ATOM     21  O   UNL     1      43.956   1.580   9.755  0.00  0.00    +0.000 OA
ATOM     22  H   UNL     1      43.930   1.170   8.874  0.00  0.00    +0.000 HD
ENDBRANCH  14  21
ENDBRANCH  13  14
ENDBRANCH  12  13
ENDBRANCH   4  12
TORSDOF 6
ENDMDL
MODEL 4
REMARK VINA RESULT:    -6.717      2.749      6.602
REMARK INTER + INTRA:          -9.442
REMARK INTER:                  -8.992
REMARK INTRA:                  -0.450
REMARK UNBOUND:                -0.565
REMARK  Name = 
REMARK  6 active torsions:
REMARK  status: ('A' for Active; 'I' for Inactive)
REMARK    1  A    between atoms: C_2  and  C_4
REMARK    2  A    between atoms: C_7  and  O_8
REMARK    3  A    between atoms: O_8  and  C_9
REMARK    4  A    between atoms: C_9  and  C_10
REMARK    5  A    between atoms: C_10  and  O_11
REMARK    6  A    between atoms: C_10  and  C_12
REMARK                            x       y       z     vdW  Elec       q    Type
REMARK                         _______ _______ _______ _____ _____    ______ ____
ROOT
ATOM      1  C   UNL     1      45.418   7.333  12.286  0.00  0.00    +0.000 A 
ATOM      2  C   UNL     1      46.078   6.707  11.226  0.00  0.00    +0.000 A 
ATOM      3  C   UNL     1      45.687   5.421  10.845  0.00  0.00    +0.000 A 
ATOM      4  C   UNL     1      44.634   4.824  11.521  0.00  0.00    +0.000 A 
ATOM      5  N   UNL     1      43.990   5.399  12.560  0.00  0.00    +0.000 NA
ATOM      6  C   UNL     1      44.407   6.634  12.930  0.00  0.00    +0.000 A 
ENDROOT
BRANCH   1   8
ATOM      7  N   UNL     1      44.751   9.625  12.744  0.00  0.00    +0.000 N 
ATOM      8  C   UNL     1      45.746   8.691  12.766  0.00  0.00    +0.000 C 
ATOM      9  O   UNL     1      46.852   8.958  13.211  0.00  0.00    +0.000 OA
ATOM     10  H   UNL     1      44.964  10.512  13.184  0.00  0.00    +0.000 HD
ATOM     11  H   UNL     1      43.776   9.387  12.629  0.00  0.00    +0.000 HD
ENDBRANCH   1   8
BRANCH   4  12
ATOM     12  O   UNL     1      44.258   3.563  11.104  0.00  0.00    +0.000 OA
BRANCH  12  13
ATOM     13  C   UNL     1      44.338   3.428   9.675  0.00  0.00    +0.000 C 
BRANCH  13  14
ATOM     14  C   UNL     1      45.141   2.171   9.301  0.00  0.00    +0.000 C 
BRANCH  14  15
ATOM     15  C   UNL     1      45.982   2.322   8.046  0.00  0.00    +0.000 A 
ATOM     16  C   UNL     1      46.802   1.257   7.641  0.00  0.00    +0.000 A 
ATOM     17  C   UNL     1      47.568   1.343   6.474  0.00  0.00    +0.000 A 
ATOM     18  C   UNL     1      47.518   2.492   5.691  0.00  0.00    +0.000 A 
ATOM     19  C   UNL     1      46.704   3.555   6.071  0.00  0.00    +0.000 A 
ATOM     20  C   UNL     1      45.938   3.470   7.237  0.00  0.00    +0.000 A 
ENDBRANCH  14  15
BRANCH  14  21
ATOM     21  O   UNL     1      44.252   1.067   9.097  0.00  0.00    +0.000 OA
ATOM     22  H   UNL     1      44.716   0.429   8.529  0.00  0.00    +0.000 HD
ENDBRANCH  14  21
ENDBRANCH  13  14
ENDBRANCH  12  13
ENDBRANCH   4  12
TORSDOF 6
ENDMDL
MODEL 5
REMARK VINA RESULT:    -6.508      4.152      6.311
REMARK INTER + INTRA:          -9.166
REMARK INTER:                  -8.850
REMARK INTRA:                  -0.316
REMARK UNBOUND:                -0.565
REMARK  Name = 
REMARK  6 active torsions:
REMARK  status: ('A' for Active; 'I' for Inactive)
REMARK    1  A    between atoms: C_2  and  C_4
REMARK    2  A    between atoms: C_7  and  O_8
REMARK    3  A    between atoms: O_8  and  C_9
REMARK    4  A    between atoms: C_9  and  C_10
REMARK    5  A    between atoms: C_10  and  O_11
REMARK    6  A    between atoms: C_10  and  C_12
REMARK                            x       y       z     vdW  Elec       q    Type
REMARK                         _______ _______ _______ _____ _____    ______ ____
ROOT
ATOM      1  C   UNL     1      44.909   4.780  11.768  0.00  0.00    +0.000 A 
ATOM      2  C   UNL     1      45.511   5.775  12.543  0.00  0.00    +0.000 A 
ATOM      3  C   UNL     1      46.331   5.403  13.611  0.00  0.00    +0.000 A 
ATOM      4  C   UNL     1      46.538   4.053  13.845  0.00  0.00    +0.000 A 
ATOM      5  N   UNL     1      45.956   3.071  13.123  0.00  0.00    +0.000 NA
ATOM      6  C   UNL     1      45.141   3.456  12.111  0.00  0.00    +0.000 A 
ENDROOT
BRANCH   1   8
ATOM      7  N   UNL     1      44.503   4.751   9.372  0.00  0.00    +0.000 N 
ATOM      8  C   UNL     1      44.031   5.061  10.614  0.00  0.00    +0.000 C 
ATOM      9  O   UNL     1      42.905   5.510  10.767  0.00  0.00    +0.000 OA
ATOM     10  H   UNL     1      43.843   4.843   8.609  0.00  0.00    +0.000 HD
ATOM     11  H   UNL     1      45.305   4.154   9.222  0.00  0.00    +0.000 HD
ENDBRANCH   1   8
BRANCH   4  12
ATOM     12  O   UNL     1      47.373   3.720  14.894  0.00  0.00    +0.000 OA
BRANCH  12  13
ATOM     13  C   UNL     1      47.284   4.671  15.968  0.00  0.00    +0.000 C 
BRANCH  13  14
ATOM     14  C   UNL     1      47.610   3.994  17.309  0.00  0.00    +0.000 C 
BRANCH  14  15
ATOM     15  C   UNL     1      49.037   3.487  17.419  0.00  0.00    +0.000 A 
ATOM     16  C   UNL     1      50.016   4.319  17.986  0.00  0.00    +0.000 A 
ATOM     17  C   UNL     1      51.335   3.879  18.135  0.00  0.00    +0.000 A 
ATOM     18  C   UNL     1      51.692   2.598  17.726  0.00  0.00    +0.000 A 
ATOM     19  C   UNL     1      50.734   1.756  17.170  0.00  0.00    +0.000 A 
ATOM     20  C   UNL     1      49.416   2.194  17.021  0.00  0.00    +0.000 A 
ENDBRANCH  14  15
BRANCH  14  21
ATOM     21  O   UNL     1      46.736   2.878  17.518  0.00  0.00    +0.000 OA
ATOM     22  H   UNL     1      46.785   2.325  16.719  0.00  0.00    +0.000 HD
ENDBRANCH  14  21
ENDBRANCH  13  14
ENDBRANCH  12  13
ENDBRANCH   4  12
TORSDOF 6
ENDMDL
MODEL 6
REMARK VINA RESULT:    -6.505      3.538      6.802
REMARK INTER + INTRA:          -9.161
REMARK INTER:                  -8.761
REMARK INTRA:                  -0.400
REMARK UNBOUND:                -0.565
REMARK  Name = 
REMARK  6 active torsions:
REMARK  status: ('A' for Active; 'I' for Inactive)
REMARK    1  A    between atoms: C_2  and  C_4
REMARK    2  A    between atoms: C_7  and  O_8
REMARK    3  A    between atoms: O_8  and  C_9
REMARK    4  A    between atoms: C_9  and  C_10
REMARK    5  A    between atoms: C_10  and  O_11
REMARK    6  A    between atoms: C_10  and  C_12
REMARK                            x       y       z     vdW  Elec       q    Type
REMARK                         _______ _______ _______ _____ _____    ______ ____
ROOT
ATOM      1  C   UNL     1      48.032   5.586  15.399  0.00  0.00    +0.000 A 
ATOM      2  C   UNL     1      47.879   6.240  14.174  0.00  0.00    +0.000 A 
ATOM      3  C   UNL     1      47.073   5.662  13.190  0.00  0.00    +0.000 A 
ATOM      4  C   UNL     1      46.432   4.467  13.480  0.00  0.00    +0.000 A 
ATOM      5  N   UNL     1      46.577   3.806  14.649  0.00  0.00    +0.000 NA
ATOM      6  C   UNL     1      47.386   4.372  15.577  0.00  0.00    +0.000 A 
ENDROOT
BRANCH   1   8
ATOM      7  N   UNL     1      48.635   7.401  16.900  0.00  0.00    +0.000 N 
ATOM      8  C   UNL     1      48.855   6.112  16.509  0.00  0.00    +0.000 C 
ATOM      9  O   UNL     1      49.667   5.406  17.087  0.00  0.00    +0.000 OA
ATOM     10  H   UNL     1      49.125   7.702  17.734  0.00  0.00    +0.000 HD
ATOM     11  H   UNL     1      47.815   7.926  16.629  0.00  0.00    +0.000 HD
ENDBRANCH   1   8
BRANCH   4  12
ATOM     12  O   UNL     1      45.625   3.935  12.495  0.00  0.00    +0.000 OA
BRANCH  12  13
ATOM     13  C   UNL     1      45.094   4.954  11.632  0.00  0.00    +0.000 C 
BRANCH  13  14
ATOM     14  C   UNL     1      44.245   4.322  10.516  0.00  0.00    +0.000 C 
BRANCH  14  15
ATOM     15  C   UNL     1      45.057   3.671   9.411  0.00  0.00    +0.000 A 
ATOM     16  C   UNL     1      45.165   2.272   9.376  0.00  0.00    +0.000 A 
ATOM     17  C   UNL     1      45.876   1.631   8.357  0.00  0.00    +0.000 A 
ATOM     18  C   UNL     1      46.483   2.380   7.353  0.00  0.00    +0.000 A 
ATOM     19  C   UNL     1      46.378   3.768   7.365  0.00  0.00    +0.000 A 
ATOM     20  C   UNL     1      45.668   4.409   8.383  0.00  0.00    +0.000 A 
ENDBRANCH  14  15
BRANCH  14  21
ATOM     21  O   UNL     1      43.412   5.320   9.914  0.00  0.00    +0.000 OA
ATOM     22  H   UNL     1      43.324   5.087   8.973  0.00  0.00    +0.000 HD
ENDBRANCH  14  21
ENDBRANCH  13  14
ENDBRANCH  12  13
ENDBRANCH   4  12
TORSDOF 6
ENDMDL
MODEL 7
REMARK VINA RESULT:    -6.221      3.197      6.711
REMARK INTER + INTRA:          -8.787
REMARK INTER:                  -8.459
REMARK INTRA:                  -0.328
REMARK UNBOUND:                -0.565
REMARK  Name = 
REMARK  6 active torsions:
REMARK  status: ('A' for Active; 'I' for Inactive)
REMARK    1  A    between atoms: C_2  and  C_4
REMARK    2  A    between atoms: C_7  and  O_8
REMARK    3  A    between atoms: O_8  and  C_9
REMARK    4  A    between atoms: C_9  and  C_10
REMARK    5  A    between atoms: C_10  and  O_11
REMARK    6  A    between atoms: C_10  and  C_12
REMARK                            x       y       z     vdW  Elec       q    Type
REMARK                         _______ _______ _______ _____ _____    ______ ____
ROOT
ATOM      1  C   UNL     1      48.285   7.236  13.289  0.00  0.00    +0.000 A 
ATOM      2  C   UNL     1      47.809   7.735  12.073  0.00  0.00    +0.000 A 
ATOM      3  C   UNL     1      46.818   7.028  11.388  0.00  0.00    +0.000 A 
ATOM      4  C   UNL     1      46.323   5.865  11.959  0.00  0.00    +0.000 A 
ATOM      5  N   UNL     1      46.777   5.352  13.123  0.00  0.00    +0.000 NA
ATOM      6  C   UNL     1      47.759   6.039  13.754  0.00  0.00    +0.000 A 
ENDROOT
BRANCH   1   8
ATOM      7  N   UNL     1      48.913   8.651  15.163  0.00  0.00    +0.000 N 
ATOM      8  C   UNL     1      49.325   7.905  14.096  0.00  0.00    +0.000 C 
ATOM      9  O   UNL     1      50.513   7.760  13.850  0.00  0.00    +0.000 OA
ATOM     10  H   UNL     1      49.644   9.004  15.768  0.00  0.00    +0.000 HD
ATOM     11  H   UNL     1      47.980   8.590  15.548  0.00  0.00    +0.000 HD
ENDBRANCH   1   8
BRANCH   4  12
ATOM     12  O   UNL     1      45.327   5.204  11.268  0.00  0.00    +0.000 OA
BRANCH  12  13
ATOM     13  C   UNL     1      45.581   5.186   9.854  0.00  0.00    +0.000 C 
BRANCH  13  14
ATOM     14  C   UNL     1      44.906   3.968   9.204  0.00  0.00    +0.000 C 
BRANCH  14  15
ATOM     15  C   UNL     1      45.815   3.167   8.289  0.00  0.00    +0.000 A 
ATOM     16  C   UNL     1      45.926   1.780   8.479  0.00  0.00    +0.000 A 
ATOM     17  C   UNL     1      46.728   1.002   7.639  0.00  0.00    +0.000 A 
ATOM     18  C   UNL     1      47.424   1.597   6.592  0.00  0.00    +0.000 A 
ATOM     19  C   UNL     1      47.320   2.969   6.382  0.00  0.00    +0.000 A 
ATOM     20  C   UNL     1      46.519   3.748   7.220  0.00  0.00    +0.000 A 
ENDBRANCH  14  15
BRANCH  14  21
ATOM     21  O   UNL     1      43.776   4.391   8.431  0.00  0.00    +0.000 OA
ATOM     22  H   UNL     1      43.070   4.618   9.060  0.00  0.00    +0.000 HD
ENDBRANCH  14  21
ENDBRANCH  13  14
ENDBRANCH  12  13
ENDBRANCH   4  12
TORSDOF 6
ENDMDL
MODEL 8
REMARK VINA RESULT:    -6.012      1.942      2.719
REMARK INTER + INTRA:          -8.510
REMARK INTER:                  -8.436
REMARK INTRA:                  -0.074
REMARK UNBOUND:                -0.565
REMARK  Name = 
REMARK  6 active torsions:
REMARK  status: ('A' for Active; 'I' for Inactive)
REMARK    1  A    between atoms: C_2  and  C_4
REMARK    2  A    between atoms: C_7  and  O_8
REMARK    3  A    between atoms: O_8  and  C_9
REMARK    4  A    between atoms: C_9  and  C_10
REMARK    5  A    between atoms: C_10  and  O_11
REMARK    6  A    between atoms: C_10  and  C_12
REMARK                            x       y       z     vdW  Elec       q    Type
REMARK                         _______ _______ _______ _____ _____    ______ ____
ROOT
ATOM      1  C   UNL     1      46.216   2.062   8.001  0.00  0.00    +0.000 A 
ATOM      2  C   UNL     1      45.258   1.785   8.979  0.00  0.00    +0.000 A 
ATOM      3  C   UNL     1      44.493   2.832   9.499  0.00  0.00    +0.000 A 
ATOM      4  C   UNL     1      44.698   4.109   9.001  0.00  0.00    +0.000 A 
ATOM      5  N   UNL     1      45.629   4.407   8.068  0.00  0.00    +0.000 NA
ATOM      6  C   UNL     1      46.379   3.380   7.601  0.00  0.00    +0.000 A 
ENDROOT
BRANCH   1   8
ATOM      7  N   UNL     1      46.786  -0.276   7.655  0.00  0.00    +0.000 N 
ATOM      8  C   UNL     1      47.073   1.030   7.381  0.00  0.00    +0.000 C 
ATOM      9  O   UNL     1      47.975   1.330   6.613  0.00  0.00    +0.000 OA
ATOM     10  H   UNL     1      47.309  -0.966   7.130  0.00  0.00    +0.000 HD
ATOM     11  H   UNL     1      45.912  -0.572   8.068  0.00  0.00    +0.000 HD
ENDBRANCH   1   8
BRANCH   4  12
ATOM     12  O   UNL     1      43.910   5.117   9.519  0.00  0.00    +0.000 OA
BRANCH  12  13
ATOM     13  C   UNL     1      43.911   5.109  10.956  0.00  0.00    +0.000 C 
BRANCH  13  14
ATOM     14  C   UNL     1      45.035   6.009  11.495  0.00  0.00    +0.000 C 
BRANCH  14  15
ATOM     15  C   UNL     1      44.702   7.490  11.491  0.00  0.00    +0.000 A 
ATOM     16  C   UNL     1      43.512   7.921  10.882  0.00  0.00    +0.000 A 
ATOM     17  C   UNL     1      43.152   9.272  10.885  0.00  0.00    +0.000 A 
ATOM     18  C   UNL     1      43.972  10.211  11.502  0.00  0.00    +0.000 A 
ATOM     19  C   UNL     1      45.151   9.802  12.119  0.00  0.00    +0.000 A 
ATOM     20  C   UNL     1      45.512   8.452  12.118  0.00  0.00    +0.000 A 
ENDBRANCH  14  15
BRANCH  14  21
ATOM     21  O   UNL     1      46.221   5.829  10.712  0.00  0.00    +0.000 OA
ATOM     22  H   UNL     1      45.955   5.381   9.891  0.00  0.00    +0.000 HD
ENDBRANCH  14  21
ENDBRANCH  13  14
ENDBRANCH  12  13
ENDBRANCH   4  12
TORSDOF 6
ENDMDL
MODEL 9
REMARK VINA RESULT:    -5.928      4.864      7.985
REMARK INTER + INTRA:          -8.399
REMARK INTER:                  -8.050
REMARK INTRA:                  -0.349
REMARK UNBOUND:                -0.565
REMARK  Name = 
REMARK  6 active torsions:
REMARK  status: ('A' for Active; 'I' for Inactive)
REMARK    1  A    between atoms: C_2  and  C_4
REMARK    2  A    between atoms: C_7  and  O_8
REMARK    3  A    between atoms: O_8  and  C_9
REMARK    4  A    between atoms: C_9  and  C_10
REMARK    5  A    between atoms: C_10  and  O_11
REMARK    6  A    between atoms: C_10  and  C_12
REMARK                            x       y       z     vdW  Elec       q    Type
REMARK                         _______ _______ _______ _____ _____    ______ ____
ROOT
ATOM      1  C   UNL     1      48.231   4.770  18.077  0.00  0.00    +0.000 A 
ATOM      2  C   UNL     1      48.543   5.576  16.979  0.00  0.00    +0.000 A 
ATOM      3  C   UNL     1      47.994   5.268  15.731  0.00  0.00    +0.000 A 
ATOM      4  C   UNL     1      47.135   4.184  15.638  0.00  0.00    +0.000 A 
ATOM      5  N   UNL     1      46.831   3.379  16.679  0.00  0.00    +0.000 NA
ATOM      6  C   UNL     1      47.399   3.679  17.872  0.00  0.00    +0.000 A 
ENDROOT
BRANCH   1   8
ATOM      7  N   UNL     1      48.638   3.992  20.344  0.00  0.00    +0.000 N 
ATOM      8  C   UNL     1      48.751   5.008  19.440  0.00  0.00    +0.000 C 
ATOM      9  O   UNL     1      49.304   6.056  19.734  0.00  0.00    +0.000 OA
ATOM     10  H   UNL     1      49.102   4.133  21.232  0.00  0.00    +0.000 HD
ATOM     11  H   UNL     1      48.425   3.040  20.078  0.00  0.00    +0.000 HD
ENDBRANCH   1   8
BRANCH   4  12
ATOM     12  O   UNL     1      46.591   3.922  14.395  0.00  0.00    +0.000 OA
BRANCH  12  13
ATOM     13  C   UNL     1      46.360   5.129  13.650  0.00  0.00    +0.000 C 
BRANCH  13  14
ATOM     14  C   UNL     1      44.968   5.095  12.997  0.00  0.00    +0.000 C 
BRANCH  14  15
ATOM     15  C   UNL     1      44.976   4.674  11.539  0.00  0.00    +0.000 A 
ATOM     16  C   UNL     1      45.572   5.516  10.586  0.00  0.00    +0.000 A 
ATOM     17  C   UNL     1      45.629   5.150   9.238  0.00  0.00    +0.000 A 
ATOM     18  C   UNL     1      45.098   3.933   8.823  0.00  0.00    +0.000 A 
ATOM     19  C   UNL     1      44.512   3.080   9.753  0.00  0.00    +0.000 A 
ATOM     20  C   UNL     1      44.455   3.444  11.101  0.00  0.00    +0.000 A 
ENDBRANCH  14  15
BRANCH  14  21
ATOM     21  O   UNL     1      44.364   6.392  13.070  0.00  0.00    +0.000 OA
ATOM     22  H   UNL     1      44.436   6.687  13.994  0.00  0.00    +0.000 HD
ENDBRANCH  14  21
ENDBRANCH  13  14
ENDBRANCH  12  13
ENDBRANCH   4  12
TORSDOF 6
ENDMDL
