MODEL 1
REMARK VINA RESULT:    -8.458      0.000      0.000
REMARK INTER + INTRA:         -12.882
REMARK INTER:                 -11.919
REMARK INTRA:                  -0.964
REMARK UNBOUND:                -0.964
REMARK  Name = 
REMARK  10 active torsions:
REMARK  status: ('A' for Active; 'I' for Inactive)
REMARK    1  A    between atoms: C_1  and  C_2
REMARK    2  A    between atoms: C_5  and  O_6
REMARK    3  A    between atoms: O_6  and  C_7
REMARK    4  A    between atoms: C_12  and  C_13
REMARK    5  A    between atoms: C_13  and  C_14
REMARK    6  A    between atoms: C_13  and  C_15
REMARK    7  A    between atoms: C_13  and  C_16
REMARK    8  A    between atoms: C_16  and  N_17
REMARK    9  A    between atoms: N_17  and  C_18
REMARK   10  A    between atoms: C_21  and  C_22
REMARK                            x       y       z     vdW  Elec       q    Type
REMARK                         _______ _______ _______ _____ _____    ______ ____
ROOT
ATOM      1  C   UNL     1      44.149   4.821  12.322  0.00  0.00    +0.000 C 
ATOM      2  C   UNL     1      43.194   4.642  13.525  0.00  0.00    +0.000 C 
ATOM      3  C   UNL     1      43.483   5.811  11.340  0.00  0.00    +0.000 C 
ENDROOT
BRANCH   1   9
ATOM      4  C   UNL     1      47.505   5.456  14.192  0.00  0.00    +0.000 A 
ATOM      5  C   UNL     1      48.137   6.343  13.331  0.00  0.00    +0.000 A 
ATOM      6  C   UNL     1      47.478   6.744  12.180  0.00  0.00    +0.000 A 
ATOM      7  F   UNL     1      48.084   7.591  11.338  0.00  0.00    +0.000 F 
ATOM      8  C   UNL     1      46.204   6.275  11.875  0.00  0.00    +0.000 A 
ATOM      9  C   UNL     1      45.538   5.373  12.727  0.00  0.00    +0.000 A 
ATOM     10  C   UNL     1      46.211   4.993  13.905  0.00  0.00    +0.000 A 
BRANCH   4  11
ATOM     11  O   UNL     1      48.066   5.012  15.365  0.00  0.00    +0.000 OA
BRANCH  11  16
ATOM     12  C   UNL     1      47.310   5.370  18.321  0.00  0.00    +0.000 C 
ATOM     13  C   UNL     1      47.236   4.029  17.619  0.00  0.00    +0.000 C 
ATOM     14  N   UNL     1      48.502   3.267  17.756  0.00  0.00    +0.000 NA
ATOM     15  C   UNL     1      48.285   2.704  16.409  0.00  0.00    +0.000 C 
ATOM     16  C   UNL     1      47.399   3.929  16.071  0.00  0.00    +0.000 C 
ATOM     17  H   UNL     1      48.525   2.589  18.515  0.00  0.00    +0.000 HD
ENDBRANCH  11  16
ENDBRANCH   4  11
ENDBRANCH   1   9
BRANCH   1  18
ATOM     18  C   UNL     1      44.371   3.424  11.652  0.00  0.00    +0.000 C 
BRANCH  18  19
ATOM     19  N   UNL     1      43.799   3.325  10.301  0.00  0.00    +0.000 N 
ATOM     20  H   UNL     1      43.166   4.093  10.084  0.00  0.00    +0.000 HD
BRANCH  19  21
ATOM     21  C   UNL     1      44.687   3.093   9.241  0.00  0.00    +0.000 A 
ATOM     22  C   UNL     1      45.165   4.062   8.371  0.00  0.00    +0.000 A 
ATOM     23  N   UNL     1      46.071   3.848   7.388  0.00  0.00    +0.000 NA
ATOM     24  C   UNL     1      46.545   2.583   7.309  0.00  0.00    +0.000 A 
ATOM     25  N   UNL     1      46.204   1.561   8.112  0.00  0.00    +0.000 NA
ATOM     26  C   UNL     1      45.297   1.857   9.070  0.00  0.00    +0.000 A 
BRANCH  24  27
ATOM     27  C   UNL     1      47.563   2.326   6.222  0.00  0.00    +0.000 C 
ATOM     28  N   UNL     1      47.545   3.221   5.175  0.00  0.00    +0.000 N 
ATOM     29  O   UNL     1      48.365   1.399   6.232  0.00  0.00    +0.000 OA
ATOM     30  H   UNL     1      46.893   3.996   5.183  0.00  0.00    +0.000 HD
ATOM     31  H   UNL     1      48.216   3.118   4.428  0.00  0.00    +0.000 HD
ENDBRANCH  24  27
ENDBRANCH  19  21
ENDBRANCH  18  19
ENDBRANCH   1  18
TORSDOF 7
ENDMDL
MODEL 2
REMARK VINA RESULT:    -7.398      2.475      3.875
REMARK INTER + INTRA:         -11.389
REMARK INTER:                 -10.542
REMARK INTRA:                  -0.847
REMARK UNBOUND:                -0.964
REMARK  Name = 
REMARK  10 active torsions:
REMARK  status: ('A' for Active; 'I' for Inactive)
REMARK    1  A    between atoms: C_1  and  C_2
REMARK    2  A    between atoms: C_5  and  O_6
REMARK    3  A    between atoms: O_6  and  C_7
REMARK    4  A    between atoms: C_12  and  C_13
REMARK    5  A    between atoms: C_13  and  C_14
REMARK    6  A    between atoms: C_13  and  C_15
REMARK    7  A    between atoms: C_13  and  C_16
REMARK    8  A    between atoms: C_16  and  N_17
REMARK    9  A    between atoms: N_17  and  C_18
REMARK   10  A    between atoms: C_21  and  C_22
REMARK                            x       y       z     vdW  Elec       q    Type
REMARK                         _______ _______ _______ _____ _____    ______ ____
ROOT
ATOM      1  C   UNL     1      44.224   5.081  12.365  0.00  0.00    +0.000 C 
ATOM      2  C   UNL     1      42.994   5.070  13.303  0.00  0.00    +0.000 C 
ATOM      3  C   UNL     1      43.990   6.180  11.303  0.00  0.00    +0.000 C 
ENDROOT
BRANCH   1   9
ATOM      4  C   UNL     1      47.440   6.823  13.698  0.00  0.00    +0.000 A 
ATOM      5  C   UNL     1      47.912   5.879  14.600  0.00  0.00    +0.000 A 
ATOM      6  C   UNL     1      47.214   4.693  14.755  0.00  0.00    +0.000 A 
ATOM      7  F   UNL     1      47.655   3.780  15.629  0.00  0.00    +0.000 F 
ATOM      8  C   UNL     1      46.056   4.435  14.027  0.00  0.00    +0.000 A 
ATOM      9  C   UNL     1      45.550   5.373  13.107  0.00  0.00    +0.000 A 
ATOM     10  C   UNL     1      46.285   6.565  12.944  0.00  0.00    +0.000 A 
BRANCH   4  11
ATOM     11  O   UNL     1      48.069   8.022  13.460  0.00  0.00    +0.000 OA
BRANCH  11  16
ATOM     12  C   UNL     1      50.494   9.038  11.872  0.00  0.00    +0.000 C 
ATOM     13  C   UNL     1      49.068   9.371  11.482  0.00  0.00    +0.000 C 
ATOM     14  N   UNL     1      48.611  10.636  12.110  0.00  0.00    +0.000 NA
ATOM     15  C   UNL     1      47.249  10.073  12.202  0.00  0.00    +0.000 C 
ATOM     16  C   UNL     1      47.865   8.652  12.165  0.00  0.00    +0.000 C 
ATOM     17  H   UNL     1      48.701  11.470  11.533  0.00  0.00    +0.000 HD
ENDBRANCH  11  16
ENDBRANCH   4  11
ENDBRANCH   1   9
BRANCH   1  18
ATOM     18  C   UNL     1      44.353   3.670  11.700  0.00  0.00    +0.000 C 
BRANCH  18  19
ATOM     19  N   UNL     1      43.791   3.609  10.342  0.00  0.00    +0.000 N 
ATOM     20  H   UNL     1      43.210   4.415  10.120  0.00  0.00    +0.000 HD
BRANCH  19  21
ATOM     21  C   UNL     1      44.674   3.324   9.292  0.00  0.00    +0.000 A 
ATOM     22  C   UNL     1      45.238   4.264   8.441  0.00  0.00    +0.000 A 
ATOM     23  N   UNL     1      46.138   3.994   7.469  0.00  0.00    +0.000 NA
ATOM     24  C   UNL     1      46.516   2.698   7.378  0.00  0.00    +0.000 A 
ATOM     25  N   UNL     1      46.086   1.695   8.162  0.00  0.00    +0.000 NA
ATOM     26  C   UNL     1      45.191   2.047   9.112  0.00  0.00    +0.000 A 
BRANCH  24  27
ATOM     27  C   UNL     1      47.527   2.378   6.301  0.00  0.00    +0.000 C 
ATOM     28  N   UNL     1      47.286   2.959   5.076  0.00  0.00    +0.000 N 
ATOM     29  O   UNL     1      48.505   1.657   6.465  0.00  0.00    +0.000 OA
ATOM     30  H   UNL     1      46.488   3.569   4.954  0.00  0.00    +0.000 HD
ATOM     31  H   UNL     1      47.938   2.804   4.321  0.00  0.00    +0.000 HD
ENDBRANCH  24  27
ENDBRANCH  19  21
ENDBRANCH  18  19
ENDBRANCH   1  18
TORSDOF 7
ENDMDL
MODEL 3
REMARK VINA RESULT:    -7.353      2.553      8.182
REMARK INTER + INTRA:         -11.325
REMARK INTER:                 -10.535
REMARK INTRA:                  -0.791
REMARK UNBOUND:                -0.964
REMARK  Name = 
REMARK  10 active torsions:
REMARK  status: ('A' for Active; 'I' for Inactive)
REMARK    1  A    between atoms: C_1  and  C_2
REMARK    2  A    between atoms: C_5  and  O_6
REMARK    3  A    between atoms: O_6  and  C_7
REMARK    4  A    between atoms: C_12  and  C_13
REMARK    5  A    between atoms: C_13  and  C_14
REMARK    6  A    between atoms: C_13  and  C_15
REMARK    7  A    between atoms: C_13  and  C_16
REMARK    8  A    between atoms: C_16  and  N_17
REMARK    9  A    between atoms: N_17  and  C_18
REMARK   10  A    between atoms: C_21  and  C_22
REMARK                            x       y       z     vdW  Elec       q    Type
REMARK                         _______ _______ _______ _____ _____    ______ ____
ROOT
ATOM      1  C   UNL     1      45.438   6.202  11.579  0.00  0.00    +0.000 C 
ATOM      2  C   UNL     1      46.787   6.718  11.027  0.00  0.00    +0.000 C 
ATOM      3  C   UNL     1      44.378   7.297  11.320  0.00  0.00    +0.000 C 
ENDROOT
BRANCH   1   9
ATOM      4  C   UNL     1      45.017   3.227   9.103  0.00  0.00    +0.000 A 
ATOM      5  C   UNL     1      44.162   2.395   9.813  0.00  0.00    +0.000 A 
ATOM      6  C   UNL     1      43.714   2.802  11.059  0.00  0.00    +0.000 A 
ATOM      7  F   UNL     1      42.897   2.002  11.756  0.00  0.00    +0.000 F 
ATOM      8  C   UNL     1      44.103   4.020  11.606  0.00  0.00    +0.000 A 
ATOM      9  C   UNL     1      44.972   4.885  10.911  0.00  0.00    +0.000 A 
ATOM     10  C   UNL     1      45.400   4.468   9.635  0.00  0.00    +0.000 A 
BRANCH   4  11
ATOM     11  O   UNL     1      45.503   2.922   7.854  0.00  0.00    +0.000 OA
BRANCH  11  16
ATOM     12  C   UNL     1      47.036   3.063   5.195  0.00  0.00    +0.000 C 
ATOM     13  C   UNL     1      47.506   2.218   6.361  0.00  0.00    +0.000 C 
ATOM     14  N   UNL     1      46.969   0.836   6.288  0.00  0.00    +0.000 NA
ATOM     15  C   UNL     1      46.907   0.804   7.763  0.00  0.00    +0.000 C 
ATOM     16  C   UNL     1      46.839   2.352   7.765  0.00  0.00    +0.000 C 
ATOM     17  H   UNL     1      47.587   0.148   5.862  0.00  0.00    +0.000 HD
ENDBRANCH  11  16
ENDBRANCH   4  11
ENDBRANCH   1   9
BRANCH   1  18
ATOM     18  C   UNL     1      45.601   5.924  13.111  0.00  0.00    +0.000 C 
BRANCH  18  19
ATOM     19  N   UNL     1      46.911   6.331  13.643  0.00  0.00    +0.000 N 
ATOM     20  H   UNL     1      46.946   7.319  13.888  0.00  0.00    +0.000 HD
BRANCH  19  21
ATOM     21  C   UNL     1      47.466   5.542  14.660  0.00  0.00    +0.000 A 
ATOM     22  C   UNL     1      48.336   5.996  15.641  0.00  0.00    +0.000 A 
ATOM     23  N   UNL     1      48.820   5.248  16.659  0.00  0.00    +0.000 NA
ATOM     24  C   UNL     1      48.367   3.973  16.702  0.00  0.00    +0.000 A 
ATOM     25  N   UNL     1      47.493   3.418  15.847  0.00  0.00    +0.000 NA
ATOM     26  C   UNL     1      47.053   4.231  14.861  0.00  0.00    +0.000 A 
BRANCH  24  27
ATOM     27  C   UNL     1      48.892   3.124  17.837  0.00  0.00    +0.000 C 
ATOM     28  N   UNL     1      50.053   2.433  17.566  0.00  0.00    +0.000 N 
ATOM     29  O   UNL     1      48.355   3.028  18.933  0.00  0.00    +0.000 OA
ATOM     30  H   UNL     1      50.502   2.533  16.664  0.00  0.00    +0.000 HD
ATOM     31  H   UNL     1      50.468   1.866  18.290  0.00  0.00    +0.000 HD
ENDBRANCH  24  27
ENDBRANCH  19  21
ENDBRANCH  18  19
ENDBRANCH   1  18
TORSDOF 7
ENDMDL
MODEL 4
REMARK VINA RESULT:    -6.937      3.164      4.815
REMARK INTER + INTRA:         -10.740
REMARK INTER:                  -9.812
REMARK INTRA:                  -0.927
REMARK UNBOUND:                -0.964
REMARK  Name = 
REMARK  10 active torsions:
REMARK  status: ('A' for Active; 'I' for Inactive)
REMARK    1  A    between atoms: C_1  and  C_2
REMARK    2  A    between atoms: C_5  and  O_6
REMARK    3  A    between atoms: O_6  and  C_7
REMARK    4  A    between atoms: C_12  and  C_13
REMARK    5  A    between atoms: C_13  and  C_14
REMARK    6  A    between atoms: C_13  and  C_15
REMARK    7  A    between atoms: C_13  and  C_16
REMARK    8  A    between atoms: C_16  and  N_17
REMARK    9  A    between atoms: N_17  and  C_18
REMARK   10  A    between atoms: C_21  and  C_22
REMARK                            x       y       z     vdW  Elec       q    Type
REMARK                         _______ _______ _______ _____ _____    ______ ____
ROOT
ATOM      1  C   UNL     1      48.062   8.505  12.543  0.00  0.00    +0.000 C 
ATOM      2  C   UNL     1      48.673   9.848  12.077  0.00  0.00    +0.000 C 
ATOM      3  C   UNL     1      48.712   7.381  11.704  0.00  0.00    +0.000 C 
ENDROOT
BRANCH   1   9
ATOM      4  C   UNL     1      49.037   6.780  15.894  0.00  0.00    +0.000 A 
ATOM      5  C   UNL     1      48.839   7.810  16.803  0.00  0.00    +0.000 A 
ATOM      6  C   UNL     1      48.377   9.032  16.341  0.00  0.00    +0.000 A 
ATOM      7  F   UNL     1      48.192  10.035  17.208  0.00  0.00    +0.000 F 
ATOM      8  C   UNL     1      48.111   9.241  14.991  0.00  0.00    +0.000 A 
ATOM      9  C   UNL     1      48.304   8.216  14.044  0.00  0.00    +0.000 A 
ATOM     10  C   UNL     1      48.752   6.973  14.533  0.00  0.00    +0.000 A 
BRANCH   4  11
ATOM     11  O   UNL     1      49.476   5.528  16.254  0.00  0.00    +0.000 OA
BRANCH  11  16
ATOM     12  C   UNL     1      50.494   2.878  17.427  0.00  0.00    +0.000 C 
ATOM     13  C   UNL     1      49.022   3.233  17.376  0.00  0.00    +0.000 C 
ATOM     14  N   UNL     1      48.384   2.746  16.127  0.00  0.00    +0.000 NA
ATOM     15  C   UNL     1      47.502   3.930  16.140  0.00  0.00    +0.000 C 
ATOM     16  C   UNL     1      48.560   4.673  16.993  0.00  0.00    +0.000 C 
ATOM     17  H   UNL     1      47.910   1.847  16.198  0.00  0.00    +0.000 HD
ENDBRANCH  11  16
ENDBRANCH   4  11
ENDBRANCH   1   9
BRANCH   1  18
ATOM     18  C   UNL     1      46.515   8.558  12.313  0.00  0.00    +0.000 C 
BRANCH  18  19
ATOM     19  N   UNL     1      45.756   7.701  13.237  0.00  0.00    +0.000 N 
ATOM     20  H   UNL     1      45.054   8.215  13.764  0.00  0.00    +0.000 HD
BRANCH  19  21
ATOM     21  C   UNL     1      45.223   6.512  12.720  0.00  0.00    +0.000 A 
ATOM     22  C   UNL     1      44.640   6.373  11.468  0.00  0.00    +0.000 A 
ATOM     23  N   UNL     1      44.183   5.212  10.946  0.00  0.00    +0.000 NA
ATOM     24  C   UNL     1      44.362   4.121  11.726  0.00  0.00    +0.000 A 
ATOM     25  N   UNL     1      44.949   4.103  12.935  0.00  0.00    +0.000 NA
ATOM     26  C   UNL     1      45.381   5.303  13.385  0.00  0.00    +0.000 A 
BRANCH  24  27
ATOM     27  C   UNL     1      43.864   2.812  11.157  0.00  0.00    +0.000 C 
ATOM     28  N   UNL     1      44.580   2.327  10.085  0.00  0.00    +0.000 N 
ATOM     29  O   UNL     1      42.897   2.195  11.588  0.00  0.00    +0.000 OA
ATOM     30  H   UNL     1      45.390   2.832   9.747  0.00  0.00    +0.000 HD
ATOM     31  H   UNL     1      44.313   1.445   9.673  0.00  0.00    +0.000 HD
ENDBRANCH  24  27
ENDBRANCH  19  21
ENDBRANCH  18  19
ENDBRANCH   1  18
TORSDOF 7
ENDMDL
MODEL 5
REMARK VINA RESULT:    -6.834      3.063      7.727
REMARK INTER + INTRA:         -10.594
REMARK INTER:                  -9.510
REMARK INTRA:                  -1.084
REMARK UNBOUND:                -0.964
REMARK  Name = 
REMARK  10 active torsions:
REMARK  status: ('A' for Active; 'I' for Inactive)
REMARK    1  A    between atoms: C_1  and  C_2
REMARK    2  A    between atoms: C_5  and  O_6
REMARK    3  A    between atoms: O_6  and  C_7
REMARK    4  A    between atoms: C_12  and  C_13
REMARK    5  A    between atoms: C_13  and  C_14
REMARK    6  A    between atoms: C_13  and  C_15
REMARK    7  A    between atoms: C_13  and  C_16
REMARK    8  A    between atoms: C_16  and  N_17
REMARK    9  A    between atoms: N_17  and  C_18
REMARK   10  A    between atoms: C_21  and  C_22
REMARK                            x       y       z     vdW  Elec       q    Type
REMARK                         _______ _______ _______ _____ _____    ______ ____
ROOT
ATOM      1  C   UNL     1      49.040   8.660  12.331  0.00  0.00    +0.000 C 
ATOM      2  C   UNL     1      50.025   7.625  11.739  0.00  0.00    +0.000 C 
ATOM      3  C   UNL     1      49.348  10.026  11.675  0.00  0.00    +0.000 C 
ENDROOT
BRANCH   1   9
ATOM      4  C   UNL     1      45.754   6.711  11.579  0.00  0.00    +0.000 A 
ATOM      5  C   UNL     1      44.800   7.708  11.733  0.00  0.00    +0.000 A 
ATOM      6  C   UNL     1      45.217   8.990  12.050  0.00  0.00    +0.000 A 
ATOM      7  F   UNL     1      44.304   9.956  12.210  0.00  0.00    +0.000 F 
ATOM      8  C   UNL     1      46.565   9.292  12.217  0.00  0.00    +0.000 A 
ATOM      9  C   UNL     1      47.556   8.303  12.071  0.00  0.00    +0.000 A 
ATOM     10  C   UNL     1      47.118   7.009  11.725  0.00  0.00    +0.000 A 
BRANCH   4  11
ATOM     11  O   UNL     1      45.445   5.413  11.248  0.00  0.00    +0.000 OA
BRANCH  11  16
ATOM     12  C   UNL     1      43.036   4.648  12.995  0.00  0.00    +0.000 C 
ATOM     13  C   UNL     1      43.011   4.545  11.484  0.00  0.00    +0.000 C 
ATOM     14  N   UNL     1      43.441   3.203  11.018  0.00  0.00    +0.000 NA
ATOM     15  C   UNL     1      44.048   3.833   9.829  0.00  0.00    +0.000 C 
ATOM     16  C   UNL     1      44.157   5.159  10.622  0.00  0.00    +0.000 C 
ATOM     17  H   UNL     1      42.690   2.543  10.828  0.00  0.00    +0.000 HD
ENDBRANCH  11  16
ENDBRANCH   4  11
ENDBRANCH   1   9
BRANCH   1  18
ATOM     18  C   UNL     1      49.250   8.717  13.880  0.00  0.00    +0.000 C 
BRANCH  18  19
ATOM     19  N   UNL     1      50.032   7.588  14.407  0.00  0.00    +0.000 N 
ATOM     20  H   UNL     1      50.899   7.884  14.851  0.00  0.00    +0.000 HD
BRANCH  19  21
ATOM     21  C   UNL     1      49.356   6.651  15.201  0.00  0.00    +0.000 A 
ATOM     22  C   UNL     1      48.278   5.881  14.788  0.00  0.00    +0.000 A 
ATOM     23  N   UNL     1      47.667   4.933  15.536  0.00  0.00    +0.000 NA
ATOM     24  C   UNL     1      48.205   4.731  16.761  0.00  0.00    +0.000 A 
ATOM     25  N   UNL     1      49.271   5.371  17.269  0.00  0.00    +0.000 NA
ATOM     26  C   UNL     1      49.827   6.300  16.460  0.00  0.00    +0.000 A 
BRANCH  24  27
ATOM     27  C   UNL     1      47.540   3.670  17.607  0.00  0.00    +0.000 C 
ATOM     28  N   UNL     1      48.189   3.364  18.783  0.00  0.00    +0.000 N 
ATOM     29  O   UNL     1      46.499   3.099  17.306  0.00  0.00    +0.000 OA
ATOM     30  H   UNL     1      49.038   3.854  19.035  0.00  0.00    +0.000 HD
ATOM     31  H   UNL     1      47.783   2.680  19.405  0.00  0.00    +0.000 HD
ENDBRANCH  24  27
ENDBRANCH  19  21
ENDBRANCH  18  19
ENDBRANCH   1  18
TORSDOF 7
ENDMDL
MODEL 6
REMARK VINA RESULT:    -6.363      3.835      5.949
REMARK INTER + INTRA:          -9.930
REMARK INTER:                  -8.897
REMARK INTRA:                  -1.033
REMARK UNBOUND:                -0.964
REMARK  Name = 
REMARK  10 active torsions:
REMARK  status: ('A' for Active; 'I' for Inactive)
REMARK    1  A    between atoms: C_1  and  C_2
REMARK    2  A    between atoms: C_5  and  O_6
REMARK    3  A    between atoms: O_6  and  C_7
REMARK    4  A    between atoms: C_12  and  C_13
REMARK    5  A    between atoms: C_13  and  C_14
REMARK    6  A    between atoms: C_13  and  C_15
REMARK    7  A    between atoms: C_13  and  C_16
REMARK    8  A    between atoms: C_16  and  N_17
REMARK    9  A    between atoms: N_17  and  C_18
REMARK   10  A    between atoms: C_21  and  C_22
REMARK                            x       y       z     vdW  Elec       q    Type
REMARK                         _______ _______ _______ _____ _____    ______ ____
ROOT
ATOM      1  C   UNL     1      49.205   8.449  15.078  0.00  0.00    +0.000 C 
ATOM      2  C   UNL     1      49.158   9.951  15.443  0.00  0.00    +0.000 C 
ATOM      3  C   UNL     1      50.552   8.183  14.368  0.00  0.00    +0.000 C 
ENDROOT
BRANCH   1   9
ATOM      4  C   UNL     1      49.683   5.498  17.573  0.00  0.00    +0.000 A 
ATOM      5  C   UNL     1      48.944   5.937  18.664  0.00  0.00    +0.000 A 
ATOM      6  C   UNL     1      48.286   7.153  18.582  0.00  0.00    +0.000 A 
ATOM      7  F   UNL     1      47.579   7.589  19.633  0.00  0.00    +0.000 F 
ATOM      8  C   UNL     1      48.354   7.936  17.434  0.00  0.00    +0.000 A 
ATOM      9  C   UNL     1      49.097   7.521  16.313  0.00  0.00    +0.000 A 
ATOM     10  C   UNL     1      49.741   6.271  16.402  0.00  0.00    +0.000 A 
BRANCH   4  11
ATOM     11  O   UNL     1      50.357   4.301  17.549  0.00  0.00    +0.000 OA
BRANCH  11  16
ATOM     12  C   UNL     1      51.762   1.574  17.387  0.00  0.00    +0.000 C 
ATOM     13  C   UNL     1      50.255   1.709  17.468  0.00  0.00    +0.000 C 
ATOM     14  N   UNL     1      49.637   1.773  16.120  0.00  0.00    +0.000 NA
ATOM     15  C   UNL     1      48.608   2.685  16.658  0.00  0.00    +0.000 C 
ATOM     16  C   UNL     1      49.593   3.085  17.785  0.00  0.00    +0.000 C 
ATOM     17  H   UNL     1      49.290   0.888  15.755  0.00  0.00    +0.000 HD
ENDBRANCH  11  16
ENDBRANCH   4  11
ENDBRANCH   1   9
BRANCH   1  18
ATOM     18  C   UNL     1      47.997   8.128  14.137  0.00  0.00    +0.000 C 
BRANCH  18  19
ATOM     19  N   UNL     1      48.255   7.014  13.212  0.00  0.00    +0.000 N 
ATOM     20  H   UNL     1      49.093   6.490  13.451  0.00  0.00    +0.000 HD
BRANCH  19  21
ATOM     21  C   UNL     1      47.186   6.151  12.931  0.00  0.00    +0.000 A 
ATOM     22  C   UNL     1      46.680   5.194  13.799  0.00  0.00    +0.000 A 
ATOM     23  N   UNL     1      45.610   4.405  13.550  0.00  0.00    +0.000 NA
ATOM     24  C   UNL     1      44.996   4.625  12.365  0.00  0.00    +0.000 A 
ATOM     25  N   UNL     1      45.351   5.545  11.452  0.00  0.00    +0.000 NA
ATOM     26  C   UNL     1      46.428   6.295  11.776  0.00  0.00    +0.000 A 
BRANCH  24  27
ATOM     27  C   UNL     1      43.793   3.758  12.072  0.00  0.00    +0.000 C 
ATOM     28  N   UNL     1      43.855   2.478  12.576  0.00  0.00    +0.000 N 
ATOM     29  O   UNL     1      42.814   4.128  11.435  0.00  0.00    +0.000 OA
ATOM     30  H   UNL     1      44.658   2.186  13.118  0.00  0.00    +0.000 HD
ATOM     31  H   UNL     1      43.072   1.856  12.435  0.00  0.00    +0.000 HD
ENDBRANCH  24  27
ENDBRANCH  19  21
ENDBRANCH  18  19
ENDBRANCH   1  18
TORSDOF 7
ENDMDL
MODEL 7
REMARK VINA RESULT:    -6.134      3.395      5.326
REMARK INTER + INTRA:          -9.607
REMARK INTER:                  -8.708
REMARK INTRA:                  -0.900
REMARK UNBOUND:                -0.964
REMARK  Name = 
REMARK  10 active torsions:
REMARK  status: ('A' for Active; 'I' for Inactive)
REMARK    1  A    between atoms: C_1  and  C_2
REMARK    2  A    between atoms: C_5  and  O_6
REMARK    3  A    between atoms: O_6  and  C_7
REMARK    4  A    between atoms: C_12  and  C_13
REMARK    5  A    between atoms: C_13  and  C_14
REMARK    6  A    between atoms: C_13  and  C_15
REMARK    7  A    between atoms: C_13  and  C_16
REMARK    8  A    between atoms: C_16  and  N_17
REMARK    9  A    between atoms: N_17  and  C_18
REMARK   10  A    between atoms: C_21  and  C_22
REMARK                            x       y       z     vdW  Elec       q    Type
REMARK                         _______ _______ _______ _____ _____    ______ ____
ROOT
ATOM      1  C   UNL     1      49.336   8.265  14.112  0.00  0.00    +0.000 C 
ATOM      2  C   UNL     1      48.264   9.101  14.848  0.00  0.00    +0.000 C 
ATOM      3  C   UNL     1      50.112   9.220  13.176  0.00  0.00    +0.000 C 
ENDROOT
BRANCH   1   9
ATOM      4  C   UNL     1      50.909   5.985  16.848  0.00  0.00    +0.000 A 
ATOM      5  C   UNL     1      52.258   6.282  16.714  0.00  0.00    +0.000 A 
ATOM      6  C   UNL     1      52.646   7.220  15.771  0.00  0.00    +0.000 A 
ATOM      7  F   UNL     1      53.947   7.507  15.627  0.00  0.00    +0.000 F 
ATOM      8  C   UNL     1      51.714   7.863  14.963  0.00  0.00    +0.000 A 
ATOM      9  C   UNL     1      50.338   7.580  15.073  0.00  0.00    +0.000 A 
ATOM     10  C   UNL     1      49.957   6.642  16.053  0.00  0.00    +0.000 A 
BRANCH   4  11
ATOM     11  O   UNL     1      50.421   5.083  17.764  0.00  0.00    +0.000 OA
BRANCH  11  16
ATOM     12  C   UNL     1      47.836   5.673  19.315  0.00  0.00    +0.000 C 
ATOM     13  C   UNL     1      47.967   4.496  18.369  0.00  0.00    +0.000 C 
ATOM     14  N   UNL     1      48.430   3.275  19.074  0.00  0.00    +0.000 NA
ATOM     15  C   UNL     1      49.164   2.875  17.857  0.00  0.00    +0.000 C 
ATOM     16  C   UNL     1      49.203   4.363  17.427  0.00  0.00    +0.000 C 
ATOM     17  H   UNL     1      47.696   2.635  19.372  0.00  0.00    +0.000 HD
ENDBRANCH  11  16
ENDBRANCH   4  11
ENDBRANCH   1   9
BRANCH   1  18
ATOM     18  C   UNL     1      48.615   7.139  13.298  0.00  0.00    +0.000 C 
BRANCH  18  19
ATOM     19  N   UNL     1      47.257   6.846  13.780  0.00  0.00    +0.000 N 
ATOM     20  H   UNL     1      46.692   7.685  13.897  0.00  0.00    +0.000 HD
BRANCH  19  21
ATOM     21  C   UNL     1      46.538   5.847  13.110  0.00  0.00    +0.000 A 
ATOM     22  C   UNL     1      46.131   4.643  13.668  0.00  0.00    +0.000 A 
ATOM     23  N   UNL     1      45.383   3.707  13.039  0.00  0.00    +0.000 NA
ATOM     24  C   UNL     1      44.996   4.028  11.783  0.00  0.00    +0.000 A 
ATOM     25  N   UNL     1      45.279   5.173  11.139  0.00  0.00    +0.000 NA
ATOM     26  C   UNL     1      46.027   6.058  11.836  0.00  0.00    +0.000 A 
BRANCH  24  27
ATOM     27  C   UNL     1      44.154   2.998  11.066  0.00  0.00    +0.000 C 
ATOM     28  N   UNL     1      44.784   2.337  10.035  0.00  0.00    +0.000 N 
ATOM     29  O   UNL     1      42.990   2.739  11.351  0.00  0.00    +0.000 OA
ATOM     30  H   UNL     1      45.751   2.542   9.819  0.00  0.00    +0.000 HD
ATOM     31  H   UNL     1      44.282   1.620   9.532  0.00  0.00    +0.000 HD
ENDBRANCH  24  27
ENDBRANCH  19  21
ENDBRANCH  18  19
ENDBRANCH   1  18
TORSDOF 7
ENDMDL
MODEL 8
REMARK VINA RESULT:    -6.020      2.453      8.003
REMARK INTER + INTRA:          -9.447
REMARK INTER:                  -8.719
REMARK INTRA:                  -0.728
REMARK UNBOUND:                -0.964
REMARK  Name = 
REMARK  10 active torsions:
REMARK  status: ('A' for Active; 'I' for Inactive)
REMARK    1  A    between atoms: C_1  and  C_2
REMARK    2  A    between atoms: C_5  and  O_6
REMARK    3  A    between atoms: O_6  and  C_7
REMARK    4  A    between atoms: C_12  and  C_13
REMARK    5  A    between atoms: C_13  and  C_14
REMARK    6  A    between atoms: C_13  and  C_15
REMARK    7  A    between atoms: C_13  and  C_16
REMARK    8  A    between atoms: C_16  and  N_17
REMARK    9  A    between atoms: N_17  and  C_18
REMARK   10  A    between atoms: C_21  and  C_22
REMARK                            x       y       z     vdW  Elec       q    Type
REMARK                         _______ _______ _______ _____ _____    ______ ____
ROOT
ATOM      1  C   UNL     1      47.348   8.062  12.506  0.00  0.00    +0.000 C 
ATOM      2  C   UNL     1      47.758   9.061  11.399  0.00  0.00    +0.000 C 
ATOM      3  C   UNL     1      46.835   8.885  13.710  0.00  0.00    +0.000 C 
ENDROOT
BRANCH   1   9
ATOM      4  C   UNL     1      45.284   5.430  10.513  0.00  0.00    +0.000 A 
ATOM      5  C   UNL     1      44.215   5.210  11.371  0.00  0.00    +0.000 A 
ATOM      6  C   UNL     1      44.153   5.919  12.560  0.00  0.00    +0.000 A 
ATOM      7  F   UNL     1      43.131   5.706  13.399  0.00  0.00    +0.000 F 
ATOM      8  C   UNL     1      45.138   6.838  12.906  0.00  0.00    +0.000 A 
ATOM      9  C   UNL     1      46.237   7.081  12.058  0.00  0.00    +0.000 A 
ATOM     10  C   UNL     1      46.273   6.371  10.842  0.00  0.00    +0.000 A 
BRANCH   4  11
ATOM     11  O   UNL     1      45.427   4.791   9.305  0.00  0.00    +0.000 OA
BRANCH  11  16
ATOM     12  C   UNL     1      46.397   3.392   6.748  0.00  0.00    +0.000 C 
ATOM     13  C   UNL     1      45.923   2.624   7.965  0.00  0.00    +0.000 C 
ATOM     14  N   UNL     1      44.469   2.332   7.896  0.00  0.00    +0.000 NA
ATOM     15  C   UNL     1      44.393   2.470   9.364  0.00  0.00    +0.000 C 
ATOM     16  C   UNL     1      45.662   3.355   9.318  0.00  0.00    +0.000 C 
ATOM     17  H   UNL     1      44.224   1.414   7.530  0.00  0.00    +0.000 HD
ENDBRANCH  11  16
ENDBRANCH   4  11
ENDBRANCH   1   9
BRANCH   1  18
ATOM     18  C   UNL     1      48.602   7.211  12.897  0.00  0.00    +0.000 C 
BRANCH  18  19
ATOM     19  N   UNL     1      48.979   7.340  14.313  0.00  0.00    +0.000 N 
ATOM     20  H   UNL     1      48.770   8.261  14.693  0.00  0.00    +0.000 HD
BRANCH  19  21
ATOM     21  C   UNL     1      48.556   6.329  15.186  0.00  0.00    +0.000 A 
ATOM     22  C   UNL     1      47.803   5.221  14.824  0.00  0.00    +0.000 A 
ATOM     23  N   UNL     1      47.449   4.214  15.656  0.00  0.00    +0.000 NA
ATOM     24  C   UNL     1      47.917   4.322  16.921  0.00  0.00    +0.000 A 
ATOM     25  N   UNL     1      48.690   5.314  17.394  0.00  0.00    +0.000 NA
ATOM     26  C   UNL     1      49.003   6.279  16.501  0.00  0.00    +0.000 A 
BRANCH  24  27
ATOM     27  C   UNL     1      47.538   3.203  17.864  0.00  0.00    +0.000 C 
ATOM     28  N   UNL     1      48.348   3.064  18.969  0.00  0.00    +0.000 N 
ATOM     29  O   UNL     1      46.586   2.450  17.693  0.00  0.00    +0.000 OA
ATOM     30  H   UNL     1      49.120   3.703  19.113  0.00  0.00    +0.000 HD
ATOM     31  H   UNL     1      48.134   2.350  19.649  0.00  0.00    +0.000 HD
ENDBRANCH  24  27
ENDBRANCH  19  21
ENDBRANCH  18  19
ENDBRANCH   1  18
TORSDOF 7
ENDMDL
MODEL 9
REMARK VINA RESULT:    -5.644      3.975      7.843
REMARK INTER + INTRA:          -8.918
REMARK INTER:                  -7.774
REMARK INTRA:                  -1.143
REMARK UNBOUND:                -0.964
REMARK  Name = 
REMARK  10 active torsions:
REMARK  status: ('A' for Active; 'I' for Inactive)
REMARK    1  A    between atoms: C_1  and  C_2
REMARK    2  A    between atoms: C_5  and  O_6
REMARK    3  A    between atoms: O_6  and  C_7
REMARK    4  A    between atoms: C_12  and  C_13
REMARK    5  A    between atoms: C_13  and  C_14
REMARK    6  A    between atoms: C_13  and  C_15
REMARK    7  A    between atoms: C_13  and  C_16
REMARK    8  A    between atoms: C_16  and  N_17
REMARK    9  A    between atoms: N_17  and  C_18
REMARK   10  A    between atoms: C_21  and  C_22
REMARK                            x       y       z     vdW  Elec       q    Type
REMARK                         _______ _______ _______ _____ _____    ______ ____
ROOT
ATOM      1  C   UNL     1      49.217   9.356  15.564  0.00  0.00    +0.000 C 
ATOM      2  C   UNL     1      49.814  10.756  15.286  0.00  0.00    +0.000 C 
ATOM      3  C   UNL     1      47.941   9.553  16.414  0.00  0.00    +0.000 C 
ENDROOT
BRANCH   1   9
ATOM      4  C   UNL     1      47.280   7.333  12.859  0.00  0.00    +0.000 A 
ATOM      5  C   UNL     1      48.204   7.302  11.823  0.00  0.00    +0.000 A 
ATOM      6  C   UNL     1      49.437   7.904  12.008  0.00  0.00    +0.000 A 
ATOM      7  F   UNL     1      50.331   7.888  11.011  0.00  0.00    +0.000 F 
ATOM      8  C   UNL     1      49.763   8.536  13.204  0.00  0.00    +0.000 A 
ATOM      9  C   UNL     1      48.846   8.587  14.272  0.00  0.00    +0.000 A 
ATOM     10  C   UNL     1      47.605   7.950  14.078  0.00  0.00    +0.000 A 
BRANCH   4  11
ATOM     11  O   UNL     1      46.037   6.752  12.781  0.00  0.00    +0.000 OA
BRANCH  11  16
ATOM     12  C   UNL     1      43.286   5.423  12.462  0.00  0.00    +0.000 C 
ATOM     13  C   UNL     1      44.583   4.651  12.327  0.00  0.00    +0.000 C 
ATOM     14  N   UNL     1      45.012   4.071  13.625  0.00  0.00    +0.000 NA
ATOM     15  C   UNL     1      46.419   4.279  13.229  0.00  0.00    +0.000 C 
ATOM     16  C   UNL     1      45.952   5.395  12.262  0.00  0.00    +0.000 C 
ATOM     17  H   UNL     1      44.740   3.102  13.782  0.00  0.00    +0.000 HD
ENDBRANCH  11  16
ENDBRANCH   4  11
ENDBRANCH   1   9
BRANCH   1  18
ATOM     18  C   UNL     1      50.282   8.506  16.332  0.00  0.00    +0.000 C 
BRANCH  18  19
ATOM     19  N   UNL     1      49.723   7.750  17.464  0.00  0.00    +0.000 N 
ATOM     20  H   UNL     1      48.788   8.059  17.719  0.00  0.00    +0.000 HD
BRANCH  19  21
ATOM     21  C   UNL     1      49.789   6.351  17.398  0.00  0.00    +0.000 A 
ATOM     22  C   UNL     1      48.695   5.502  17.300  0.00  0.00    +0.000 A 
ATOM     23  N   UNL     1      48.763   4.157  17.173  0.00  0.00    +0.000 NA
ATOM     24  C   UNL     1      50.014   3.647  17.106  0.00  0.00    +0.000 A 
ATOM     25  N   UNL     1      51.156   4.354  17.143  0.00  0.00    +0.000 NA
ATOM     26  C   UNL     1      51.004   5.692  17.267  0.00  0.00    +0.000 A 
BRANCH  24  27
ATOM     27  C   UNL     1      50.110   2.146  16.957  0.00  0.00    +0.000 C 
ATOM     28  N   UNL     1      50.965   1.521  17.838  0.00  0.00    +0.000 N 
ATOM     29  O   UNL     1      49.488   1.494  16.127  0.00  0.00    +0.000 OA
ATOM     30  H   UNL     1      51.460   2.064  18.534  0.00  0.00    +0.000 HD
ATOM     31  H   UNL     1      51.056   0.517  17.805  0.00  0.00    +0.000 HD
ENDBRANCH  24  27
ENDBRANCH  19  21
ENDBRANCH  18  19
ENDBRANCH   1  18
TORSDOF 7
ENDMDL
