MODEL 1
REMARK VINA RESULT:    -6.854      0.000      0.000
REMARK INTER + INTRA:          -9.000
REMARK INTER:                  -8.257
REMARK INTRA:                  -0.743
REMARK UNBOUND:                -0.743
REMARK  Name = 
REMARK  4 active torsions:
REMARK  status: ('A' for Active; 'I' for Inactive)
REMARK    1  A    between atoms: N_1  and  C_2
REMARK    2  A    between atoms: C_2  and  C_3
REMARK    3  A    between atoms: C_6  and  C_7
REMARK    4  A    between atoms: C_7  and  C_8
REMARK                            x       y       z     vdW  Elec       q    Type
REMARK                         _______ _______ _______ _____ _____    ______ ____
ROOT
ATOM      1  C   UNL     1      44.956   2.960  10.268  0.00  0.00    +0.000 C 
ENDROOT
BRANCH   1   2
ATOM      2  C   UNL     1      44.365   4.214  10.837  0.00  0.00    +0.000 A 
ATOM      3  C   UNL     1      43.023   4.460  11.053  0.00  0.00    +0.000 A 
ATOM      4  N   UNL     1      42.887   5.737  11.525  0.00  0.00    +0.000 N 
ATOM      5  C   UNL     1      44.120   6.336  11.629  0.00  0.00    +0.000 A 
ATOM      6  C   UNL     1      44.460   7.629  12.046  0.00  0.00    +0.000 A 
ATOM      7  C   UNL     1      45.817   7.966  12.058  0.00  0.00    +0.000 A 
ATOM      8  C   UNL     1      46.783   7.044  11.666  0.00  0.00    +0.000 A 
ATOM      9 CL   UNL     1      48.448   7.490  11.702  0.00  0.00    +0.000 Cl
ATOM     10  C   UNL     1      46.430   5.761  11.242  0.00  0.00    +0.000 A 
ATOM     11  C   UNL     1      45.068   5.397  11.221  0.00  0.00    +0.000 A 
ATOM     12  H   UNL     1      42.010   6.181  11.759  0.00  0.00    +0.000 HD
ENDBRANCH   1   2
BRANCH   1  16
ATOM     13  C   UNL     1      47.146   2.747   7.275  0.00  0.00    +0.000 C 
ATOM     14  C   UNL     1      46.382   4.018   7.693  0.00  0.00    +0.000 C 
ATOM     15  C   UNL     1      44.879   3.789   7.826  0.00  0.00    +0.000 C 
ATOM     16  C   UNL     1      44.551   2.655   8.809  0.00  0.00    +0.000 C 
ATOM     17  C   UNL     1      45.239   1.368   8.319  0.00  0.00    +0.000 C 
ATOM     18  C   UNL     1      46.752   1.536   8.143  0.00  0.00    +0.000 C 
BRANCH  13  19
ATOM     19  C   UNL     1      46.987   2.424   5.775  0.00  0.00    +0.000 C 
BRANCH  19  20
ATOM     20  N   UNL     1      48.256   2.013   5.184  0.00  0.00    +0.000 NA
ATOM     21  H   UNL     1      48.296   0.995   5.134  0.00  0.00    +0.000 HD
ATOM     22  H   UNL     1      49.027   2.303   5.780  0.00  0.00    +0.000 HD
ENDBRANCH  19  20
ENDBRANCH  13  19
ENDBRANCH   1  16
TORSDOF 4
ENDMDL
MODEL 2
REMARK VINA RESULT:    -6.684      2.681      5.965
REMARK INTER + INTRA:          -8.795
REMARK INTER:                  -8.063
REMARK INTRA:                  -0.732
REMARK UNBOUND:                -0.743
REMARK  Name = 
REMARK  4 active torsions:
REMARK  status: ('A' for Active; 'I' for Inactive)
REMARK    1  A    between atoms: N_1  and  C_2
REMARK    2  A    between atoms: C_2  and  C_3
REMARK    3  A    between atoms: C_6  and  C_7
REMARK    4  A    between atoms: C_7  and  C_8
REMARK                            x       y       z     vdW  Elec       q    Type
REMARK                         _______ _______ _______ _____ _____    ______ ____
ROOT
ATOM      1  C   UNL     1      44.498   6.746  11.448  0.00  0.00    +0.000 C 
ENDROOT
BRANCH   1   2
ATOM      2  C   UNL     1      44.145   5.319  11.160  0.00  0.00    +0.000 A 
ATOM      3  C   UNL     1      43.289   4.524  11.897  0.00  0.00    +0.000 A 
ATOM      4  N   UNL     1      43.279   3.272  11.347  0.00  0.00    +0.000 N 
ATOM      5  C   UNL     1      44.112   3.229  10.253  0.00  0.00    +0.000 A 
ATOM      6  C   UNL     1      44.422   2.163   9.401  0.00  0.00    +0.000 A 
ATOM      7  C   UNL     1      45.309   2.416   8.349  0.00  0.00    +0.000 A 
ATOM      8  C   UNL     1      45.856   3.684   8.169  0.00  0.00    +0.000 A 
ATOM      9 CL   UNL     1      46.938   3.964   6.856  0.00  0.00    +0.000 Cl
ATOM     10  C   UNL     1      45.546   4.736   9.034  0.00  0.00    +0.000 A 
ATOM     11  C   UNL     1      44.655   4.505  10.101  0.00  0.00    +0.000 A 
ATOM     12  H   UNL     1      42.744   2.488  11.694  0.00  0.00    +0.000 HD
ENDBRANCH   1   2
BRANCH   1  16
ATOM     13  C   UNL     1      47.973   7.787  12.249  0.00  0.00    +0.000 C 
ATOM     14  C   UNL     1      47.498   6.322  12.229  0.00  0.00    +0.000 C 
ATOM     15  C   UNL     1      46.311   6.071  13.156  0.00  0.00    +0.000 C 
ATOM     16  C   UNL     1      45.124   6.993  12.838  0.00  0.00    +0.000 C 
ATOM     17  C   UNL     1      45.592   8.455  12.965  0.00  0.00    +0.000 C 
ATOM     18  C   UNL     1      46.799   8.768  12.074  0.00  0.00    +0.000 C 
BRANCH  13  19
ATOM     19  C   UNL     1      48.791   8.128  13.513  0.00  0.00    +0.000 C 
BRANCH  19  20
ATOM     20  N   UNL     1      49.733   7.063  13.838  0.00  0.00    +0.000 NA
ATOM     21  H   UNL     1      50.686   7.387  13.670  0.00  0.00    +0.000 HD
ATOM     22  H   UNL     1      49.586   6.269  13.221  0.00  0.00    +0.000 HD
ENDBRANCH  19  20
ENDBRANCH  13  19
ENDBRANCH   1  16
TORSDOF 4
ENDMDL
MODEL 3
REMARK VINA RESULT:    -6.426      2.748      6.328
REMARK INTER + INTRA:          -8.484
REMARK INTER:                  -7.904
REMARK INTRA:                  -0.580
REMARK UNBOUND:                -0.743
REMARK  Name = 
REMARK  4 active torsions:
REMARK  status: ('A' for Active; 'I' for Inactive)
REMARK    1  A    between atoms: N_1  and  C_2
REMARK    2  A    between atoms: C_2  and  C_3
REMARK    3  A    between atoms: C_6  and  C_7
REMARK    4  A    between atoms: C_7  and  C_8
REMARK                            x       y       z     vdW  Elec       q    Type
REMARK                         _______ _______ _______ _____ _____    ______ ____
ROOT
ATOM      1  C   UNL     1      44.796   6.817  11.345  0.00  0.00    +0.000 C 
ENDROOT
BRANCH   1   2
ATOM      2  C   UNL     1      44.364   5.393  11.168  0.00  0.00    +0.000 A 
ATOM      3  C   UNL     1      43.554   4.673  12.024  0.00  0.00    +0.000 A 
ATOM      4  N   UNL     1      43.445   3.396  11.545  0.00  0.00    +0.000 N 
ATOM      5  C   UNL     1      44.167   3.264  10.382  0.00  0.00    +0.000 A 
ATOM      6  C   UNL     1      44.355   2.145   9.562  0.00  0.00    +0.000 A 
ATOM      7  C   UNL     1      45.146   2.308   8.421  0.00  0.00    +0.000 A 
ATOM      8  C   UNL     1      45.721   3.540   8.123  0.00  0.00    +0.000 A 
ATOM      9 CL   UNL     1      46.682   3.709   6.702  0.00  0.00    +0.000 Cl
ATOM     10  C   UNL     1      45.534   4.647   8.955  0.00  0.00    +0.000 A 
ATOM     11  C   UNL     1      44.740   4.507  10.112  0.00  0.00    +0.000 A 
ATOM     12  H   UNL     1      42.917   2.654  11.981  0.00  0.00    +0.000 HD
ENDBRANCH   1   2
BRANCH   1  16
ATOM     13  C   UNL     1      47.921   8.671  12.120  0.00  0.00    +0.000 C 
ATOM     14  C   UNL     1      47.832   7.136  12.029  0.00  0.00    +0.000 C 
ATOM     15  C   UNL     1      46.784   6.546  12.969  0.00  0.00    +0.000 C 
ATOM     16  C   UNL     1      45.391   7.149  12.731  0.00  0.00    +0.000 C 
ATOM     17  C   UNL     1      45.476   8.673  12.929  0.00  0.00    +0.000 C 
ATOM     18  C   UNL     1      46.530   9.327  12.028  0.00  0.00    +0.000 C 
BRANCH  13  19
ATOM     19  C   UNL     1      48.672   9.149  13.380  0.00  0.00    +0.000 C 
BRANCH  19  20
ATOM     20  N   UNL     1      48.321  10.524  13.716  0.00  0.00    +0.000 NA
ATOM     21  H   UNL     1      47.351  10.562  14.031  0.00  0.00    +0.000 HD
ATOM     22  H   UNL     1      48.378  11.110  12.887  0.00  0.00    +0.000 HD
ENDBRANCH  19  20
ENDBRANCH  13  19
ENDBRANCH   1  16
TORSDOF 4
ENDMDL
MODEL 4
REMARK VINA RESULT:    -5.950      3.132      6.303
REMARK INTER + INTRA:          -7.910
REMARK INTER:                  -7.277
REMARK INTRA:                  -0.634
REMARK UNBOUND:                -0.743
REMARK  Name = 
REMARK  4 active torsions:
REMARK  status: ('A' for Active; 'I' for Inactive)
REMARK    1  A    between atoms: N_1  and  C_2
REMARK    2  A    between atoms: C_2  and  C_3
REMARK    3  A    between atoms: C_6  and  C_7
REMARK    4  A    between atoms: C_7  and  C_8
REMARK                            x       y       z     vdW  Elec       q    Type
REMARK                         _______ _______ _______ _____ _____    ______ ____
ROOT
ATOM      1  C   UNL     1      46.025   7.298  11.830  0.00  0.00    +0.000 C 
ENDROOT
BRANCH   1   2
ATOM      2  C   UNL     1      45.194   6.052  11.870  0.00  0.00    +0.000 A 
ATOM      3  C   UNL     1      44.427   5.614  12.932  0.00  0.00    +0.000 A 
ATOM      4  N   UNL     1      43.872   4.410  12.599  0.00  0.00    +0.000 N 
ATOM      5  C   UNL     1      44.257   4.047  11.329  0.00  0.00    +0.000 A 
ATOM      6  C   UNL     1      43.948   2.900  10.589  0.00  0.00    +0.000 A 
ATOM      7  C   UNL     1      44.482   2.800   9.300  0.00  0.00    +0.000 A 
ATOM      8  C   UNL     1      45.291   3.810   8.786  0.00  0.00    +0.000 A 
ATOM      9 CL   UNL     1      45.925   3.661   7.189  0.00  0.00    +0.000 Cl
ATOM     10  C   UNL     1      45.600   4.946   9.539  0.00  0.00    +0.000 A 
ATOM     11  C   UNL     1      45.073   5.068  10.840  0.00  0.00    +0.000 A 
ATOM     12  H   UNL     1      43.271   3.860  13.196  0.00  0.00    +0.000 HD
ENDBRANCH   1   2
BRANCH   1  16
ATOM     13  C   UNL     1      48.697   8.043  14.302  0.00  0.00    +0.000 C 
ATOM     14  C   UNL     1      48.291   8.996  13.162  0.00  0.00    +0.000 C 
ATOM     15  C   UNL     1      48.384   8.345  11.784  0.00  0.00    +0.000 C 
ATOM     16  C   UNL     1      47.545   7.061  11.694  0.00  0.00    +0.000 C 
ATOM     17  C   UNL     1      48.036   6.079  12.774  0.00  0.00    +0.000 C 
ATOM     18  C   UNL     1      47.989   6.680  14.183  0.00  0.00    +0.000 C 
BRANCH  13  19
ATOM     19  C   UNL     1      50.226   7.861  14.408  0.00  0.00    +0.000 C 
BRANCH  19  20
ATOM     20  N   UNL     1      50.569   6.786  15.331  0.00  0.00    +0.000 NA
ATOM     21  H   UNL     1      50.340   5.886  14.908  0.00  0.00    +0.000 HD
ATOM     22  H   UNL     1      50.005   6.859  16.174  0.00  0.00    +0.000 HD
ENDBRANCH  19  20
ENDBRANCH  13  19
ENDBRANCH   1  16
TORSDOF 4
ENDMDL
MODEL 5
REMARK VINA RESULT:    -5.711      3.600      5.277
REMARK INTER + INTRA:          -7.622
REMARK INTER:                  -7.076
REMARK INTRA:                  -0.547
REMARK UNBOUND:                -0.743
REMARK  Name = 
REMARK  4 active torsions:
REMARK  status: ('A' for Active; 'I' for Inactive)
REMARK    1  A    between atoms: N_1  and  C_2
REMARK    2  A    between atoms: C_2  and  C_3
REMARK    3  A    between atoms: C_6  and  C_7
REMARK    4  A    between atoms: C_7  and  C_8
REMARK                            x       y       z     vdW  Elec       q    Type
REMARK                         _______ _______ _______ _____ _____    ______ ____
ROOT
ATOM      1  C   UNL     1      45.108   7.356  12.645  0.00  0.00    +0.000 C 
ENDROOT
BRANCH   1   2
ATOM      2  C   UNL     1      45.724   8.698  12.394  0.00  0.00    +0.000 A 
ATOM      3  C   UNL     1      45.067   9.913  12.396  0.00  0.00    +0.000 A 
ATOM      4  N   UNL     1      45.962  10.891  12.065  0.00  0.00    +0.000 N 
ATOM      5  C   UNL     1      47.205  10.342  11.848  0.00  0.00    +0.000 A 
ATOM      6  C   UNL     1      48.407  10.955  11.476  0.00  0.00    +0.000 A 
ATOM      7  C   UNL     1      49.531  10.135  11.334  0.00  0.00    +0.000 A 
ATOM      8  C   UNL     1      49.444   8.763  11.555  0.00  0.00    +0.000 A 
ATOM      9 CL   UNL     1      50.852   7.784  11.381  0.00  0.00    +0.000 Cl
ATOM     10  C   UNL     1      48.236   8.163  11.916  0.00  0.00    +0.000 A 
ATOM     11  C   UNL     1      47.089   8.968  12.066  0.00  0.00    +0.000 A 
ATOM     12  H   UNL     1      45.747  11.875  11.984  0.00  0.00    +0.000 HD
ENDBRANCH   1   2
BRANCH   1  16
ATOM     13  C   UNL     1      43.865   3.864  12.394  0.00  0.00    +0.000 C 
ATOM     14  C   UNL     1      45.345   4.262  12.245  0.00  0.00    +0.000 C 
ATOM     15  C   UNL     1      45.573   5.302  11.152  0.00  0.00    +0.000 C 
ATOM     16  C   UNL     1      44.729   6.567  11.373  0.00  0.00    +0.000 C 
ATOM     17  C   UNL     1      43.243   6.162  11.414  0.00  0.00    +0.000 C 
ATOM     18  C   UNL     1      42.950   5.100  12.478  0.00  0.00    +0.000 C 
BRANCH  13  19
ATOM     19  C   UNL     1      43.393   2.906  11.279  0.00  0.00    +0.000 C 
BRANCH  19  20
ATOM     20  N   UNL     1      43.052   1.594  11.818  0.00  0.00    +0.000 NA
ATOM     21  H   UNL     1      43.720   0.901  11.479  0.00  0.00    +0.000 HD
ATOM     22  H   UNL     1      42.139   1.305  11.475  0.00  0.00    +0.000 HD
ENDBRANCH  19  20
ENDBRANCH  13  19
ENDBRANCH   1  16
TORSDOF 4
ENDMDL
MODEL 6
REMARK VINA RESULT:    -5.709      3.088      4.888
REMARK INTER + INTRA:          -7.620
REMARK INTER:                  -6.900
REMARK INTRA:                  -0.721
REMARK UNBOUND:                -0.743
REMARK  Name = 
REMARK  4 active torsions:
REMARK  status: ('A' for Active; 'I' for Inactive)
REMARK    1  A    between atoms: N_1  and  C_2
REMARK    2  A    between atoms: C_2  and  C_3
REMARK    3  A    between atoms: C_6  and  C_7
REMARK    4  A    between atoms: C_7  and  C_8
REMARK                            x       y       z     vdW  Elec       q    Type
REMARK                         _______ _______ _______ _____ _____    ______ ____
ROOT
ATOM      1  C   UNL     1      45.067   6.583  12.854  0.00  0.00    +0.000 C 
ENDROOT
BRANCH   1   2
ATOM      2  C   UNL     1      45.669   7.949  12.730  0.00  0.00    +0.000 A 
ATOM      3  C   UNL     1      46.771   8.422  13.415  0.00  0.00    +0.000 A 
ATOM      4  N   UNL     1      46.966   9.731  13.071  0.00  0.00    +0.000 N 
ATOM      5  C   UNL     1      46.011  10.129  12.164  0.00  0.00    +0.000 A 
ATOM      6  C   UNL     1      45.813  11.374  11.555  0.00  0.00    +0.000 A 
ATOM      7  C   UNL     1      44.750  11.488  10.654  0.00  0.00    +0.000 A 
ATOM      8  C   UNL     1      43.927  10.399  10.383  0.00  0.00    +0.000 A 
ATOM      9 CL   UNL     1      42.632  10.572   9.258  0.00  0.00    +0.000 Cl
ATOM     10  C   UNL     1      44.129   9.165  11.005  0.00  0.00    +0.000 A 
ATOM     11  C   UNL     1      45.195   9.026  11.918  0.00  0.00    +0.000 A 
ATOM     12  H   UNL     1      47.699  10.325  13.432  0.00  0.00    +0.000 HD
ENDBRANCH   1   2
BRANCH   1  16
ATOM     13  C   UNL     1      43.755   3.814  10.752  0.00  0.00    +0.000 C 
ATOM     14  C   UNL     1      44.041   3.687  12.260  0.00  0.00    +0.000 C 
ATOM     15  C   UNL     1      45.479   4.045  12.624  0.00  0.00    +0.000 C 
ATOM     16  C   UNL     1      45.860   5.458  12.153  0.00  0.00    +0.000 C 
ATOM     17  C   UNL     1      45.667   5.534  10.627  0.00  0.00    +0.000 C 
ATOM     18  C   UNL     1      44.246   5.163  10.192  0.00  0.00    +0.000 C 
BRANCH  13  19
ATOM     19  C   UNL     1      44.333   2.638   9.937  0.00  0.00    +0.000 C 
BRANCH  19  20
ATOM     20  N   UNL     1      44.314   2.925   8.507  0.00  0.00    +0.000 NA
ATOM     21  H   UNL     1      45.206   2.655   8.093  0.00  0.00    +0.000 HD
ATOM     22  H   UNL     1      44.216   3.925   8.354  0.00  0.00    +0.000 HD
ENDBRANCH  19  20
ENDBRANCH  13  19
ENDBRANCH   1  16
TORSDOF 4
ENDMDL
MODEL 7
REMARK VINA RESULT:    -5.649      4.313      6.100
REMARK INTER + INTRA:          -7.548
REMARK INTER:                  -7.096
REMARK INTRA:                  -0.452
REMARK UNBOUND:                -0.743
REMARK  Name = 
REMARK  4 active torsions:
REMARK  status: ('A' for Active; 'I' for Inactive)
REMARK    1  A    between atoms: N_1  and  C_2
REMARK    2  A    between atoms: C_2  and  C_3
REMARK    3  A    between atoms: C_6  and  C_7
REMARK    4  A    between atoms: C_7  and  C_8
REMARK                            x       y       z     vdW  Elec       q    Type
REMARK                         _______ _______ _______ _____ _____    ______ ____
ROOT
ATOM      1  C   UNL     1      47.301   6.046  12.780  0.00  0.00    +0.000 C 
ENDROOT
BRANCH   1   2
ATOM      2  C   UNL     1      47.988   6.536  14.018  0.00  0.00    +0.000 A 
ATOM      3  C   UNL     1      48.677   7.726  14.154  0.00  0.00    +0.000 A 
ATOM      4  N   UNL     1      49.209   7.777  15.413  0.00  0.00    +0.000 N 
ATOM      5  C   UNL     1      48.877   6.640  16.113  0.00  0.00    +0.000 A 
ATOM      6  C   UNL     1      49.212   6.257  17.417  0.00  0.00    +0.000 A 
ATOM      7  C   UNL     1      48.720   5.031  17.875  0.00  0.00    +0.000 A 
ATOM      8  C   UNL     1      47.929   4.231  17.055  0.00  0.00    +0.000 A 
ATOM      9 CL   UNL     1      47.330   2.730  17.656  0.00  0.00    +0.000 Cl
ATOM     10  C   UNL     1      47.611   4.620  15.752  0.00  0.00    +0.000 A 
ATOM     11  C   UNL     1      48.095   5.852  15.268  0.00  0.00    +0.000 A 
ATOM     12  H   UNL     1      49.769   8.534  15.778  0.00  0.00    +0.000 HD
ENDBRANCH   1   2
BRANCH   1  16
ATOM     13  C   UNL     1      44.911   3.800  11.034  0.00  0.00    +0.000 C 
ATOM     14  C   UNL     1      45.344   5.178  10.499  0.00  0.00    +0.000 C 
ATOM     15  C   UNL     1      45.081   6.309  11.489  0.00  0.00    +0.000 C 
ATOM     16  C   UNL     1      45.758   6.058  12.846  0.00  0.00    +0.000 C 
ATOM     17  C   UNL     1      45.234   4.726  13.415  0.00  0.00    +0.000 C 
ATOM     18  C   UNL     1      45.447   3.550  12.457  0.00  0.00    +0.000 C 
BRANCH  13  19
ATOM     19  C   UNL     1      43.383   3.595  10.979  0.00  0.00    +0.000 C 
BRANCH  19  20
ATOM     20  N   UNL     1      42.991   2.351  11.634  0.00  0.00    +0.000 NA
ATOM     21  H   UNL     1      43.761   1.683  11.587  0.00  0.00    +0.000 HD
ATOM     22  H   UNL     1      42.212   1.928  11.136  0.00  0.00    +0.000 HD
ENDBRANCH  19  20
ENDBRANCH  13  19
ENDBRANCH   1  16
TORSDOF 4
ENDMDL
MODEL 8
REMARK VINA RESULT:    -5.069      2.919      4.842
REMARK INTER + INTRA:          -6.849
REMARK INTER:                  -6.322
REMARK INTRA:                  -0.527
REMARK UNBOUND:                -0.743
REMARK  Name = 
REMARK  4 active torsions:
REMARK  status: ('A' for Active; 'I' for Inactive)
REMARK    1  A    between atoms: N_1  and  C_2
REMARK    2  A    between atoms: C_2  and  C_3
REMARK    3  A    between atoms: C_6  and  C_7
REMARK    4  A    between atoms: C_7  and  C_8
REMARK                            x       y       z     vdW  Elec       q    Type
REMARK                         _______ _______ _______ _____ _____    ______ ____
ROOT
ATOM      1  C   UNL     1      45.186   6.658  12.866  0.00  0.00    +0.000 C 
ENDROOT
BRANCH   1   2
ATOM      2  C   UNL     1      45.884   7.983  12.872  0.00  0.00    +0.000 A 
ATOM      3  C   UNL     1      45.412   9.159  12.320  0.00  0.00    +0.000 A 
ATOM      4  N   UNL     1      46.365  10.126  12.479  0.00  0.00    +0.000 N 
ATOM      5  C   UNL     1      47.459   9.608  13.133  0.00  0.00    +0.000 A 
ATOM      6  C   UNL     1      48.665  10.222  13.493  0.00  0.00    +0.000 A 
ATOM      7  C   UNL     1      49.609   9.441  14.168  0.00  0.00    +0.000 A 
ATOM      8  C   UNL     1      49.348   8.106  14.464  0.00  0.00    +0.000 A 
ATOM      9 CL   UNL     1      50.529   7.175  15.307  0.00  0.00    +0.000 Cl
ATOM     10  C   UNL     1      48.144   7.503  14.090  0.00  0.00    +0.000 A 
ATOM     11  C   UNL     1      47.178   8.270  13.408  0.00  0.00    +0.000 A 
ATOM     12  H   UNL     1      46.285  11.081  12.160  0.00  0.00    +0.000 HD
ENDBRANCH   1   2
BRANCH   1  16
ATOM     13  C   UNL     1      43.715   3.762  11.062  0.00  0.00    +0.000 C 
ATOM     14  C   UNL     1      44.217   3.703  12.517  0.00  0.00    +0.000 C 
ATOM     15  C   UNL     1      45.675   4.132  12.659  0.00  0.00    +0.000 C 
ATOM     16  C   UNL     1      45.921   5.540  12.095  0.00  0.00    +0.000 C 
ATOM     17  C   UNL     1      45.512   5.551  10.611  0.00  0.00    +0.000 C 
ATOM     18  C   UNL     1      44.061   5.107  10.395  0.00  0.00    +0.000 C 
BRANCH  13  19
ATOM     19  C   UNL     1      44.224   2.580  10.210  0.00  0.00    +0.000 C 
BRANCH  19  20
ATOM     20  N   UNL     1      44.103   2.863   8.784  0.00  0.00    +0.000 NA
ATOM     21  H   UNL     1      44.226   2.001   8.253  0.00  0.00    +0.000 HD
ATOM     22  H   UNL     1      44.847   3.491   8.491  0.00  0.00    +0.000 HD
ENDBRANCH  19  20
ENDBRANCH  13  19
ENDBRANCH   1  16
TORSDOF 4
ENDMDL
MODEL 9
REMARK VINA RESULT:    -5.065      3.886      6.068
REMARK INTER + INTRA:          -6.844
REMARK INTER:                  -6.206
REMARK INTRA:                  -0.639
REMARK UNBOUND:                -0.743
REMARK  Name = 
REMARK  4 active torsions:
REMARK  status: ('A' for Active; 'I' for Inactive)
REMARK    1  A    between atoms: N_1  and  C_2
REMARK    2  A    between atoms: C_2  and  C_3
REMARK    3  A    between atoms: C_6  and  C_7
REMARK    4  A    between atoms: C_7  and  C_8
REMARK                            x       y       z     vdW  Elec       q    Type
REMARK                         _______ _______ _______ _____ _____    ______ ____
ROOT
ATOM      1  C   UNL     1      46.399   7.245  12.430  0.00  0.00    +0.000 C 
ENDROOT
BRANCH   1   2
ATOM      2  C   UNL     1      47.771   7.727  12.792  0.00  0.00    +0.000 A 
ATOM      3  C   UNL     1      48.555   8.591  12.053  0.00  0.00    +0.000 A 
ATOM      4  N   UNL     1      49.758   8.736  12.688  0.00  0.00    +0.000 N 
ATOM      5  C   UNL     1      49.778   7.984  13.839  0.00  0.00    +0.000 A 
ATOM      6  C   UNL     1      50.795   7.815  14.786  0.00  0.00    +0.000 A 
ATOM      7  C   UNL     1      50.528   6.983  15.878  0.00  0.00    +0.000 A 
ATOM      8  C   UNL     1      49.294   6.352  16.006  0.00  0.00    +0.000 A 
ATOM      9 CL   UNL     1      48.995   5.341  17.371  0.00  0.00    +0.000 Cl
ATOM     10  C   UNL     1      48.291   6.520  15.049  0.00  0.00    +0.000 A 
ATOM     11  C   UNL     1      48.537   7.354  13.939  0.00  0.00    +0.000 A 
ATOM     12  H   UNL     1      50.524   9.306  12.360  0.00  0.00    +0.000 HD
ENDBRANCH   1   2
BRANCH   1  16
ATOM     13  C   UNL     1      43.627   4.776  12.288  0.00  0.00    +0.000 C 
ATOM     14  C   UNL     1      44.797   4.698  13.287  0.00  0.00    +0.000 C 
ATOM     15  C   UNL     1      46.162   4.681  12.603  0.00  0.00    +0.000 C 
ATOM     16  C   UNL     1      46.361   5.895  11.682  0.00  0.00    +0.000 C 
ATOM     17  C   UNL     1      45.242   5.897  10.624  0.00  0.00    +0.000 C 
ATOM     18  C   UNL     1      43.842   5.892  11.247  0.00  0.00    +0.000 C 
BRANCH  13  19
ATOM     19  C   UNL     1      43.347   3.425  11.596  0.00  0.00    +0.000 C 
BRANCH  19  20
ATOM     20  N   UNL     1      43.494   2.312  12.527  0.00  0.00    +0.000 NA
ATOM     21  H   UNL     1      44.435   2.318  12.921  0.00  0.00    +0.000 HD
ATOM     22  H   UNL     1      43.394   1.430  12.032  0.00  0.00    +0.000 HD
ENDBRANCH  19  20
ENDBRANCH  13  19
ENDBRANCH   1  16
TORSDOF 4
ENDMDL
