MODEL 1
REMARK VINA RESULT:    -7.579      0.000      0.000
REMARK INTER + INTRA:          -9.496
REMARK INTER:                  -9.129
REMARK INTRA:                  -0.367
REMARK UNBOUND:                -0.367
REMARK  Name = 
REMARK  4 active torsions:
REMARK  status: ('A' for Active; 'I' for Inactive)
REMARK    1  A    between atoms: N_1  and  C_2
REMARK    2  A    between atoms: C_2  and  C_3
REMARK    3  A    between atoms: C_7  and  C_8
REMARK    4  A    between atoms: C_8  and  N_9
REMARK                            x       y       z     vdW  Elec       q    Type
REMARK                         _______ _______ _______ _____ _____    ______ ____
ROOT
ATOM      1  C   UNL     1      46.763   2.520   6.811  0.00  0.00    +0.000 A 
ATOM      2  C   UNL     1      46.785   1.259   7.397  0.00  0.00    +0.000 A 
ATOM      3  N   UNL     1      46.000   0.876   8.428  0.00  0.00    +0.000 NA
ATOM      4  C   UNL     1      45.135   1.799   8.909  0.00  0.00    +0.000 A 
ATOM      5  C   UNL     1      45.027   3.097   8.424  0.00  0.00    +0.000 A 
ATOM      6  C   UNL     1      45.842   3.444   7.334  0.00  0.00    +0.000 A 
ENDROOT
BRANCH   1   7
ATOM      7  C   UNL     1      47.646   2.805   5.627  0.00  0.00    +0.000 C 
BRANCH   7   8
ATOM      8  N   UNL     1      48.629   1.755   5.365  0.00  0.00    +0.000 NA
ATOM      9  H   UNL     1      49.266   1.691   6.157  0.00  0.00    +0.000 HD
ATOM     10  H   UNL     1      49.201   2.033   4.566  0.00  0.00    +0.000 HD
ENDBRANCH   7   8
ENDBRANCH   1   7
BRANCH   5  11
ATOM     11  C   UNL     1      44.115   4.083   9.098  0.00  0.00    +0.000 C 
BRANCH  11  12
ATOM     12  N   UNL     1      44.271   4.138  10.542  0.00  0.00    +0.000 N 
ATOM     13  C   UNL     1      43.425   3.529  11.442  0.00  0.00    +0.000 A 
ATOM     14  C   UNL     1      43.834   3.873  12.714  0.00  0.00    +0.000 A 
ATOM     15  C   UNL     1      44.846   4.856  12.578  0.00  0.00    +0.000 A 
ATOM     16  C   UNL     1      45.533   5.702  13.466  0.00  0.00    +0.000 A 
ATOM     17  C   UNL     1      46.453   6.598  12.923  0.00  0.00    +0.000 A 
ATOM     18  C   UNL     1      46.676   6.580  11.552  0.00  0.00    +0.000 A 
ATOM     19  N   UNL     1      46.045   5.792  10.652  0.00  0.00    +0.000 NA
ATOM     20  C   UNL     1      45.132   4.972  11.218  0.00  0.00    +0.000 A 
ENDBRANCH  11  12
ENDBRANCH   5  11
TORSDOF 4
ENDMDL
MODEL 2
REMARK VINA RESULT:    -7.208      1.600      2.278
REMARK INTER + INTRA:          -9.050
REMARK INTER:                  -8.817
REMARK INTRA:                  -0.232
REMARK UNBOUND:                -0.367
REMARK  Name = 
REMARK  4 active torsions:
REMARK  status: ('A' for Active; 'I' for Inactive)
REMARK    1  A    between atoms: N_1  and  C_2
REMARK    2  A    between atoms: C_2  and  C_3
REMARK    3  A    between atoms: C_7  and  C_8
REMARK    4  A    between atoms: C_8  and  N_9
REMARK                            x       y       z     vdW  Elec       q    Type
REMARK                         _______ _______ _______ _____ _____    ______ ____
ROOT
ATOM      1  C   UNL     1      46.444   1.976   7.616  0.00  0.00    +0.000 A 
ATOM      2  C   UNL     1      46.634   3.236   7.059  0.00  0.00    +0.000 A 
ATOM      3  N   UNL     1      46.091   4.377   7.536  0.00  0.00    +0.000 NA
ATOM      4  C   UNL     1      45.311   4.266   8.637  0.00  0.00    +0.000 A 
ATOM      5  C   UNL     1      45.029   3.065   9.277  0.00  0.00    +0.000 A 
ATOM      6  C   UNL     1      45.637   1.907   8.764  0.00  0.00    +0.000 A 
ENDROOT
BRANCH   1   7
ATOM      7  C   UNL     1      47.153   0.788   7.025  0.00  0.00    +0.000 C 
BRANCH   7   8
ATOM      8  N   UNL     1      46.775  -0.484   7.639  0.00  0.00    +0.000 NA
ATOM      9  H   UNL     1      47.203  -0.548   8.561  0.00  0.00    +0.000 HD
ATOM     10  H   UNL     1      47.176  -1.245   7.090  0.00  0.00    +0.000 HD
ENDBRANCH   7   8
ENDBRANCH   1   7
BRANCH   5  11
ATOM     11  C   UNL     1      44.063   3.030  10.427  0.00  0.00    +0.000 C 
BRANCH  11  12
ATOM     12  N   UNL     1      44.212   4.139  11.355  0.00  0.00    +0.000 N 
ATOM     13  C   UNL     1      43.579   5.356  11.224  0.00  0.00    +0.000 A 
ATOM     14  C   UNL     1      44.029   6.182  12.233  0.00  0.00    +0.000 A 
ATOM     15  C   UNL     1      45.089   5.508  12.888  0.00  0.00    +0.000 A 
ATOM     16  C   UNL     1      46.041   5.863  13.859  0.00  0.00    +0.000 A 
ATOM     17  C   UNL     1      46.986   4.902  14.220  0.00  0.00    +0.000 A 
ATOM     18  C   UNL     1      46.912   3.641  13.641  0.00  0.00    +0.000 A 
ATOM     19  N   UNL     1      46.022   3.245  12.703  0.00  0.00    +0.000 NA
ATOM     20  C   UNL     1      45.156   4.222  12.353  0.00  0.00    +0.000 A 
ENDBRANCH  11  12
ENDBRANCH   5  11
TORSDOF 4
ENDMDL
MODEL 3
REMARK VINA RESULT:    -7.040      1.733      6.261
REMARK INTER + INTRA:          -8.848
REMARK INTER:                  -8.500
REMARK INTRA:                  -0.348
REMARK UNBOUND:                -0.367
REMARK  Name = 
REMARK  4 active torsions:
REMARK  status: ('A' for Active; 'I' for Inactive)
REMARK    1  A    between atoms: N_1  and  C_2
REMARK    2  A    between atoms: C_2  and  C_3
REMARK    3  A    between atoms: C_7  and  C_8
REMARK    4  A    between atoms: C_8  and  N_9
REMARK                            x       y       z     vdW  Elec       q    Type
REMARK                         _______ _______ _______ _____ _____    ______ ____
ROOT
ATOM      1  C   UNL     1      45.223   4.909  12.998  0.00  0.00    +0.000 A 
ATOM      2  C   UNL     1      43.964   5.435  13.268  0.00  0.00    +0.000 A 
ATOM      3  N   UNL     1      42.839   5.124  12.589  0.00  0.00    +0.000 NA
ATOM      4  C   UNL     1      42.966   4.233  11.578  0.00  0.00    +0.000 A 
ATOM      5  C   UNL     1      44.167   3.648  11.197  0.00  0.00    +0.000 A 
ATOM      6  C   UNL     1      45.308   3.979  11.948  0.00  0.00    +0.000 A 
ENDROOT
BRANCH   1   7
ATOM      7  C   UNL     1      46.390   5.291  13.867  0.00  0.00    +0.000 C 
BRANCH   7   8
ATOM      8  N   UNL     1      46.600   4.384  14.995  0.00  0.00    +0.000 NA
ATOM      9  H   UNL     1      47.215   4.833  15.671  0.00  0.00    +0.000 HD
ATOM     10  H   UNL     1      47.102   3.560  14.664  0.00  0.00    +0.000 HD
ENDBRANCH   7   8
ENDBRANCH   1   7
BRANCH   5  11
ATOM     11  C   UNL     1      44.225   2.755   9.991  0.00  0.00    +0.000 C 
BRANCH  11  12
ATOM     12  N   UNL     1      45.204   3.166   8.999  0.00  0.00    +0.000 N 
ATOM     13  C   UNL     1      45.313   4.443   8.493  0.00  0.00    +0.000 A 
ATOM     14  C   UNL     1      46.287   4.434   7.516  0.00  0.00    +0.000 A 
ATOM     15  C   UNL     1      46.656   3.083   7.302  0.00  0.00    +0.000 A 
ATOM     16  C   UNL     1      47.451   2.408   6.359  0.00  0.00    +0.000 A 
ATOM     17  C   UNL     1      47.529   1.019   6.455  0.00  0.00    +0.000 A 
ATOM     18  C   UNL     1      46.862   0.382   7.494  0.00  0.00    +0.000 A 
ATOM     19  N   UNL     1      46.083   0.977   8.426  0.00  0.00    +0.000 NA
ATOM     20  C   UNL     1      46.001   2.317   8.267  0.00  0.00    +0.000 A 
ENDBRANCH  11  12
ENDBRANCH   5  11
TORSDOF 4
ENDMDL
MODEL 4
REMARK VINA RESULT:    -6.611      1.505      2.107
REMARK INTER + INTRA:          -8.330
REMARK INTER:                  -8.019
REMARK INTRA:                  -0.311
REMARK UNBOUND:                -0.367
REMARK  Name = 
REMARK  4 active torsions:
REMARK  status: ('A' for Active; 'I' for Inactive)
REMARK    1  A    between atoms: N_1  and  C_2
REMARK    2  A    between atoms: C_2  and  C_3
REMARK    3  A    between atoms: C_7  and  C_8
REMARK    4  A    between atoms: C_8  and  N_9
REMARK                            x       y       z     vdW  Elec       q    Type
REMARK                         _______ _______ _______ _____ _____    ______ ____
ROOT
ATOM      1  C   UNL     1      46.572   1.918   7.480  0.00  0.00    +0.000 A 
ATOM      2  C   UNL     1      46.783   3.081   6.747  0.00  0.00    +0.000 A 
ATOM      3  N   UNL     1      46.350   4.308   7.112  0.00  0.00    +0.000 NA
ATOM      4  C   UNL     1      45.666   4.390   8.277  0.00  0.00    +0.000 A 
ATOM      5  C   UNL     1      45.375   3.302   9.091  0.00  0.00    +0.000 A 
ATOM      6  C   UNL     1      45.868   2.050   8.688  0.00  0.00    +0.000 A 
ENDROOT
BRANCH   1   7
ATOM      7  C   UNL     1      47.158   0.619   6.996  0.00  0.00    +0.000 C 
BRANCH   7   8
ATOM      8  N   UNL     1      46.784  -0.533   7.815  0.00  0.00    +0.000 NA
ATOM      9  H   UNL     1      46.949  -1.386   7.284  0.00  0.00    +0.000 HD
ATOM     10  H   UNL     1      45.778  -0.500   7.987  0.00  0.00    +0.000 HD
ENDBRANCH   7   8
ENDBRANCH   1   7
BRANCH   5  11
ATOM     11  C   UNL     1      44.514   3.479  10.310  0.00  0.00    +0.000 C 
BRANCH  11  12
ATOM     12  N   UNL     1      45.209   4.071  11.441  0.00  0.00    +0.000 N 
ATOM     13  C   UNL     1      45.671   3.364  12.530  0.00  0.00    +0.000 A 
ATOM     14  C   UNL     1      46.192   4.266  13.435  0.00  0.00    +0.000 A 
ATOM     15  C   UNL     1      45.880   5.564  12.961  0.00  0.00    +0.000 A 
ATOM     16  C   UNL     1      45.983   6.863  13.489  0.00  0.00    +0.000 A 
ATOM     17  C   UNL     1      45.505   7.917  12.709  0.00  0.00    +0.000 A 
ATOM     18  C   UNL     1      44.997   7.637  11.446  0.00  0.00    +0.000 A 
ATOM     19  N   UNL     1      44.873   6.411  10.890  0.00  0.00    +0.000 NA
ATOM     20  C   UNL     1      45.308   5.419  11.698  0.00  0.00    +0.000 A 
ENDBRANCH  11  12
ENDBRANCH   5  11
TORSDOF 4
ENDMDL
MODEL 5
REMARK VINA RESULT:    -6.523      1.736      5.845
REMARK INTER + INTRA:          -8.224
REMARK INTER:                  -7.780
REMARK INTRA:                  -0.445
REMARK UNBOUND:                -0.367
REMARK  Name = 
REMARK  4 active torsions:
REMARK  status: ('A' for Active; 'I' for Inactive)
REMARK    1  A    between atoms: N_1  and  C_2
REMARK    2  A    between atoms: C_2  and  C_3
REMARK    3  A    between atoms: C_7  and  C_8
REMARK    4  A    between atoms: C_8  and  N_9
REMARK                            x       y       z     vdW  Elec       q    Type
REMARK                         _______ _______ _______ _____ _____    ______ ____
ROOT
ATOM      1  C   UNL     1      46.238   4.987  12.999  0.00  0.00    +0.000 A 
ATOM      2  C   UNL     1      46.971   6.107  12.622  0.00  0.00    +0.000 A 
ATOM      3  N   UNL     1      46.840   6.750  11.441  0.00  0.00    +0.000 NA
ATOM      4  C   UNL     1      45.923   6.255  10.579  0.00  0.00    +0.000 A 
ATOM      5  C   UNL     1      45.139   5.135  10.827  0.00  0.00    +0.000 A 
ATOM      6  C   UNL     1      45.288   4.514  12.079  0.00  0.00    +0.000 A 
ENDROOT
BRANCH   1   7
ATOM      7  C   UNL     1      46.435   4.397  14.369  0.00  0.00    +0.000 C 
BRANCH   7   8
ATOM      8  N   UNL     1      47.665   4.838  15.025  0.00  0.00    +0.000 NA
ATOM      9  H   UNL     1      47.920   4.160  15.741  0.00  0.00    +0.000 HD
ATOM     10  H   UNL     1      47.478   5.711  15.519  0.00  0.00    +0.000 HD
ENDBRANCH   7   8
ENDBRANCH   1   7
BRANCH   5  11
ATOM     11  C   UNL     1      44.227   4.598   9.761  0.00  0.00    +0.000 C 
BRANCH  11  12
ATOM     12  N   UNL     1      44.694   3.361   9.156  0.00  0.00    +0.000 N 
ATOM     13  C   UNL     1      44.353   2.100   9.595  0.00  0.00    +0.000 A 
ATOM     14  C   UNL     1      45.052   1.181   8.839  0.00  0.00    +0.000 A 
ATOM     15  C   UNL     1      45.970   1.906   8.040  0.00  0.00    +0.000 A 
ATOM     16  C   UNL     1      47.045   1.559   7.202  0.00  0.00    +0.000 A 
ATOM     17  C   UNL     1      47.763   2.598   6.610  0.00  0.00    +0.000 A 
ATOM     18  C   UNL     1      47.359   3.907   6.840  0.00  0.00    +0.000 A 
ATOM     19  N   UNL     1      46.338   4.299   7.635  0.00  0.00    +0.000 NA
ATOM     20  C   UNL     1      45.699   3.262   8.222  0.00  0.00    +0.000 A 
ENDBRANCH  11  12
ENDBRANCH   5  11
TORSDOF 4
ENDMDL
MODEL 6
REMARK VINA RESULT:    -6.486      1.550      2.320
REMARK INTER + INTRA:          -8.180
REMARK INTER:                  -7.755
REMARK INTRA:                  -0.425
REMARK UNBOUND:                -0.367
REMARK  Name = 
REMARK  4 active torsions:
REMARK  status: ('A' for Active; 'I' for Inactive)
REMARK    1  A    between atoms: N_1  and  C_2
REMARK    2  A    between atoms: C_2  and  C_3
REMARK    3  A    between atoms: C_7  and  C_8
REMARK    4  A    between atoms: C_8  and  N_9
REMARK                            x       y       z     vdW  Elec       q    Type
REMARK                         _______ _______ _______ _____ _____    ______ ____
ROOT
ATOM      1  C   UNL     1      45.965   3.473   8.001  0.00  0.00    +0.000 A 
ATOM      2  C   UNL     1      45.745   2.121   8.236  0.00  0.00    +0.000 A 
ATOM      3  N   UNL     1      44.890   1.631   9.161  0.00  0.00    +0.000 NA
ATOM      4  C   UNL     1      44.208   2.537   9.899  0.00  0.00    +0.000 A 
ATOM      5  C   UNL     1      44.349   3.914   9.774  0.00  0.00    +0.000 A 
ATOM      6  C   UNL     1      45.228   4.380   8.781  0.00  0.00    +0.000 A 
ENDROOT
BRANCH   1   7
ATOM      7  C   UNL     1      46.900   3.893   6.899  0.00  0.00    +0.000 C 
BRANCH   7   8
ATOM      8  N   UNL     1      47.989   2.947   6.664  0.00  0.00    +0.000 NA
ATOM      9  H   UNL     1      48.203   2.464   7.535  0.00  0.00    +0.000 HD
ATOM     10  H   UNL     1      48.830   3.470   6.419  0.00  0.00    +0.000 HD
ENDBRANCH   7   8
ENDBRANCH   1   7
BRANCH   5  11
ATOM     11  C   UNL     1      43.630   4.837  10.715  0.00  0.00    +0.000 C 
BRANCH  11  12
ATOM     12  N   UNL     1      44.513   5.683  11.500  0.00  0.00    +0.000 N 
ATOM     13  C   UNL     1      44.756   7.014  11.238  0.00  0.00    +0.000 A 
ATOM     14  C   UNL     1      45.708   7.459  12.132  0.00  0.00    +0.000 A 
ATOM     15  C   UNL     1      46.182   6.327  12.839  0.00  0.00    +0.000 A 
ATOM     16  C   UNL     1      47.235   6.089  13.741  0.00  0.00    +0.000 A 
ATOM     17  C   UNL     1      47.415   4.783  14.194  0.00  0.00    +0.000 A 
ATOM     18  C   UNL     1      46.529   3.799  13.771  0.00  0.00    +0.000 A 
ATOM     19  N   UNL     1      45.503   3.969  12.907  0.00  0.00    +0.000 NA
ATOM     20  C   UNL     1      45.394   5.241  12.461  0.00  0.00    +0.000 A 
ENDBRANCH  11  12
ENDBRANCH   5  11
TORSDOF 4
ENDMDL
MODEL 7
REMARK VINA RESULT:    -6.409      1.715      2.220
REMARK INTER + INTRA:          -8.087
REMARK INTER:                  -7.634
REMARK INTRA:                  -0.454
REMARK UNBOUND:                -0.367
REMARK  Name = 
REMARK  4 active torsions:
REMARK  status: ('A' for Active; 'I' for Inactive)
REMARK    1  A    between atoms: N_1  and  C_2
REMARK    2  A    between atoms: C_2  and  C_3
REMARK    3  A    between atoms: C_7  and  C_8
REMARK    4  A    between atoms: C_8  and  N_9
REMARK                            x       y       z     vdW  Elec       q    Type
REMARK                         _______ _______ _______ _____ _____    ______ ____
ROOT
ATOM      1  C   UNL     1      46.064   3.368   7.866  0.00  0.00    +0.000 A 
ATOM      2  C   UNL     1      45.758   2.035   8.117  0.00  0.00    +0.000 A 
ATOM      3  N   UNL     1      44.890   1.610   9.061  0.00  0.00    +0.000 NA
ATOM      4  C   UNL     1      44.283   2.565   9.803  0.00  0.00    +0.000 A 
ATOM      5  C   UNL     1      44.514   3.929   9.664  0.00  0.00    +0.000 A 
ATOM      6  C   UNL     1      45.403   4.328   8.652  0.00  0.00    +0.000 A 
ENDROOT
BRANCH   1   7
ATOM      7  C   UNL     1      47.004   3.717   6.744  0.00  0.00    +0.000 C 
BRANCH   7   8
ATOM      8  N   UNL     1      48.076   2.741   6.555  0.00  0.00    +0.000 NA
ATOM      9  H   UNL     1      48.675   3.050   5.792  0.00  0.00    +0.000 HD
ATOM     10  H   UNL     1      47.665   1.858   6.249  0.00  0.00    +0.000 HD
ENDBRANCH   7   8
ENDBRANCH   1   7
BRANCH   5  11
ATOM     11  C   UNL     1      43.875   4.904  10.610  0.00  0.00    +0.000 C 
BRANCH  11  12
ATOM     12  N   UNL     1      44.814   5.553  11.510  0.00  0.00    +0.000 N 
ATOM     13  C   UNL     1      45.541   4.900  12.481  0.00  0.00    +0.000 A 
ATOM     14  C   UNL     1      46.250   5.846  13.192  0.00  0.00    +0.000 A 
ATOM     15  C   UNL     1      45.807   7.119  12.755  0.00  0.00    +0.000 A 
ATOM     16  C   UNL     1      46.012   8.442  13.186  0.00  0.00    +0.000 A 
ATOM     17  C   UNL     1      45.338   9.455  12.504  0.00  0.00    +0.000 A 
ATOM     18  C   UNL     1      44.542   9.114  11.416  0.00  0.00    +0.000 A 
ATOM     19  N   UNL     1      44.309   7.863  10.960  0.00  0.00    +0.000 NA
ATOM     20  C   UNL     1      44.946   6.912  11.679  0.00  0.00    +0.000 A 
ENDBRANCH  11  12
ENDBRANCH   5  11
TORSDOF 4
ENDMDL
MODEL 8
REMARK VINA RESULT:    -6.378      2.067      5.491
REMARK INTER + INTRA:          -8.050
REMARK INTER:                  -7.689
REMARK INTRA:                  -0.360
REMARK UNBOUND:                -0.367
REMARK  Name = 
REMARK  4 active torsions:
REMARK  status: ('A' for Active; 'I' for Inactive)
REMARK    1  A    between atoms: N_1  and  C_2
REMARK    2  A    between atoms: C_2  and  C_3
REMARK    3  A    between atoms: C_7  and  C_8
REMARK    4  A    between atoms: C_8  and  N_9
REMARK                            x       y       z     vdW  Elec       q    Type
REMARK                         _______ _______ _______ _____ _____    ______ ____
ROOT
ATOM      1  C   UNL     1      48.415   7.285  12.252  0.00  0.00    +0.000 A 
ATOM      2  C   UNL     1      48.568   6.529  13.409  0.00  0.00    +0.000 A 
ATOM      3  N   UNL     1      47.629   5.700  13.915  0.00  0.00    +0.000 NA
ATOM      4  C   UNL     1      46.465   5.611  13.231  0.00  0.00    +0.000 A 
ATOM      5  C   UNL     1      46.181   6.324  12.072  0.00  0.00    +0.000 A 
ATOM      6  C   UNL     1      47.196   7.154  11.567  0.00  0.00    +0.000 A 
ENDROOT
BRANCH   1   7
ATOM      7  C   UNL     1      49.560   8.127  11.758  0.00  0.00    +0.000 C 
BRANCH   7   8
ATOM      8  N   UNL     1      50.756   7.353  11.430  0.00  0.00    +0.000 NA
ATOM      9  H   UNL     1      50.928   7.416  10.428  0.00  0.00    +0.000 HD
ATOM     10  H   UNL     1      50.572   6.368  11.621  0.00  0.00    +0.000 HD
ENDBRANCH   7   8
ENDBRANCH   1   7
BRANCH   5  11
ATOM     11  C   UNL     1      44.818   6.241  11.447  0.00  0.00    +0.000 C 
BRANCH  11  12
ATOM     12  N   UNL     1      44.450   4.903  11.012  0.00  0.00    +0.000 N 
ATOM     13  C   UNL     1      43.782   3.985  11.791  0.00  0.00    +0.000 A 
ATOM     14  C   UNL     1      43.690   2.807  11.079  0.00  0.00    +0.000 A 
ATOM     15  C   UNL     1      44.475   2.960   9.910  0.00  0.00    +0.000 A 
ATOM     16  C   UNL     1      44.911   2.098   8.888  0.00  0.00    +0.000 A 
ATOM     17  C   UNL     1      45.741   2.633   7.903  0.00  0.00    +0.000 A 
ATOM     18  C   UNL     1      46.056   3.985   7.955  0.00  0.00    +0.000 A 
ATOM     19  N   UNL     1      45.667   4.859   8.911  0.00  0.00    +0.000 NA
ATOM     20  C   UNL     1      44.902   4.287   9.868  0.00  0.00    +0.000 A 
ENDBRANCH  11  12
ENDBRANCH   5  11
TORSDOF 4
ENDMDL
MODEL 9
REMARK VINA RESULT:    -6.272      1.866      3.113
REMARK INTER + INTRA:          -7.922
REMARK INTER:                  -7.499
REMARK INTRA:                  -0.424
REMARK UNBOUND:                -0.367
REMARK  Name = 
REMARK  4 active torsions:
REMARK  status: ('A' for Active; 'I' for Inactive)
REMARK    1  A    between atoms: N_1  and  C_2
REMARK    2  A    between atoms: C_2  and  C_3
REMARK    3  A    between atoms: C_7  and  C_8
REMARK    4  A    between atoms: C_8  and  N_9
REMARK                            x       y       z     vdW  Elec       q    Type
REMARK                         _______ _______ _______ _____ _____    ______ ____
ROOT
ATOM      1  C   UNL     1      45.359   3.392   8.619  0.00  0.00    +0.000 A 
ATOM      2  C   UNL     1      44.498   2.435   9.144  0.00  0.00    +0.000 A 
ATOM      3  N   UNL     1      43.800   2.576  10.293  0.00  0.00    +0.000 NA
ATOM      4  C   UNL     1      43.963   3.740  10.963  0.00  0.00    +0.000 A 
ATOM      5  C   UNL     1      44.804   4.768  10.555  0.00  0.00    +0.000 A 
ATOM      6  C   UNL     1      45.490   4.590   9.342  0.00  0.00    +0.000 A 
ENDROOT
BRANCH   1   7
ATOM      7  C   UNL     1      46.034   3.140   7.298  0.00  0.00    +0.000 C 
BRANCH   7   8
ATOM      8  N   UNL     1      46.820   4.275   6.817  0.00  0.00    +0.000 NA
ATOM      9  H   UNL     1      47.753   4.227   7.220  0.00  0.00    +0.000 HD
ATOM     10  H   UNL     1      46.404   5.136   7.172  0.00  0.00    +0.000 HD
ENDBRANCH   7   8
ENDBRANCH   1   7
BRANCH   5  11
ATOM     11  C   UNL     1      45.001   5.975  11.426  0.00  0.00    +0.000 C 
BRANCH  11  12
ATOM     12  N   UNL     1      46.083   5.837  12.388  0.00  0.00    +0.000 N 
ATOM     13  C   UNL     1      45.978   5.171  13.590  0.00  0.00    +0.000 A 
ATOM     14  C   UNL     1      47.168   5.327  14.270  0.00  0.00    +0.000 A 
ATOM     15  C   UNL     1      47.951   6.256  13.540  0.00  0.00    +0.000 A 
ATOM     16  C   UNL     1      49.156   6.940  13.777  0.00  0.00    +0.000 A 
ATOM     17  C   UNL     1      49.590   7.840  12.804  0.00  0.00    +0.000 A 
ATOM     18  C   UNL     1      48.841   7.983  11.643  0.00  0.00    +0.000 A 
ATOM     19  N   UNL     1      47.677   7.354  11.362  0.00  0.00    +0.000 NA
ATOM     20  C   UNL     1      47.273   6.526  12.351  0.00  0.00    +0.000 A 
ENDBRANCH  11  12
ENDBRANCH   5  11
TORSDOF 4
ENDMDL
