MODEL 1
REMARK VINA RESULT:    -6.901      0.000      0.000
REMARK INTER + INTRA:          -9.486
REMARK INTER:                  -8.515
REMARK INTRA:                  -0.971
REMARK UNBOUND:                -0.971
REMARK  Name = 
REMARK  7 active torsions:
REMARK  status: ('A' for Active; 'I' for Inactive)
REMARK    1  A    between atoms: C_1  and  C_2
REMARK    2  A    between atoms: C_9  and  C_10
REMARK    3  A    between atoms: C_10  and  C_11
REMARK    4  A    between atoms: C_10  and  C_12
REMARK    5  A    between atoms: C_12  and  N_13
REMARK    6  A    between atoms: C_18  and  C_19
REMARK    7  A    between atoms: C_25  and  C_26
REMARK                            x       y       z     vdW  Elec       q    Type
REMARK                         _______ _______ _______ _____ _____    ______ ____
ROOT
ATOM      1  C   UNL     1      49.506   8.181  15.306  0.00  0.00    +0.000 C 
ATOM      2  C   UNL     1      48.466   9.160  15.882  0.00  0.00    +0.000 C 
ENDROOT
BRANCH   1  11
ATOM      3  C   UNL     1      44.427   4.199  10.053  0.00  0.00    +0.000 C 
ATOM      4  C   UNL     1      44.684   5.233  11.137  0.00  0.00    +0.000 C 
ATOM      5  C   UNL     1      45.942   6.067  10.871  0.00  0.00    +0.000 C 
ATOM      6  N   UNL     1      46.292   6.575  12.184  0.00  0.00    +0.000 N 
ATOM      7  C   UNL     1      47.539   7.118  12.381  0.00  0.00    +0.000 A 
ATOM      8  N   UNL     1      48.333   7.319  11.322  0.00  0.00    +0.000 NA
ATOM      9  C   UNL     1      49.561   7.813  11.556  0.00  0.00    +0.000 A 
ATOM     10  C   UNL     1      50.030   8.123  12.806  0.00  0.00    +0.000 A 
ATOM     11  C   UNL     1      49.160   7.911  13.852  0.00  0.00    +0.000 A 
ATOM     12  N   UNL     1      47.915   7.421  13.636  0.00  0.00    +0.000 NA
ATOM     13  C   UNL     1      45.643   5.843  13.261  0.00  0.00    +0.000 C 
ATOM     14  C   UNL     1      44.917   4.679  12.557  0.00  0.00    +0.000 C 
ATOM     15  C   UNL     1      45.741   3.392  12.616  0.00  0.00    +0.000 C 
ENDBRANCH   1  11
BRANCH   1  16
ATOM     16  C   UNL     1      49.593   6.955  16.240  0.00  0.00    +0.000 C 
BRANCH  16  17
ATOM     17  N   UNL     1      48.284   6.318  16.437  0.00  0.00    +0.000 N 
ATOM     18  C   UNL     1      48.344   4.965  16.813  0.00  0.00    +0.000 A 
ATOM     19  C   UNL     1      47.143   4.296  17.059  0.00  0.00    +0.000 A 
ATOM     20  C   UNL     1      47.161   2.951  17.427  0.00  0.00    +0.000 A 
ATOM     21  C   UNL     1      48.379   2.301  17.549  0.00  0.00    +0.000 A 
ATOM     22  C   UNL     1      49.528   3.039  17.311  0.00  0.00    +0.000 A 
ATOM     23  N   UNL     1      49.534   4.355  16.957  0.00  0.00    +0.000 NA
ATOM     24  H   UNL     1      47.673   6.412  15.628  0.00  0.00    +0.000 HD
BRANCH  22  25
ATOM     25  C   UNL     1      50.868   2.380  17.426  0.00  0.00    +0.000 C 
ATOM     26  N   UNL     1      51.759   3.008  18.256  0.00  0.00    +0.000 N 
ATOM     27  O   UNL     1      51.159   1.360  16.822  0.00  0.00    +0.000 OA
ATOM     28  H   UNL     1      51.482   3.856  18.738  0.00  0.00    +0.000 HD
ATOM     29  H   UNL     1      52.686   2.626  18.372  0.00  0.00    +0.000 HD
ENDBRANCH  22  25
ENDBRANCH  16  17
ENDBRANCH   1  16
TORSDOF 4
ENDMDL
MODEL 2
REMARK VINA RESULT:    -6.825      2.860      6.999
REMARK INTER + INTRA:          -9.392
REMARK INTER:                  -8.692
REMARK INTRA:                  -0.700
REMARK UNBOUND:                -0.971
REMARK  Name = 
REMARK  7 active torsions:
REMARK  status: ('A' for Active; 'I' for Inactive)
REMARK    1  A    between atoms: C_1  and  C_2
REMARK    2  A    between atoms: C_9  and  C_10
REMARK    3  A    between atoms: C_10  and  C_11
REMARK    4  A    between atoms: C_10  and  C_12
REMARK    5  A    between atoms: C_12  and  N_13
REMARK    6  A    between atoms: C_18  and  C_19
REMARK    7  A    between atoms: C_25  and  C_26
REMARK                            x       y       z     vdW  Elec       q    Type
REMARK                         _______ _______ _______ _____ _____    ______ ____
ROOT
ATOM      1  C   UNL     1      48.482   7.636  12.979  0.00  0.00    +0.000 C 
ATOM      2  C   UNL     1      49.281   8.175  11.778  0.00  0.00    +0.000 C 
ENDROOT
BRANCH   1  11
ATOM      3  C   UNL     1      49.417   4.723  20.717  0.00  0.00    +0.000 C 
ATOM      4  C   UNL     1      49.153   4.516  19.235  0.00  0.00    +0.000 C 
ATOM      5  C   UNL     1      50.111   5.319  18.347  0.00  0.00    +0.000 C 
ATOM      6  N   UNL     1      49.401   5.411  17.086  0.00  0.00    +0.000 N 
ATOM      7  C   UNL     1      49.823   6.319  16.145  0.00  0.00    +0.000 A 
ATOM      8  N   UNL     1      50.975   6.972  16.346  0.00  0.00    +0.000 NA
ATOM      9  C   UNL     1      51.338   7.882  15.426  0.00  0.00    +0.000 A 
ATOM     10  C   UNL     1      50.600   8.166  14.306  0.00  0.00    +0.000 A 
ATOM     11  C   UNL     1      49.435   7.450  14.147  0.00  0.00    +0.000 A 
ATOM     12  N   UNL     1      49.056   6.521  15.059  0.00  0.00    +0.000 NA
ATOM     13  C   UNL     1      47.983   5.111  17.215  0.00  0.00    +0.000 C 
ATOM     14  C   UNL     1      47.759   4.940  18.732  0.00  0.00    +0.000 C 
ATOM     15  C   UNL     1      47.213   6.222  19.362  0.00  0.00    +0.000 C 
ENDBRANCH   1  11
BRANCH   1  16
ATOM     16  C   UNL     1      47.693   6.391  12.520  0.00  0.00    +0.000 C 
BRANCH  16  17
ATOM     17  N   UNL     1      46.379   6.299  13.172  0.00  0.00    +0.000 N 
ATOM     18  C   UNL     1      45.372   5.725  12.378  0.00  0.00    +0.000 A 
ATOM     19  C   UNL     1      44.103   5.565  12.938  0.00  0.00    +0.000 A 
ATOM     20  C   UNL     1      43.075   5.007  12.179  0.00  0.00    +0.000 A 
ATOM     21  C   UNL     1      43.335   4.613  10.876  0.00  0.00    +0.000 A 
ATOM     22  C   UNL     1      44.627   4.783  10.399  0.00  0.00    +0.000 A 
ATOM     23  N   UNL     1      45.647   5.319  11.125  0.00  0.00    +0.000 NA
ATOM     24  H   UNL     1      46.053   7.194  13.530  0.00  0.00    +0.000 HD
BRANCH  22  25
ATOM     25  C   UNL     1      44.957   4.375   8.996  0.00  0.00    +0.000 C 
ATOM     26  N   UNL     1      44.122   3.438   8.447  0.00  0.00    +0.000 N 
ATOM     27  O   UNL     1      45.905   4.834   8.379  0.00  0.00    +0.000 OA
ATOM     28  H   UNL     1      43.347   3.078   8.993  0.00  0.00    +0.000 HD
ATOM     29  H   UNL     1      44.293   3.108   7.509  0.00  0.00    +0.000 HD
ENDBRANCH  22  25
ENDBRANCH  16  17
ENDBRANCH   1  16
TORSDOF 4
ENDMDL
MODEL 3
REMARK VINA RESULT:    -6.542      1.459      2.120
REMARK INTER + INTRA:          -9.043
REMARK INTER:                  -8.519
REMARK INTRA:                  -0.524
REMARK UNBOUND:                -0.971
REMARK  Name = 
REMARK  7 active torsions:
REMARK  status: ('A' for Active; 'I' for Inactive)
REMARK    1  A    between atoms: C_1  and  C_2
REMARK    2  A    between atoms: C_9  and  C_10
REMARK    3  A    between atoms: C_10  and  C_11
REMARK    4  A    between atoms: C_10  and  C_12
REMARK    5  A    between atoms: C_12  and  N_13
REMARK    6  A    between atoms: C_18  and  C_19
REMARK    7  A    between atoms: C_25  and  C_26
REMARK                            x       y       z     vdW  Elec       q    Type
REMARK                         _______ _______ _______ _____ _____    ______ ____
ROOT
ATOM      1  C   UNL     1      49.374   7.839  15.375  0.00  0.00    +0.000 C 
ATOM      2  C   UNL     1      48.286   8.673  16.076  0.00  0.00    +0.000 C 
ENDROOT
BRANCH   1  11
ATOM      3  C   UNL     1      44.129   4.218  10.025  0.00  0.00    +0.000 C 
ATOM      4  C   UNL     1      44.421   5.178  11.167  0.00  0.00    +0.000 C 
ATOM      5  C   UNL     1      45.673   6.027  10.918  0.00  0.00    +0.000 C 
ATOM      6  N   UNL     1      46.063   6.446  12.251  0.00  0.00    +0.000 N 
ATOM      7  C   UNL     1      47.316   6.974  12.447  0.00  0.00    +0.000 A 
ATOM      8  N   UNL     1      48.079   7.244  11.380  0.00  0.00    +0.000 NA
ATOM      9  C   UNL     1      49.315   7.720  11.608  0.00  0.00    +0.000 A 
ATOM     10  C   UNL     1      49.822   7.946  12.862  0.00  0.00    +0.000 A 
ATOM     11  C   UNL     1      48.983   7.666  13.918  0.00  0.00    +0.000 A 
ATOM     12  N   UNL     1      47.731   7.193  13.707  0.00  0.00    +0.000 NA
ATOM     13  C   UNL     1      45.444   5.645  13.297  0.00  0.00    +0.000 C 
ATOM     14  C   UNL     1      44.694   4.531  12.539  0.00  0.00    +0.000 C 
ATOM     15  C   UNL     1      45.516   3.242  12.488  0.00  0.00    +0.000 C 
ENDBRANCH   1  11
BRANCH   1  16
ATOM     16  C   UNL     1      49.603   6.549  16.192  0.00  0.00    +0.000 C 
BRANCH  16  17
ATOM     17  N   UNL     1      50.731   6.679  17.123  0.00  0.00    +0.000 N 
ATOM     18  C   UNL     1      51.280   5.457  17.550  0.00  0.00    +0.000 A 
ATOM     19  C   UNL     1      52.382   5.493  18.406  0.00  0.00    +0.000 A 
ATOM     20  C   UNL     1      52.950   4.302  18.857  0.00  0.00    +0.000 A 
ATOM     21  C   UNL     1      52.409   3.096  18.439  0.00  0.00    +0.000 A 
ATOM     22  C   UNL     1      51.330   3.143  17.570  0.00  0.00    +0.000 A 
ATOM     23  N   UNL     1      50.764   4.294  17.112  0.00  0.00    +0.000 NA
ATOM     24  H   UNL     1      50.507   7.246  17.938  0.00  0.00    +0.000 HD
BRANCH  22  25
ATOM     25  C   UNL     1      50.708   1.866  17.093  0.00  0.00    +0.000 C 
ATOM     26  N   UNL     1      51.218   0.723  17.652  0.00  0.00    +0.000 N 
ATOM     27  O   UNL     1      49.816   1.834  16.260  0.00  0.00    +0.000 OA
ATOM     28  H   UNL     1      51.961   0.790  18.337  0.00  0.00    +0.000 HD
ATOM     29  H   UNL     1      50.854  -0.174  17.367  0.00  0.00    +0.000 HD
ENDBRANCH  22  25
ENDBRANCH  16  17
ENDBRANCH   1  16
TORSDOF 4
ENDMDL
MODEL 4
REMARK VINA RESULT:    -6.501      2.031      3.916
REMARK INTER + INTRA:          -8.992
REMARK INTER:                  -8.454
REMARK INTRA:                  -0.537
REMARK UNBOUND:                -0.971
REMARK  Name = 
REMARK  7 active torsions:
REMARK  status: ('A' for Active; 'I' for Inactive)
REMARK    1  A    between atoms: C_1  and  C_2
REMARK    2  A    between atoms: C_9  and  C_10
REMARK    3  A    between atoms: C_10  and  C_11
REMARK    4  A    between atoms: C_10  and  C_12
REMARK    5  A    between atoms: C_12  and  N_13
REMARK    6  A    between atoms: C_18  and  C_19
REMARK    7  A    between atoms: C_25  and  C_26
REMARK                            x       y       z     vdW  Elec       q    Type
REMARK                         _______ _______ _______ _____ _____    ______ ____
ROOT
ATOM      1  C   UNL     1      49.919   6.392  17.148  0.00  0.00    +0.000 C 
ATOM      2  C   UNL     1      49.450   7.857  17.092  0.00  0.00    +0.000 C 
ENDROOT
BRANCH   1  11
ATOM      3  C   UNL     1      44.259   5.122  11.181  0.00  0.00    +0.000 C 
ATOM      4  C   UNL     1      45.699   5.215  11.658  0.00  0.00    +0.000 C 
ATOM      5  C   UNL     1      45.927   4.489  12.989  0.00  0.00    +0.000 C 
ATOM      6  N   UNL     1      47.131   5.111  13.508  0.00  0.00    +0.000 N 
ATOM      7  C   UNL     1      47.467   4.923  14.827  0.00  0.00    +0.000 A 
ATOM      8  N   UNL     1      46.772   4.037  15.552  0.00  0.00    +0.000 NA
ATOM      9  C   UNL     1      47.100   3.908  16.849  0.00  0.00    +0.000 A 
ATOM     10  C   UNL     1      48.100   4.623  17.455  0.00  0.00    +0.000 A 
ATOM     11  C   UNL     1      48.790   5.505  16.653  0.00  0.00    +0.000 A 
ATOM     12  N   UNL     1      48.479   5.643  15.340  0.00  0.00    +0.000 NA
ATOM     13  C   UNL     1      47.434   6.378  12.859  0.00  0.00    +0.000 C 
ATOM     14  C   UNL     1      46.230   6.637  11.931  0.00  0.00    +0.000 C 
ATOM     15  C   UNL     1      45.220   7.584  12.581  0.00  0.00    +0.000 C 
ENDBRANCH   1  11
BRANCH   1  16
ATOM     16  C   UNL     1      50.456   6.105  18.567  0.00  0.00    +0.000 C 
BRANCH  16  17
ATOM     17  N   UNL     1      51.925   6.062  18.602  0.00  0.00    +0.000 N 
ATOM     18  C   UNL     1      52.481   4.807  18.302  0.00  0.00    +0.000 A 
ATOM     19  C   UNL     1      53.872   4.692  18.276  0.00  0.00    +0.000 A 
ATOM     20  C   UNL     1      54.461   3.461  17.990  0.00  0.00    +0.000 A 
ATOM     21  C   UNL     1      53.649   2.368  17.729  0.00  0.00    +0.000 A 
ATOM     22  C   UNL     1      52.277   2.568  17.751  0.00  0.00    +0.000 A 
ATOM     23  N   UNL     1      51.680   3.763  18.022  0.00  0.00    +0.000 NA
ATOM     24  H   UNL     1      52.307   6.395  19.485  0.00  0.00    +0.000 HD
BRANCH  22  25
ATOM     25  C   UNL     1      51.357   1.417  17.479  0.00  0.00    +0.000 C 
ATOM     26  N   UNL     1      51.675   0.250  18.122  0.00  0.00    +0.000 N 
ATOM     27  O   UNL     1      50.395   1.501  16.733  0.00  0.00    +0.000 OA
ATOM     28  H   UNL     1      52.485   0.219  18.730  0.00  0.00    +0.000 HD
ATOM     29  H   UNL     1      51.105  -0.570  17.975  0.00  0.00    +0.000 HD
ENDBRANCH  22  25
ENDBRANCH  16  17
ENDBRANCH   1  16
TORSDOF 4
ENDMDL
MODEL 5
REMARK VINA RESULT:    -6.356      3.026      7.639
REMARK INTER + INTRA:          -8.813
REMARK INTER:                  -8.176
REMARK INTRA:                  -0.637
REMARK UNBOUND:                -0.971
REMARK  Name = 
REMARK  7 active torsions:
REMARK  status: ('A' for Active; 'I' for Inactive)
REMARK    1  A    between atoms: C_1  and  C_2
REMARK    2  A    between atoms: C_9  and  C_10
REMARK    3  A    between atoms: C_10  and  C_11
REMARK    4  A    between atoms: C_10  and  C_12
REMARK    5  A    between atoms: C_12  and  N_13
REMARK    6  A    between atoms: C_18  and  C_19
REMARK    7  A    between atoms: C_25  and  C_26
REMARK                            x       y       z     vdW  Elec       q    Type
REMARK                         _______ _______ _______ _____ _____    ______ ____
ROOT
ATOM      1  C   UNL     1      47.808   3.803  17.671  0.00  0.00    +0.000 C 
ATOM      2  C   UNL     1      47.655   5.141  18.417  0.00  0.00    +0.000 C 
ENDROOT
BRANCH   1  11
ATOM      3  C   UNL     1      55.557   6.708  16.791  0.00  0.00    +0.000 C 
ATOM      4  C   UNL     1      54.247   6.607  17.555  0.00  0.00    +0.000 C 
ATOM      5  C   UNL     1      53.723   5.169  17.640  0.00  0.00    +0.000 C 
ATOM      6  N   UNL     1      52.307   5.343  17.904  0.00  0.00    +0.000 N 
ATOM      7  C   UNL     1      51.459   4.273  17.743  0.00  0.00    +0.000 A 
ATOM      8  N   UNL     1      51.982   3.061  17.514  0.00  0.00    +0.000 NA
ATOM      9  C   UNL     1      51.124   2.046  17.321  0.00  0.00    +0.000 A 
ATOM     10  C   UNL     1      49.760   2.185  17.353  0.00  0.00    +0.000 A 
ATOM     11  C   UNL     1      49.285   3.452  17.610  0.00  0.00    +0.000 A 
ATOM     12  N   UNL     1      50.134   4.488  17.816  0.00  0.00    +0.000 NA
ATOM     13  C   UNL     1      51.839   6.687  17.601  0.00  0.00    +0.000 C 
ATOM     14  C   UNL     1      53.057   7.386  16.961  0.00  0.00    +0.000 C 
ATOM     15  C   UNL     1      52.973   7.364  15.434  0.00  0.00    +0.000 C 
ENDBRANCH   1  11
BRANCH   1  16
ATOM     16  C   UNL     1      47.062   3.906  16.324  0.00  0.00    +0.000 C 
BRANCH  16  17
ATOM     17  N   UNL     1      47.512   5.058  15.530  0.00  0.00    +0.000 N 
ATOM     18  C   UNL     1      46.938   5.146  14.250  0.00  0.00    +0.000 A 
ATOM     19  C   UNL     1      47.283   6.234  13.447  0.00  0.00    +0.000 A 
ATOM     20  C   UNL     1      46.741   6.352  12.167  0.00  0.00    +0.000 A 
ATOM     21  C   UNL     1      45.859   5.382  11.716  0.00  0.00    +0.000 A 
ATOM     22  C   UNL     1      45.548   4.344  12.582  0.00  0.00    +0.000 A 
ATOM     23  N   UNL     1      46.060   4.214  13.837  0.00  0.00    +0.000 NA
ATOM     24  H   UNL     1      48.525   5.108  15.446  0.00  0.00    +0.000 HD
BRANCH  22  25
ATOM     25  C   UNL     1      44.602   3.271  12.139  0.00  0.00    +0.000 C 
ATOM     26  N   UNL     1      44.826   2.776  10.881  0.00  0.00    +0.000 N 
ATOM     27  O   UNL     1      43.688   2.863  12.839  0.00  0.00    +0.000 OA
ATOM     28  H   UNL     1      45.593   3.143  10.329  0.00  0.00    +0.000 HD
ATOM     29  H   UNL     1      44.219   2.058  10.514  0.00  0.00    +0.000 HD
ENDBRANCH  22  25
ENDBRANCH  16  17
ENDBRANCH   1  16
TORSDOF 4
ENDMDL
MODEL 6
REMARK VINA RESULT:    -6.303      2.535      6.781
REMARK INTER + INTRA:          -8.748
REMARK INTER:                  -8.168
REMARK INTRA:                  -0.579
REMARK UNBOUND:                -0.971
REMARK  Name = 
REMARK  7 active torsions:
REMARK  status: ('A' for Active; 'I' for Inactive)
REMARK    1  A    between atoms: C_1  and  C_2
REMARK    2  A    between atoms: C_9  and  C_10
REMARK    3  A    between atoms: C_10  and  C_11
REMARK    4  A    between atoms: C_10  and  C_12
REMARK    5  A    between atoms: C_12  and  N_13
REMARK    6  A    between atoms: C_18  and  C_19
REMARK    7  A    between atoms: C_25  and  C_26
REMARK                            x       y       z     vdW  Elec       q    Type
REMARK                         _______ _______ _______ _____ _____    ______ ____
ROOT
ATOM      1  C   UNL     1      47.636   8.054  12.844  0.00  0.00    +0.000 C 
ATOM      2  C   UNL     1      48.402   8.541  11.600  0.00  0.00    +0.000 C 
ENDROOT
BRANCH   1  11
ATOM      3  C   UNL     1      49.258   4.444  20.164  0.00  0.00    +0.000 C 
ATOM      4  C   UNL     1      49.031   4.376  18.663  0.00  0.00    +0.000 C 
ATOM      5  C   UNL     1      49.782   5.476  17.903  0.00  0.00    +0.000 C 
ATOM      6  N   UNL     1      49.057   5.573  16.650  0.00  0.00    +0.000 N 
ATOM      7  C   UNL     1      49.262   6.665  15.841  0.00  0.00    +0.000 A 
ATOM      8  N   UNL     1      50.246   7.521  16.145  0.00  0.00    +0.000 NA
ATOM      9  C   UNL     1      50.393   8.598  15.356  0.00  0.00    +0.000 A 
ATOM     10  C   UNL     1      49.600   8.857  14.268  0.00  0.00    +0.000 A 
ATOM     11  C   UNL     1      48.617   7.931  13.997  0.00  0.00    +0.000 A 
ATOM     12  N   UNL     1      48.459   6.833  14.776  0.00  0.00    +0.000 NA
ATOM     13  C   UNL     1      47.740   4.958  16.714  0.00  0.00    +0.000 C 
ATOM     14  C   UNL     1      47.574   4.549  18.192  0.00  0.00    +0.000 C 
ATOM     15  C   UNL     1      46.767   5.589  18.970  0.00  0.00    +0.000 C 
ENDBRANCH   1  11
BRANCH   1  16
ATOM     16  C   UNL     1      46.846   6.783  12.465  0.00  0.00    +0.000 C 
BRANCH  16  17
ATOM     17  N   UNL     1      46.822   6.561  11.013  0.00  0.00    +0.000 N 
ATOM     18  C   UNL     1      45.936   5.555  10.590  0.00  0.00    +0.000 A 
ATOM     19  C   UNL     1      45.824   5.309   9.220  0.00  0.00    +0.000 A 
ATOM     20  C   UNL     1      44.961   4.314   8.762  0.00  0.00    +0.000 A 
ATOM     21  C   UNL     1      44.221   3.587   9.681  0.00  0.00    +0.000 A 
ATOM     22  C   UNL     1      44.370   3.907  11.023  0.00  0.00    +0.000 A 
ATOM     23  N   UNL     1      45.201   4.878  11.491  0.00  0.00    +0.000 NA
ATOM     24  H   UNL     1      47.746   6.375  10.627  0.00  0.00    +0.000 HD
BRANCH  22  25
ATOM     25  C   UNL     1      43.593   3.147  12.055  0.00  0.00    +0.000 C 
ATOM     26  N   UNL     1      43.618   3.683  13.316  0.00  0.00    +0.000 N 
ATOM     27  O   UNL     1      42.985   2.120  11.802  0.00  0.00    +0.000 OA
ATOM     28  H   UNL     1      44.138   4.536  13.487  0.00  0.00    +0.000 HD
ATOM     29  H   UNL     1      43.126   3.216  14.063  0.00  0.00    +0.000 HD
ENDBRANCH  22  25
ENDBRANCH  16  17
ENDBRANCH   1  16
TORSDOF 4
ENDMDL
MODEL 7
REMARK VINA RESULT:    -6.302      2.966      6.457
REMARK INTER + INTRA:          -8.747
REMARK INTER:                  -7.847
REMARK INTRA:                  -0.900
REMARK UNBOUND:                -0.971
REMARK  Name = 
REMARK  7 active torsions:
REMARK  status: ('A' for Active; 'I' for Inactive)
REMARK    1  A    between atoms: C_1  and  C_2
REMARK    2  A    between atoms: C_9  and  C_10
REMARK    3  A    between atoms: C_10  and  C_11
REMARK    4  A    between atoms: C_10  and  C_12
REMARK    5  A    between atoms: C_12  and  N_13
REMARK    6  A    between atoms: C_18  and  C_19
REMARK    7  A    between atoms: C_25  and  C_26
REMARK                            x       y       z     vdW  Elec       q    Type
REMARK                         _______ _______ _______ _____ _____    ______ ____
ROOT
ATOM      1  C   UNL     1      47.673   3.976  15.347  0.00  0.00    +0.000 C 
ATOM      2  C   UNL     1      46.865   3.625  16.610  0.00  0.00    +0.000 C 
ENDROOT
BRANCH   1  11
ATOM      3  C   UNL     1      50.715  10.733  11.560  0.00  0.00    +0.000 C 
ATOM      4  C   UNL     1      49.574   9.782  11.882  0.00  0.00    +0.000 C 
ATOM      5  C   UNL     1      49.518   9.410  13.368  0.00  0.00    +0.000 C 
ATOM      6  N   UNL     1      48.768   8.168  13.375  0.00  0.00    +0.000 N 
ATOM      7  C   UNL     1      48.779   7.385  14.504  0.00  0.00    +0.000 A 
ATOM      8  N   UNL     1      49.338   7.867  15.622  0.00  0.00    +0.000 NA
ATOM      9  C   UNL     1      49.369   7.060  16.695  0.00  0.00    +0.000 A 
ATOM     10  C   UNL     1      48.857   5.789  16.705  0.00  0.00    +0.000 A 
ATOM     11  C   UNL     1      48.279   5.356  15.531  0.00  0.00    +0.000 A 
ATOM     12  N   UNL     1      48.232   6.159  14.440  0.00  0.00    +0.000 NA
ATOM     13  C   UNL     1      48.704   7.542  12.063  0.00  0.00    +0.000 C 
ATOM     14  C   UNL     1      49.614   8.414  11.173  0.00  0.00    +0.000 C 
ATOM     15  C   UNL     1      51.009   7.803  11.037  0.00  0.00    +0.000 C 
ENDBRANCH   1  11
BRANCH   1  16
ATOM     16  C   UNL     1      46.766   3.774  14.114  0.00  0.00    +0.000 C 
BRANCH  16  17
ATOM     17  N   UNL     1      45.563   4.615  14.170  0.00  0.00    +0.000 N 
ATOM     18  C   UNL     1      44.830   4.666  12.972  0.00  0.00    +0.000 A 
ATOM     19  C   UNL     1      43.650   5.412  12.953  0.00  0.00    +0.000 A 
ATOM     20  C   UNL     1      42.899   5.494  11.781  0.00  0.00    +0.000 A 
ATOM     21  C   UNL     1      43.338   4.822  10.651  0.00  0.00    +0.000 A 
ATOM     22  C   UNL     1      44.507   4.083  10.755  0.00  0.00    +0.000 A 
ATOM     23  N   UNL     1      45.252   3.984  11.891  0.00  0.00    +0.000 NA
ATOM     24  H   UNL     1      45.759   5.564  14.482  0.00  0.00    +0.000 HD
BRANCH  22  25
ATOM     25  C   UNL     1      45.023   3.342   9.560  0.00  0.00    +0.000 C 
ATOM     26  N   UNL     1      44.874   1.981   9.607  0.00  0.00    +0.000 N 
ATOM     27  O   UNL     1      45.548   3.901   8.611  0.00  0.00    +0.000 OA
ATOM     28  H   UNL     1      44.436   1.553  10.414  0.00  0.00    +0.000 HD
ATOM     29  H   UNL     1      45.210   1.417   8.840  0.00  0.00    +0.000 HD
ENDBRANCH  22  25
ENDBRANCH  16  17
ENDBRANCH   1  16
TORSDOF 4
ENDMDL
MODEL 8
REMARK VINA RESULT:    -6.286      2.775      5.550
REMARK INTER + INTRA:          -8.727
REMARK INTER:                  -7.358
REMARK INTRA:                  -1.369
REMARK UNBOUND:                -0.971
REMARK  Name = 
REMARK  7 active torsions:
REMARK  status: ('A' for Active; 'I' for Inactive)
REMARK    1  A    between atoms: C_1  and  C_2
REMARK    2  A    between atoms: C_9  and  C_10
REMARK    3  A    between atoms: C_10  and  C_11
REMARK    4  A    between atoms: C_10  and  C_12
REMARK    5  A    between atoms: C_12  and  N_13
REMARK    6  A    between atoms: C_18  and  C_19
REMARK    7  A    between atoms: C_25  and  C_26
REMARK                            x       y       z     vdW  Elec       q    Type
REMARK                         _______ _______ _______ _____ _____    ______ ____
ROOT
ATOM      1  C   UNL     1      49.921   6.513  16.830  0.00  0.00    +0.000 C 
ATOM      2  C   UNL     1      51.145   5.648  17.183  0.00  0.00    +0.000 C 
ENDROOT
BRANCH   1  11
ATOM      3  C   UNL     1      44.026   4.767  11.222  0.00  0.00    +0.000 C 
ATOM      4  C   UNL     1      45.484   4.894  11.632  0.00  0.00    +0.000 C 
ATOM      5  C   UNL     1      45.765   4.282  13.009  0.00  0.00    +0.000 C 
ATOM      6  N   UNL     1      46.989   4.941  13.425  0.00  0.00    +0.000 N 
ATOM      7  C   UNL     1      47.377   4.863  14.741  0.00  0.00    +0.000 A 
ATOM      8  N   UNL     1      46.711   4.045  15.566  0.00  0.00    +0.000 NA
ATOM      9  C   UNL     1      47.091   4.025  16.855  0.00  0.00    +0.000 A 
ATOM     10  C   UNL     1      48.115   4.784  17.358  0.00  0.00    +0.000 A 
ATOM     11  C   UNL     1      48.773   5.592  16.456  0.00  0.00    +0.000 A 
ATOM     12  N   UNL     1      48.410   5.620  15.150  0.00  0.00    +0.000 NA
ATOM     13  C   UNL     1      47.267   6.146  12.659  0.00  0.00    +0.000 C 
ATOM     14  C   UNL     1      46.026   6.331  11.762  0.00  0.00    +0.000 C 
ATOM     15  C   UNL     1      45.045   7.334  12.369  0.00  0.00    +0.000 C 
ENDBRANCH   1  11
BRANCH   1  16
ATOM     16  C   UNL     1      50.348   7.556  15.774  0.00  0.00    +0.000 C 
BRANCH  16  17
ATOM     17  N   UNL     1      49.245   8.455  15.408  0.00  0.00    +0.000 N 
ATOM     18  C   UNL     1      49.252   8.872  14.066  0.00  0.00    +0.000 A 
ATOM     19  C   UNL     1      48.214   9.697  13.628  0.00  0.00    +0.000 A 
ATOM     20  C   UNL     1      48.190  10.138  12.305  0.00  0.00    +0.000 A 
ATOM     21  C   UNL     1      49.201   9.742  11.443  0.00  0.00    +0.000 A 
ATOM     22  C   UNL     1      50.183   8.903  11.947  0.00  0.00    +0.000 A 
ATOM     23  N   UNL     1      50.223   8.455  13.233  0.00  0.00    +0.000 NA
ATOM     24  H   UNL     1      49.186   9.272  16.012  0.00  0.00    +0.000 HD
BRANCH  22  25
ATOM     25  C   UNL     1      51.298   8.450  11.055  0.00  0.00    +0.000 C 
ATOM     26  N   UNL     1      51.461   7.092  10.967  0.00  0.00    +0.000 N 
ATOM     27  O   UNL     1      52.021   9.226  10.452  0.00  0.00    +0.000 OA
ATOM     28  H   UNL     1      50.843   6.479  11.486  0.00  0.00    +0.000 HD
ATOM     29  H   UNL     1      52.201   6.716  10.392  0.00  0.00    +0.000 HD
ENDBRANCH  22  25
ENDBRANCH  16  17
ENDBRANCH   1  16
TORSDOF 4
ENDMDL
MODEL 9
REMARK VINA RESULT:    -6.088      2.907      7.351
REMARK INTER + INTRA:          -8.483
REMARK INTER:                  -7.833
REMARK INTRA:                  -0.649
REMARK UNBOUND:                -0.971
REMARK  Name = 
REMARK  7 active torsions:
REMARK  status: ('A' for Active; 'I' for Inactive)
REMARK    1  A    between atoms: C_1  and  C_2
REMARK    2  A    between atoms: C_9  and  C_10
REMARK    3  A    between atoms: C_10  and  C_11
REMARK    4  A    between atoms: C_10  and  C_12
REMARK    5  A    between atoms: C_12  and  N_13
REMARK    6  A    between atoms: C_18  and  C_19
REMARK    7  A    between atoms: C_25  and  C_26
REMARK                            x       y       z     vdW  Elec       q    Type
REMARK                         _______ _______ _______ _____ _____    ______ ____
ROOT
ATOM      1  C   UNL     1      48.081   7.029  13.374  0.00  0.00    +0.000 C 
ATOM      2  C   UNL     1      49.546   7.352  13.031  0.00  0.00    +0.000 C 
ENDROOT
BRANCH   1  11
ATOM      3  C   UNL     1      52.128   4.500  20.191  0.00  0.00    +0.000 C 
ATOM      4  C   UNL     1      51.409   5.569  19.384  0.00  0.00    +0.000 C 
ATOM      5  C   UNL     1      50.118   5.052  18.739  0.00  0.00    +0.000 C 
ATOM      6  N   UNL     1      49.889   5.984  17.652  0.00  0.00    +0.000 N 
ATOM      7  C   UNL     1      48.985   5.659  16.670  0.00  0.00    +0.000 A 
ATOM      8  N   UNL     1      48.217   4.573  16.830  0.00  0.00    +0.000 NA
ATOM      9  C   UNL     1      47.373   4.261  15.832  0.00  0.00    +0.000 A 
ATOM     10  C   UNL     1      47.256   4.992  14.678  0.00  0.00    +0.000 A 
ATOM     11  C   UNL     1      48.060   6.106  14.580  0.00  0.00    +0.000 A 
ATOM     12  N   UNL     1      48.912   6.443  15.580  0.00  0.00    +0.000 NA
ATOM     13  C   UNL     1      51.075   6.757  17.315  0.00  0.00    +0.000 C 
ATOM     14  C   UNL     1      52.192   6.156  18.193  0.00  0.00    +0.000 C 
ATOM     15  C   UNL     1      53.029   5.142  17.412  0.00  0.00    +0.000 C 
ENDBRANCH   1  11
BRANCH   1  16
ATOM     16  C   UNL     1      47.381   6.518  12.096  0.00  0.00    +0.000 C 
BRANCH  16  17
ATOM     17  N   UNL     1      46.171   7.291  11.783  0.00  0.00    +0.000 N 
ATOM     18  C   UNL     1      44.993   6.528  11.708  0.00  0.00    +0.000 A 
ATOM     19  C   UNL     1      43.792   7.193  11.454  0.00  0.00    +0.000 A 
ATOM     20  C   UNL     1      42.604   6.469  11.364  0.00  0.00    +0.000 A 
ATOM     21  C   UNL     1      42.636   5.094  11.538  0.00  0.00    +0.000 A 
ATOM     22  C   UNL     1      43.864   4.510  11.811  0.00  0.00    +0.000 A 
ATOM     23  N   UNL     1      45.035   5.198  11.909  0.00  0.00    +0.000 NA
ATOM     24  H   UNL     1      46.265   7.843  10.933  0.00  0.00    +0.000 HD
BRANCH  22  25
ATOM     25  C   UNL     1      43.950   3.027  12.003  0.00  0.00    +0.000 C 
ATOM     26  N   UNL     1      45.134   2.573  12.523  0.00  0.00    +0.000 N 
ATOM     27  O   UNL     1      43.040   2.267  11.713  0.00  0.00    +0.000 OA
ATOM     28  H   UNL     1      45.868   3.235  12.748  0.00  0.00    +0.000 HD
ATOM     29  H   UNL     1      45.266   1.583  12.668  0.00  0.00    +0.000 HD
ENDBRANCH  22  25
ENDBRANCH  16  17
ENDBRANCH   1  16
TORSDOF 4
ENDMDL
