MODEL 1
REMARK VINA RESULT:    -8.334      0.000      0.000
REMARK INTER + INTRA:         -10.908
REMARK INTER:                 -10.282
REMARK INTRA:                  -0.626
REMARK UNBOUND:                -0.626
REMARK  Name = 
REMARK  4 active torsions:
REMARK  status: ('A' for Active; 'I' for Inactive)
REMARK    1  A    between atoms: C_2  and  C_4
REMARK    2  A    between atoms: C_7  and  C_8
REMARK    3  A    between atoms: C_8  and  C_9
REMARK    4  A    between atoms: C_9  and  C_10
REMARK                            x       y       z     vdW  Elec       q    Type
REMARK                         _______ _______ _______ _____ _____    ______ ____
ROOT
ATOM      1  C   UNL     1      46.757   2.729   7.401  0.00  0.00    +0.000 A 
ATOM      2  C   UNL     1      46.044   1.917   8.283  0.00  0.00    +0.000 A 
ATOM      3  C   UNL     1      45.112   2.482   9.164  0.00  0.00    +0.000 A 
ATOM      4  C   UNL     1      44.907   3.868   9.206  0.00  0.00    +0.000 A 
ATOM      5  C   UNL     1      45.667   4.676   8.341  0.00  0.00    +0.000 A 
ATOM      6  C   UNL     1      46.589   4.113   7.450  0.00  0.00    +0.000 A 
ENDROOT
BRANCH   1   8
ATOM      7  N   UNL     1      47.918   2.915   5.274  0.00  0.00    +0.000 N 
ATOM      8  C   UNL     1      47.676   2.153   6.380  0.00  0.00    +0.000 C 
ATOM      9  O   UNL     1      48.237   1.081   6.546  0.00  0.00    +0.000 OA
ATOM     10  H   UNL     1      48.643   2.579   4.645  0.00  0.00    +0.000 HD
ATOM     11  H   UNL     1      47.689   3.901   5.234  0.00  0.00    +0.000 HD
ENDBRANCH   1   8
BRANCH   4  12
ATOM     12  C   UNL     1      43.817   4.517  10.042  0.00  0.00    +0.000 C 
BRANCH  12  13
ATOM     13  C   UNL     1      44.071   4.565  11.545  0.00  0.00    +0.000 C 
ATOM     14  C   UNL     1      43.394   3.503  12.406  0.00  0.00    +0.000 C 
ATOM     15  C   UNL     1      42.873   4.897  12.425  0.00  0.00    +0.000 C 
ATOM     16  F   UNL     1      43.081   5.611  13.593  0.00  0.00    +0.000 F 
BRANCH  13  17
ATOM     17  C   UNL     1      45.399   5.168  11.992  0.00  0.00    +0.000 A 
ATOM     18  C   UNL     1      45.840   6.416  11.526  0.00  0.00    +0.000 A 
ATOM     19  C   UNL     1      47.025   6.974  12.000  0.00  0.00    +0.000 A 
ATOM     20  C   UNL     1      47.759   6.262  12.930  0.00  0.00    +0.000 A 
ATOM     21  N   UNL     1      47.397   5.053  13.397  0.00  0.00    +0.000 NA
ATOM     22  C   UNL     1      46.237   4.546  12.919  0.00  0.00    +0.000 A 
ENDBRANCH  13  17
ENDBRANCH  12  13
ENDBRANCH   4  12
TORSDOF 4
ENDMDL
MODEL 2
REMARK VINA RESULT:    -7.382      1.283      1.984
REMARK INTER + INTRA:          -9.734
REMARK INTER:                  -9.679
REMARK INTRA:                  -0.055
REMARK UNBOUND:                -0.626
REMARK  Name = 
REMARK  4 active torsions:
REMARK  status: ('A' for Active; 'I' for Inactive)
REMARK    1  A    between atoms: C_2  and  C_4
REMARK    2  A    between atoms: C_7  and  C_8
REMARK    3  A    between atoms: C_8  and  C_9
REMARK    4  A    between atoms: C_9  and  C_10
REMARK                            x       y       z     vdW  Elec       q    Type
REMARK                         _______ _______ _______ _____ _____    ______ ____
ROOT
ATOM      1  C   UNL     1      46.177   2.822   7.618  0.00  0.00    +0.000 A 
ATOM      2  C   UNL     1      45.784   4.117   7.958  0.00  0.00    +0.000 A 
ATOM      3  C   UNL     1      44.942   4.333   9.057  0.00  0.00    +0.000 A 
ATOM      4  C   UNL     1      44.448   3.258   9.808  0.00  0.00    +0.000 A 
ATOM      5  C   UNL     1      44.818   1.956   9.426  0.00  0.00    +0.000 A 
ATOM      6  C   UNL     1      45.670   1.738   8.337  0.00  0.00    +0.000 A 
ENDROOT
BRANCH   1   8
ATOM      7  N   UNL     1      48.250   1.815   6.844  0.00  0.00    +0.000 N 
ATOM      8  C   UNL     1      47.154   2.564   6.525  0.00  0.00    +0.000 C 
ATOM      9  O   UNL     1      46.960   2.948   5.381  0.00  0.00    +0.000 OA
ATOM     10  H   UNL     1      48.844   1.533   6.069  0.00  0.00    +0.000 HD
ATOM     11  H   UNL     1      48.302   1.266   7.693  0.00  0.00    +0.000 HD
ENDBRANCH   1   8
BRANCH   4  12
ATOM     12  C   UNL     1      43.645   3.443  11.086  0.00  0.00    +0.000 C 
BRANCH  12  13
ATOM     13  C   UNL     1      43.785   4.800  11.768  0.00  0.00    +0.000 C 
ATOM     14  C   UNL     1      42.545   5.378  12.444  0.00  0.00    +0.000 C 
ATOM     15  C   UNL     1      43.006   5.953  11.152  0.00  0.00    +0.000 C 
ATOM     16  F   UNL     1      43.543   7.228  11.207  0.00  0.00    +0.000 F 
BRANCH  13  17
ATOM     17  C   UNL     1      45.170   5.155  12.298  0.00  0.00    +0.000 A 
ATOM     18  C   UNL     1      45.782   4.419  13.325  0.00  0.00    +0.000 A 
ATOM     19  C   UNL     1      47.075   4.723  13.745  0.00  0.00    +0.000 A 
ATOM     20  C   UNL     1      47.733   5.774  13.135  0.00  0.00    +0.000 A 
ATOM     21  N   UNL     1      47.190   6.529  12.161  0.00  0.00    +0.000 NA
ATOM     22  C   UNL     1      45.935   6.199  11.774  0.00  0.00    +0.000 A 
ENDBRANCH  13  17
ENDBRANCH  12  13
ENDBRANCH   4  12
TORSDOF 4
ENDMDL
MODEL 3
REMARK VINA RESULT:    -6.224      3.570      6.651
REMARK INTER + INTRA:          -8.306
REMARK INTER:                  -8.004
REMARK INTRA:                  -0.301
REMARK UNBOUND:                -0.626
REMARK  Name = 
REMARK  4 active torsions:
REMARK  status: ('A' for Active; 'I' for Inactive)
REMARK    1  A    between atoms: C_2  and  C_4
REMARK    2  A    between atoms: C_7  and  C_8
REMARK    3  A    between atoms: C_8  and  C_9
REMARK    4  A    between atoms: C_9  and  C_10
REMARK                            x       y       z     vdW  Elec       q    Type
REMARK                         _______ _______ _______ _____ _____    ______ ____
ROOT
ATOM      1  C   UNL     1      47.675   4.536  15.946  0.00  0.00    +0.000 A 
ATOM      2  C   UNL     1      48.139   5.821  15.664  0.00  0.00    +0.000 A 
ATOM      3  C   UNL     1      47.966   6.368  14.385  0.00  0.00    +0.000 A 
ATOM      4  C   UNL     1      47.366   5.626  13.359  0.00  0.00    +0.000 A 
ATOM      5  C   UNL     1      46.944   4.315  13.647  0.00  0.00    +0.000 A 
ATOM      6  C   UNL     1      47.103   3.771  14.928  0.00  0.00    +0.000 A 
ENDROOT
BRANCH   1   8
ATOM      7  N   UNL     1      46.885   2.943  17.604  0.00  0.00    +0.000 N 
ATOM      8  C   UNL     1      47.745   3.964  17.319  0.00  0.00    +0.000 C 
ATOM      9  O   UNL     1      48.572   4.342  18.136  0.00  0.00    +0.000 OA
ATOM     10  H   UNL     1      47.024   2.471  18.493  0.00  0.00    +0.000 HD
ATOM     11  H   UNL     1      46.388   2.436  16.882  0.00  0.00    +0.000 HD
ENDBRANCH   1   8
BRANCH   4  12
ATOM     12  C   UNL     1      47.034   6.217  11.998  0.00  0.00    +0.000 C 
BRANCH  12  13
ATOM     13  C   UNL     1      45.572   6.125  11.573  0.00  0.00    +0.000 C 
ATOM     14  C   UNL     1      44.758   7.415  11.572  0.00  0.00    +0.000 C 
ATOM     15  C   UNL     1      44.533   6.412  12.648  0.00  0.00    +0.000 C 
ATOM     16  F   UNL     1      43.327   5.734  12.609  0.00  0.00    +0.000 F 
BRANCH  13  17
ATOM     17  C   UNL     1      45.216   5.005  10.601  0.00  0.00    +0.000 A 
ATOM     18  C   UNL     1      45.580   5.055   9.246  0.00  0.00    +0.000 A 
ATOM     19  C   UNL     1      45.301   3.989   8.394  0.00  0.00    +0.000 A 
ATOM     20  C   UNL     1      44.645   2.889   8.913  0.00  0.00    +0.000 A 
ATOM     21  N   UNL     1      44.252   2.793  10.198  0.00  0.00    +0.000 NA
ATOM     22  C   UNL     1      44.548   3.844  10.997  0.00  0.00    +0.000 A 
ENDBRANCH  13  17
ENDBRANCH  12  13
ENDBRANCH   4  12
TORSDOF 4
ENDMDL
MODEL 4
REMARK VINA RESULT:    -5.873      3.592      5.238
REMARK INTER + INTRA:          -7.872
REMARK INTER:                  -7.332
REMARK INTRA:                  -0.540
REMARK UNBOUND:                -0.626
REMARK  Name = 
REMARK  4 active torsions:
REMARK  status: ('A' for Active; 'I' for Inactive)
REMARK    1  A    between atoms: C_2  and  C_4
REMARK    2  A    between atoms: C_7  and  C_8
REMARK    3  A    between atoms: C_8  and  C_9
REMARK    4  A    between atoms: C_9  and  C_10
REMARK                            x       y       z     vdW  Elec       q    Type
REMARK                         _______ _______ _______ _____ _____    ______ ____
ROOT
ATOM      1  C   UNL     1      44.592   4.039  11.449  0.00  0.00    +0.000 A 
ATOM      2  C   UNL     1      44.895   4.257  12.794  0.00  0.00    +0.000 A 
ATOM      3  C   UNL     1      45.433   5.484  13.205  0.00  0.00    +0.000 A 
ATOM      4  C   UNL     1      45.715   6.495  12.277  0.00  0.00    +0.000 A 
ATOM      5  C   UNL     1      45.445   6.243  10.919  0.00  0.00    +0.000 A 
ATOM      6  C   UNL     1      44.894   5.024  10.507  0.00  0.00    +0.000 A 
ENDROOT
BRANCH   1   8
ATOM      7  N   UNL     1      44.471   2.158   9.915  0.00  0.00    +0.000 N 
ATOM      8  C   UNL     1      43.922   2.791  10.993  0.00  0.00    +0.000 C 
ATOM      9  O   UNL     1      42.964   2.316  11.585  0.00  0.00    +0.000 OA
ATOM     10  H   UNL     1      44.092   1.242   9.688  0.00  0.00    +0.000 HD
ATOM     11  H   UNL     1      45.402   2.371   9.578  0.00  0.00    +0.000 HD
ENDBRANCH   1   8
BRANCH   4  12
ATOM     12  C   UNL     1      46.170   7.887  12.684  0.00  0.00    +0.000 C 
BRANCH  12  13
ATOM     13  C   UNL     1      47.672   8.065  12.878  0.00  0.00    +0.000 C 
ATOM     14  C   UNL     1      48.382   9.073  11.979  0.00  0.00    +0.000 C 
ATOM     15  C   UNL     1      48.563   7.618  11.728  0.00  0.00    +0.000 C 
ATOM     16  F   UNL     1      49.814   7.099  12.015  0.00  0.00    +0.000 F 
BRANCH  13  17
ATOM     17  C   UNL     1      48.215   7.784  14.275  0.00  0.00    +0.000 A 
ATOM     18  C   UNL     1      48.294   8.785  15.256  0.00  0.00    +0.000 A 
ATOM     19  C   UNL     1      48.731   8.487  16.544  0.00  0.00    +0.000 A 
ATOM     20  C   UNL     1      49.098   7.185  16.827  0.00  0.00    +0.000 A 
ATOM     21  N   UNL     1      49.064   6.188  15.923  0.00  0.00    +0.000 NA
ATOM     22  C   UNL     1      48.626   6.514  14.685  0.00  0.00    +0.000 A 
ENDBRANCH  13  17
ENDBRANCH  12  13
ENDBRANCH   4  12
TORSDOF 4
ENDMDL
MODEL 5
REMARK VINA RESULT:    -5.868      3.207      6.179
REMARK INTER + INTRA:          -7.866
REMARK INTER:                  -7.987
REMARK INTRA:                   0.121
REMARK UNBOUND:                -0.626
REMARK  Name = 
REMARK  4 active torsions:
REMARK  status: ('A' for Active; 'I' for Inactive)
REMARK    1  A    between atoms: C_2  and  C_4
REMARK    2  A    between atoms: C_7  and  C_8
REMARK    3  A    between atoms: C_8  and  C_9
REMARK    4  A    between atoms: C_9  and  C_10
REMARK                            x       y       z     vdW  Elec       q    Type
REMARK                         _______ _______ _______ _____ _____    ______ ____
ROOT
ATOM      1  C   UNL     1      48.008   7.629  13.780  0.00  0.00    +0.000 A 
ATOM      2  C   UNL     1      47.931   6.369  13.185  0.00  0.00    +0.000 A 
ATOM      3  C   UNL     1      46.819   6.026  12.403  0.00  0.00    +0.000 A 
ATOM      4  C   UNL     1      45.751   6.918  12.237  0.00  0.00    +0.000 A 
ATOM      5  C   UNL     1      45.825   8.167  12.879  0.00  0.00    +0.000 A 
ATOM      6  C   UNL     1      46.940   8.518  13.650  0.00  0.00    +0.000 A 
ENDROOT
BRANCH   1   8
ATOM      7  N   UNL     1      50.381   7.403  14.257  0.00  0.00    +0.000 N 
ATOM      8  C   UNL     1      49.219   8.066  14.528  0.00  0.00    +0.000 C 
ATOM      9  O   UNL     1      49.195   9.012  15.302  0.00  0.00    +0.000 OA
ATOM     10  H   UNL     1      51.226   7.788  14.669  0.00  0.00    +0.000 HD
ATOM     11  H   UNL     1      50.489   6.812  13.442  0.00  0.00    +0.000 HD
ENDBRANCH   1   8
BRANCH   4  12
ATOM     12  C   UNL     1      44.590   6.649  11.294  0.00  0.00    +0.000 C 
BRANCH  12  13
ATOM     13  C   UNL     1      44.108   5.204  11.226  0.00  0.00    +0.000 C 
ATOM     14  C   UNL     1      42.704   4.907  11.744  0.00  0.00    +0.000 C 
ATOM     15  C   UNL     1      43.882   4.502  12.558  0.00  0.00    +0.000 C 
ATOM     16  F   UNL     1      44.126   3.141  12.645  0.00  0.00    +0.000 F 
BRANCH  13  17
ATOM     17  C   UNL     1      44.707   4.338  10.122  0.00  0.00    +0.000 A 
ATOM     18  C   UNL     1      44.508   2.949  10.079  0.00  0.00    +0.000 A 
ATOM     19  C   UNL     1      45.009   2.191   9.024  0.00  0.00    +0.000 A 
ATOM     20  C   UNL     1      45.718   2.838   8.030  0.00  0.00    +0.000 A 
ATOM     21  N   UNL     1      45.959   4.163   8.028  0.00  0.00    +0.000 NA
ATOM     22  C   UNL     1      45.450   4.868   9.065  0.00  0.00    +0.000 A 
ENDBRANCH  13  17
ENDBRANCH  12  13
ENDBRANCH   4  12
TORSDOF 4
ENDMDL
MODEL 6
REMARK VINA RESULT:    -5.599      3.529      6.306
REMARK INTER + INTRA:          -7.534
REMARK INTER:                  -7.176
REMARK INTRA:                  -0.359
REMARK UNBOUND:                -0.626
REMARK  Name = 
REMARK  4 active torsions:
REMARK  status: ('A' for Active; 'I' for Inactive)
REMARK    1  A    between atoms: C_2  and  C_4
REMARK    2  A    between atoms: C_7  and  C_8
REMARK    3  A    between atoms: C_8  and  C_9
REMARK    4  A    between atoms: C_9  and  C_10
REMARK                            x       y       z     vdW  Elec       q    Type
REMARK                         _______ _______ _______ _____ _____    ______ ____
ROOT
ATOM      1  C   UNL     1      48.817   8.598  13.000  0.00  0.00    +0.000 A 
ATOM      2  C   UNL     1      48.805   7.712  11.922  0.00  0.00    +0.000 A 
ATOM      3  C   UNL     1      47.602   7.129  11.501  0.00  0.00    +0.000 A 
ATOM      4  C   UNL     1      46.401   7.389  12.175  0.00  0.00    +0.000 A 
ATOM      5  C   UNL     1      46.437   8.250  13.287  0.00  0.00    +0.000 A 
ATOM      6  C   UNL     1      47.635   8.845  13.701  0.00  0.00    +0.000 A 
ENDROOT
BRANCH   1   8
ATOM      7  N   UNL     1      50.923   8.638  14.213  0.00  0.00    +0.000 N 
ATOM      8  C   UNL     1      50.056   9.317  13.406  0.00  0.00    +0.000 C 
ATOM      9  O   UNL     1      50.320  10.436  12.993  0.00  0.00    +0.000 OA
ATOM     10  H   UNL     1      51.823   9.079  14.381  0.00  0.00    +0.000 HD
ATOM     11  H   UNL     1      50.866   7.635  14.347  0.00  0.00    +0.000 HD
ENDBRANCH   1   8
BRANCH   4  12
ATOM     12  C   UNL     1      45.052   6.893  11.680  0.00  0.00    +0.000 C 
BRANCH  12  13
ATOM     13  C   UNL     1      44.792   5.400  11.844  0.00  0.00    +0.000 C 
ATOM     14  C   UNL     1      43.938   4.962  13.030  0.00  0.00    +0.000 C 
ATOM     15  C   UNL     1      45.408   4.734  13.067  0.00  0.00    +0.000 C 
ATOM     16  F   UNL     1      45.825   3.418  12.972  0.00  0.00    +0.000 F 
BRANCH  13  17
ATOM     17  C   UNL     1      44.802   4.563  10.569  0.00  0.00    +0.000 A 
ATOM     18  C   UNL     1      45.530   4.951   9.433  0.00  0.00    +0.000 A 
ATOM     19  C   UNL     1      45.577   4.136   8.305  0.00  0.00    +0.000 A 
ATOM     20  C   UNL     1      44.877   2.944   8.327  0.00  0.00    +0.000 A 
ATOM     21  N   UNL     1      44.145   2.529   9.379  0.00  0.00    +0.000 NA
ATOM     22  C   UNL     1      44.130   3.344  10.459  0.00  0.00    +0.000 A 
ENDBRANCH  13  17
ENDBRANCH  12  13
ENDBRANCH   4  12
TORSDOF 4
ENDMDL
MODEL 7
REMARK VINA RESULT:    -5.502      4.234      6.112
REMARK INTER + INTRA:          -7.414
REMARK INTER:                  -7.004
REMARK INTRA:                  -0.410
REMARK UNBOUND:                -0.626
REMARK  Name = 
REMARK  4 active torsions:
REMARK  status: ('A' for Active; 'I' for Inactive)
REMARK    1  A    between atoms: C_2  and  C_4
REMARK    2  A    between atoms: C_7  and  C_8
REMARK    3  A    between atoms: C_8  and  C_9
REMARK    4  A    between atoms: C_9  and  C_10
REMARK                            x       y       z     vdW  Elec       q    Type
REMARK                         _______ _______ _______ _____ _____    ______ ____
ROOT
ATOM      1  C   UNL     1      44.936   4.722  12.527  0.00  0.00    +0.000 A 
ATOM      2  C   UNL     1      45.902   4.901  13.517  0.00  0.00    +0.000 A 
ATOM      3  C   UNL     1      47.005   5.734  13.284  0.00  0.00    +0.000 A 
ATOM      4  C   UNL     1      47.181   6.366  12.045  0.00  0.00    +0.000 A 
ATOM      5  C   UNL     1      46.221   6.139  11.042  0.00  0.00    +0.000 A 
ATOM      6  C   UNL     1      45.111   5.319  11.278  0.00  0.00    +0.000 A 
ENDROOT
BRANCH   1   8
ATOM      7  N   UNL     1      43.758   2.595  12.504  0.00  0.00    +0.000 N 
ATOM      8  C   UNL     1      43.699   3.931  12.777  0.00  0.00    +0.000 C 
ATOM      9  O   UNL     1      42.696   4.435  13.262  0.00  0.00    +0.000 OA
ATOM     10  H   UNL     1      42.960   2.039  12.797  0.00  0.00    +0.000 HD
ATOM     11  H   UNL     1      44.636   2.110  12.363  0.00  0.00    +0.000 HD
ENDBRANCH   1   8
BRANCH   4  12
ATOM     12  C   UNL     1      48.282   7.381  11.785  0.00  0.00    +0.000 C 
BRANCH  12  13
ATOM     13  C   UNL     1      48.180   8.686  12.567  0.00  0.00    +0.000 C 
ATOM     14  C   UNL     1      49.480   9.303  13.076  0.00  0.00    +0.000 C 
ATOM     15  C   UNL     1      48.568   8.628  14.038  0.00  0.00    +0.000 C 
ATOM     16  F   UNL     1      47.909   9.451  14.936  0.00  0.00    +0.000 F 
BRANCH  13  17
ATOM     17  C   UNL     1      46.994   9.586  12.238  0.00  0.00    +0.000 A 
ATOM     18  C   UNL     1      47.136  10.747  11.461  0.00  0.00    +0.000 A 
ATOM     19  C   UNL     1      46.026  11.515  11.119  0.00  0.00    +0.000 A 
ATOM     20  C   UNL     1      44.785  11.113  11.575  0.00  0.00    +0.000 A 
ATOM     21  N   UNL     1      44.589  10.023  12.340  0.00  0.00    +0.000 NA
ATOM     22  C   UNL     1      45.690   9.297  12.646  0.00  0.00    +0.000 A 
ENDBRANCH  13  17
ENDBRANCH  12  13
ENDBRANCH   4  12
TORSDOF 4
ENDMDL
