MODEL 1
REMARK VINA RESULT:    -7.992      0.000      0.000
REMARK INTER + INTRA:         -12.150
REMARK INTER:                 -11.263
REMARK INTRA:                  -0.887
REMARK UNBOUND:                -0.887
REMARK  Name = 
REMARK  8 active torsions:
REMARK  status: ('A' for Active; 'I' for Inactive)
REMARK    1  A    between atoms: C_1  and  C_2
REMARK    2  A    between atoms: C_2  and  N_3
REMARK    3  A    between atoms: N_3  and  C_4
REMARK    4  A    between atoms: C_4  and  C_5
REMARK    5  A    between atoms: C_8  and  C_9
REMARK    6  A    between atoms: C_9  and  N_10
REMARK    7  A    between atoms: C_11  and  C_13
REMARK    8  A    between atoms: C_20  and  C_22
REMARK                            x       y       z     vdW  Elec       q    Type
REMARK                         _______ _______ _______ _____ _____    ______ ____
ROOT
ATOM      1  C   UNL     1      47.509   5.914  12.961  0.00  0.00    +0.000 C 
ENDROOT
BRANCH   1   2
ATOM      2  C   UNL     1      47.524   5.538  14.422  0.00  0.00    +0.000 A 
ATOM      3  C   UNL     1      46.765   4.441  14.844  0.00  0.00    +0.000 A 
ATOM      4  C   UNL     1      47.053   3.851  16.071  0.00  0.00    +0.000 A 
ATOM      5  C   UNL     1      48.070   4.381  16.866  0.00  0.00    +0.000 A 
ATOM      6  C   UNL     1      48.723   5.515  16.394  0.00  0.00    +0.000 A 
ATOM      7  N   UNL     1      48.479   6.097  15.197  0.00  0.00    +0.000 NA
BRANCH   5   8
ATOM      8  C   UNL     1      48.475   3.744  18.161  0.00  0.00    +0.000 C 
BRANCH   8   9
ATOM      9  N   UNL     1      49.864   3.341  18.166  0.00  0.00    +0.000 N 
ATOM     10  C   UNL     1      50.279   2.263  17.421  0.00  0.00    +0.000 C 
ATOM     11  O   UNL     1      49.500   1.612  16.733  0.00  0.00    +0.000 OA
ATOM     12  H   UNL     1      50.522   3.829  18.754  0.00  0.00    +0.000 HD
BRANCH  10  13
ATOM     13  C   UNL     1      51.692   1.946  17.494  0.00  0.00    +0.000 A 
ATOM     14  C   UNL     1      52.809   2.706  17.804  0.00  0.00    +0.000 A 
ATOM     15  C   UNL     1      53.952   1.876  17.686  0.00  0.00    +0.000 A 
ATOM     16  C   UNL     1      53.516   0.626  17.319  0.00  0.00    +0.000 A 
ATOM     17  N   UNL     1      52.151   0.674  17.219  0.00  0.00    +0.000 N 
ATOM     18  H   UNL     1      51.545  -0.098  16.967  0.00  0.00    +0.000 HD
ENDBRANCH  10  13
ENDBRANCH   8   9
ENDBRANCH   5   8
ENDBRANCH   1   2
BRANCH   1  19
ATOM     19  N   UNL     1      46.672   6.971  12.406  0.00  0.00    +0.000 N 
ATOM     20  C   UNL     1      45.440   6.686  11.780  0.00  0.00    +0.000 C 
ATOM     21  O   UNL     1      44.736   7.597  11.345  0.00  0.00    +0.000 OA
BRANCH  20  22
ATOM     22  C   UNL     1      44.944   5.291  11.694  0.00  0.00    +0.000 A 
ATOM     23  C   UNL     1      44.239   4.601  12.671  0.00  0.00    +0.000 A 
ATOM     24  S   UNL     1      43.733   3.036  12.216  0.00  0.00    +0.000 S 
ATOM     25  C   UNL     1      44.288   3.279  10.638  0.00  0.00    +0.000 A 
ATOM     26  N   UNL     1      44.035   2.358   9.677  0.00  0.00    +0.000 NA
ATOM     27  C   UNL     1      44.449   2.708   8.494  0.00  0.00    +0.000 A 
ATOM     28  N   UNL     1      45.134   3.860   8.217  0.00  0.00    +0.000 N 
ATOM     29  C   UNL     1      45.555   4.738   9.192  0.00  0.00    +0.000 A 
ATOM     30  O   UNL     1      46.395   5.594   8.952  0.00  0.00    +0.000 OA
ATOM     31  C   UNL     1      44.969   4.477  10.497  0.00  0.00    +0.000 A 
ATOM     32  H   UNL     1      45.510   4.022   7.299  0.00  0.00    +0.000 HD
ENDBRANCH  20  22
BRANCH  19  34
ATOM     33  C   UNL     1      48.455   8.701  12.089  0.00  0.00    +0.000 C 
ATOM     34  C   UNL     1      47.049   8.377  12.574  0.00  0.00    +0.000 C 
ENDBRANCH  19  34
ENDBRANCH   1  19
TORSDOF 7
ENDMDL
MODEL 2
REMARK VINA RESULT:    -7.676      3.767      8.383
REMARK INTER + INTRA:         -11.704
REMARK INTER:                 -10.533
REMARK INTRA:                  -1.171
REMARK UNBOUND:                -0.887
REMARK  Name = 
REMARK  8 active torsions:
REMARK  status: ('A' for Active; 'I' for Inactive)
REMARK    1  A    between atoms: C_1  and  C_2
REMARK    2  A    between atoms: C_2  and  N_3
REMARK    3  A    between atoms: N_3  and  C_4
REMARK    4  A    between atoms: C_4  and  C_5
REMARK    5  A    between atoms: C_8  and  C_9
REMARK    6  A    between atoms: C_9  and  N_10
REMARK    7  A    between atoms: C_11  and  C_13
REMARK    8  A    between atoms: C_20  and  C_22
REMARK                            x       y       z     vdW  Elec       q    Type
REMARK                         _______ _______ _______ _____ _____    ______ ____
ROOT
ATOM      1  C   UNL     1      47.550   8.069  13.943  0.00  0.00    +0.000 C 
ENDROOT
BRANCH   1   2
ATOM      2  C   UNL     1      46.425   7.325  13.267  0.00  0.00    +0.000 A 
ATOM      3  C   UNL     1      45.603   8.015  12.371  0.00  0.00    +0.000 A 
ATOM      4  C   UNL     1      44.829   7.291  11.468  0.00  0.00    +0.000 A 
ATOM      5  C   UNL     1      44.867   5.897  11.495  0.00  0.00    +0.000 A 
ATOM      6  C   UNL     1      45.661   5.298  12.468  0.00  0.00    +0.000 A 
ATOM      7  N   UNL     1      46.439   5.975  13.344  0.00  0.00    +0.000 NA
BRANCH   5   8
ATOM      8  C   UNL     1      44.114   5.065  10.500  0.00  0.00    +0.000 C 
BRANCH   8   9
ATOM      9  N   UNL     1      44.967   4.559   9.448  0.00  0.00    +0.000 N 
ATOM     10  C   UNL     1      44.975   3.219   9.142  0.00  0.00    +0.000 C 
ATOM     11  O   UNL     1      44.269   2.413   9.740  0.00  0.00    +0.000 OA
ATOM     12  H   UNL     1      45.590   5.188   8.966  0.00  0.00    +0.000 HD
BRANCH  10  13
ATOM     13  C   UNL     1      45.863   2.816   8.069  0.00  0.00    +0.000 A 
ATOM     14  C   UNL     1      46.332   3.475   6.943  0.00  0.00    +0.000 A 
ATOM     15  C   UNL     1      47.157   2.577   6.220  0.00  0.00    +0.000 A 
ATOM     16  C   UNL     1      47.186   1.394   6.918  0.00  0.00    +0.000 A 
ATOM     17  N   UNL     1      46.415   1.551   8.038  0.00  0.00    +0.000 N 
ATOM     18  H   UNL     1      46.247   0.850   8.749  0.00  0.00    +0.000 HD
ENDBRANCH  10  13
ENDBRANCH   8   9
ENDBRANCH   5   8
ENDBRANCH   1   2
BRANCH   1  19
ATOM     19  N   UNL     1      48.959   7.735  13.773  0.00  0.00    +0.000 N 
ATOM     20  C   UNL     1      49.857   7.741  14.861  0.00  0.00    +0.000 C 
ATOM     21  O   UNL     1      51.036   7.427  14.699  0.00  0.00    +0.000 OA
BRANCH  20  22
ATOM     22  C   UNL     1      49.381   8.063  16.228  0.00  0.00    +0.000 A 
ATOM     23  C   UNL     1      49.364   9.316  16.825  0.00  0.00    +0.000 A 
ATOM     24  S   UNL     1      48.661   9.358  18.379  0.00  0.00    +0.000 S 
ATOM     25  C   UNL     1      48.197   7.738  18.250  0.00  0.00    +0.000 A 
ATOM     26  N   UNL     1      47.416   7.174  19.203  0.00  0.00    +0.000 NA
ATOM     27  C   UNL     1      47.070   5.948  18.938  0.00  0.00    +0.000 A 
ATOM     28  N   UNL     1      47.485   5.240  17.843  0.00  0.00    +0.000 N 
ATOM     29  C   UNL     1      48.410   5.721  16.943  0.00  0.00    +0.000 A 
ATOM     30  O   UNL     1      48.967   4.974  16.150  0.00  0.00    +0.000 OA
ATOM     31  C   UNL     1      48.690   7.138  17.102  0.00  0.00    +0.000 A 
ATOM     32  H   UNL     1      47.258   4.265  17.750  0.00  0.00    +0.000 HD
ENDBRANCH  20  22
BRANCH  19  34
ATOM     33  C   UNL     1      49.516   8.385  11.419  0.00  0.00    +0.000 C 
ATOM     34  C   UNL     1      49.460   7.285  12.470  0.00  0.00    +0.000 C 
ENDBRANCH  19  34
ENDBRANCH   1  19
TORSDOF 7
ENDMDL
MODEL 3
REMARK VINA RESULT:    -7.615      2.673      8.335
REMARK INTER + INTRA:         -11.619
REMARK INTER:                 -10.512
REMARK INTRA:                  -1.107
REMARK UNBOUND:                -0.887
REMARK  Name = 
REMARK  8 active torsions:
REMARK  status: ('A' for Active; 'I' for Inactive)
REMARK    1  A    between atoms: C_1  and  C_2
REMARK    2  A    between atoms: C_2  and  N_3
REMARK    3  A    between atoms: N_3  and  C_4
REMARK    4  A    between atoms: C_4  and  C_5
REMARK    5  A    between atoms: C_8  and  C_9
REMARK    6  A    between atoms: C_9  and  N_10
REMARK    7  A    between atoms: C_11  and  C_13
REMARK    8  A    between atoms: C_20  and  C_22
REMARK                            x       y       z     vdW  Elec       q    Type
REMARK                         _______ _______ _______ _____ _____    ______ ____
ROOT
ATOM      1  C   UNL     1      48.578   6.480  14.562  0.00  0.00    +0.000 C 
ENDROOT
BRANCH   1   2
ATOM      2  C   UNL     1      47.370   6.361  13.666  0.00  0.00    +0.000 A 
ATOM      3  C   UNL     1      47.369   7.036  12.441  0.00  0.00    +0.000 A 
ATOM      4  C   UNL     1      46.468   6.648  11.455  0.00  0.00    +0.000 A 
ATOM      5  C   UNL     1      45.566   5.616  11.717  0.00  0.00    +0.000 A 
ATOM      6  C   UNL     1      45.595   5.050  12.988  0.00  0.00    +0.000 A 
ATOM      7  N   UNL     1      46.473   5.393  13.958  0.00  0.00    +0.000 NA
BRANCH   5   8
ATOM      8  C   UNL     1      44.623   5.103  10.670  0.00  0.00    +0.000 C 
BRANCH   8   9
ATOM      9  N   UNL     1      45.316   4.552   9.526  0.00  0.00    +0.000 N 
ATOM     10  C   UNL     1      45.166   3.226   9.194  0.00  0.00    +0.000 C 
ATOM     11  O   UNL     1      44.450   2.472   9.843  0.00  0.00    +0.000 OA
ATOM     12  H   UNL     1      45.946   5.135   8.997  0.00  0.00    +0.000 HD
BRANCH  10  13
ATOM     13  C   UNL     1      45.902   2.776   8.029  0.00  0.00    +0.000 A 
ATOM     14  C   UNL     1      46.208   3.383   6.821  0.00  0.00    +0.000 A 
ATOM     15  C   UNL     1      46.933   2.454   6.032  0.00  0.00    +0.000 A 
ATOM     16  C   UNL     1      47.066   1.304   6.773  0.00  0.00    +0.000 A 
ATOM     17  N   UNL     1      46.454   1.512   7.980  0.00  0.00    +0.000 N 
ATOM     18  H   UNL     1      46.391   0.843   8.739  0.00  0.00    +0.000 HD
ENDBRANCH  10  13
ENDBRANCH   8   9
ENDBRANCH   5   8
ENDBRANCH   1   2
BRANCH   1  19
ATOM     19  N   UNL     1      48.646   7.368  15.716  0.00  0.00    +0.000 N 
ATOM     20  C   UNL     1      48.614   6.868  17.036  0.00  0.00    +0.000 C 
ATOM     21  O   UNL     1      48.703   7.634  17.995  0.00  0.00    +0.000 OA
BRANCH  20  22
ATOM     22  C   UNL     1      48.539   5.408  17.285  0.00  0.00    +0.000 A 
ATOM     23  C   UNL     1      47.400   4.617  17.232  0.00  0.00    +0.000 A 
ATOM     24  S   UNL     1      47.675   2.951  17.480  0.00  0.00    +0.000 S 
ATOM     25  C   UNL     1      49.348   3.196  17.501  0.00  0.00    +0.000 A 
ATOM     26  N   UNL     1      50.191   2.136  17.540  0.00  0.00    +0.000 NA
ATOM     27  C   UNL     1      51.448   2.465  17.472  0.00  0.00    +0.000 A 
ATOM     28  N   UNL     1      51.916   3.750  17.425  0.00  0.00    +0.000 N 
ATOM     29  C   UNL     1      51.101   4.853  17.552  0.00  0.00    +0.000 A 
ATOM     30  O   UNL     1      51.566   5.959  17.791  0.00  0.00    +0.000 OA
ATOM     31  C   UNL     1      49.684   4.539  17.458  0.00  0.00    +0.000 A 
ATOM     32  H   UNL     1      52.903   3.936  17.472  0.00  0.00    +0.000 HD
ENDBRANCH  20  22
BRANCH  19  34
ATOM     33  C   UNL     1      49.896   9.152  14.481  0.00  0.00    +0.000 C 
ATOM     34  C   UNL     1      48.849   8.808  15.531  0.00  0.00    +0.000 C 
ENDBRANCH  19  34
ENDBRANCH   1  19
TORSDOF 7
ENDMDL
MODEL 4
REMARK VINA RESULT:    -7.525      3.403      8.702
REMARK INTER + INTRA:         -11.491
REMARK INTER:                 -10.687
REMARK INTRA:                  -0.805
REMARK UNBOUND:                -0.887
REMARK  Name = 
REMARK  8 active torsions:
REMARK  status: ('A' for Active; 'I' for Inactive)
REMARK    1  A    between atoms: C_1  and  C_2
REMARK    2  A    between atoms: C_2  and  N_3
REMARK    3  A    between atoms: N_3  and  C_4
REMARK    4  A    between atoms: C_4  and  C_5
REMARK    5  A    between atoms: C_8  and  C_9
REMARK    6  A    between atoms: C_9  and  N_10
REMARK    7  A    between atoms: C_11  and  C_13
REMARK    8  A    between atoms: C_20  and  C_22
REMARK                            x       y       z     vdW  Elec       q    Type
REMARK                         _______ _______ _______ _____ _____    ______ ____
ROOT
ATOM      1  C   UNL     1      47.057   5.401  14.644  0.00  0.00    +0.000 C 
ENDROOT
BRANCH   1   2
ATOM      2  C   UNL     1      45.964   4.994  13.687  0.00  0.00    +0.000 A 
ATOM      3  C   UNL     1      45.157   5.987  13.123  0.00  0.00    +0.000 A 
ATOM      4  C   UNL     1      44.421   5.693  11.979  0.00  0.00    +0.000 A 
ATOM      5  C   UNL     1      44.480   4.408  11.437  0.00  0.00    +0.000 A 
ATOM      6  C   UNL     1      45.256   3.468  12.106  0.00  0.00    +0.000 A 
ATOM      7  N   UNL     1      45.997   3.731  13.207  0.00  0.00    +0.000 NA
BRANCH   5   8
ATOM      8  C   UNL     1      43.770   4.053  10.165  0.00  0.00    +0.000 C 
BRANCH   8   9
ATOM      9  N   UNL     1      44.588   3.252   9.282  0.00  0.00    +0.000 N 
ATOM     10  C   UNL     1      45.490   3.851   8.434  0.00  0.00    +0.000 C 
ATOM     11  O   UNL     1      45.635   5.068   8.395  0.00  0.00    +0.000 OA
ATOM     12  H   UNL     1      44.464   2.252   9.258  0.00  0.00    +0.000 HD
BRANCH  10  13
ATOM     13  C   UNL     1      46.262   2.957   7.593  0.00  0.00    +0.000 A 
ATOM     14  C   UNL     1      46.889   3.130   6.369  0.00  0.00    +0.000 A 
ATOM     15  C   UNL     1      47.476   1.894   5.997  0.00  0.00    +0.000 A 
ATOM     16  C   UNL     1      47.208   0.994   7.001  0.00  0.00    +0.000 A 
ATOM     17  N   UNL     1      46.489   1.647   7.965  0.00  0.00    +0.000 N 
ATOM     18  H   UNL     1      46.148   1.244   8.830  0.00  0.00    +0.000 HD
ENDBRANCH  10  13
ENDBRANCH   8   9
ENDBRANCH   5   8
ENDBRANCH   1   2
BRANCH   1  19
ATOM     19  N   UNL     1      48.209   6.207  14.261  0.00  0.00    +0.000 N 
ATOM     20  C   UNL     1      49.135   6.675  15.217  0.00  0.00    +0.000 C 
ATOM     21  O   UNL     1      50.117   7.329  14.867  0.00  0.00    +0.000 OA
BRANCH  20  22
ATOM     22  C   UNL     1      48.974   6.331  16.651  0.00  0.00    +0.000 A 
ATOM     23  C   UNL     1      49.280   5.117  17.251  0.00  0.00    +0.000 A 
ATOM     24  S   UNL     1      49.064   5.082  18.943  0.00  0.00    +0.000 S 
ATOM     25  C   UNL     1      48.715   6.736  18.967  0.00  0.00    +0.000 A 
ATOM     26  N   UNL     1      48.567   7.384  20.148  0.00  0.00    +0.000 NA
ATOM     27  C   UNL     1      48.379   8.666  20.021  0.00  0.00    +0.000 A 
ATOM     28  N   UNL     1      48.274   9.324  18.826  0.00  0.00    +0.000 N 
ATOM     29  C   UNL     1      48.252   8.676  17.610  0.00  0.00    +0.000 A 
ATOM     30  O   UNL     1      47.877   9.249  16.595  0.00  0.00    +0.000 OA
ATOM     31  C   UNL     1      48.629   7.275  17.694  0.00  0.00    +0.000 A 
ATOM     32  H   UNL     1      48.033  10.299  18.799  0.00  0.00    +0.000 HD
ENDBRANCH  20  22
BRANCH  19  34
ATOM     33  C   UNL     1      48.046   7.850  12.376  0.00  0.00    +0.000 C 
ATOM     34  C   UNL     1      48.490   6.471  12.846  0.00  0.00    +0.000 C 
ENDBRANCH  19  34
ENDBRANCH   1  19
TORSDOF 7
ENDMDL
MODEL 5
REMARK VINA RESULT:    -7.137      3.072      8.280
REMARK INTER + INTRA:         -10.945
REMARK INTER:                  -9.624
REMARK INTRA:                  -1.321
REMARK UNBOUND:                -0.887
REMARK  Name = 
REMARK  8 active torsions:
REMARK  status: ('A' for Active; 'I' for Inactive)
REMARK    1  A    between atoms: C_1  and  C_2
REMARK    2  A    between atoms: C_2  and  N_3
REMARK    3  A    between atoms: N_3  and  C_4
REMARK    4  A    between atoms: C_4  and  C_5
REMARK    5  A    between atoms: C_8  and  C_9
REMARK    6  A    between atoms: C_9  and  N_10
REMARK    7  A    between atoms: C_11  and  C_13
REMARK    8  A    between atoms: C_20  and  C_22
REMARK                            x       y       z     vdW  Elec       q    Type
REMARK                         _______ _______ _______ _____ _____    ______ ____
ROOT
ATOM      1  C   UNL     1      49.196   8.124  15.767  0.00  0.00    +0.000 C 
ENDROOT
BRANCH   1   2
ATOM      2  C   UNL     1      48.373   7.846  14.534  0.00  0.00    +0.000 A 
ATOM      3  C   UNL     1      48.320   6.539  14.038  0.00  0.00    +0.000 A 
ATOM      4  C   UNL     1      47.296   6.187  13.165  0.00  0.00    +0.000 A 
ATOM      5  C   UNL     1      46.362   7.149  12.779  0.00  0.00    +0.000 A 
ATOM      6  C   UNL     1      46.535   8.440  13.269  0.00  0.00    +0.000 A 
ATOM      7  N   UNL     1      47.509   8.805  14.135  0.00  0.00    +0.000 NA
BRANCH   5   8
ATOM      8  C   UNL     1      45.194   6.811  11.901  0.00  0.00    +0.000 C 
BRANCH   8   9
ATOM      9  N   UNL     1      45.518   5.802  10.918  0.00  0.00    +0.000 N 
ATOM     10  C   UNL     1      44.604   4.826  10.595  0.00  0.00    +0.000 C 
ATOM     11  O   UNL     1      43.496   4.776  11.119  0.00  0.00    +0.000 OA
ATOM     12  H   UNL     1      46.435   5.789  10.500  0.00  0.00    +0.000 HD
BRANCH  10  13
ATOM     13  C   UNL     1      45.027   3.865   9.596  0.00  0.00    +0.000 A 
ATOM     14  C   UNL     1      45.493   4.005   8.297  0.00  0.00    +0.000 A 
ATOM     15  C   UNL     1      45.728   2.709   7.772  0.00  0.00    +0.000 A 
ATOM     16  C   UNL     1      45.413   1.804   8.757  0.00  0.00    +0.000 A 
ATOM     17  N   UNL     1      45.005   2.510   9.857  0.00  0.00    +0.000 N 
ATOM     18  H   UNL     1      44.711   2.115  10.743  0.00  0.00    +0.000 HD
ENDBRANCH  10  13
ENDBRANCH   8   9
ENDBRANCH   5   8
ENDBRANCH   1   2
BRANCH   1  19
ATOM     19  N   UNL     1      48.642   8.187  17.114  0.00  0.00    +0.000 N 
ATOM     20  C   UNL     1      49.011   7.258  18.110  0.00  0.00    +0.000 C 
ATOM     21  O   UNL     1      48.553   7.349  19.248  0.00  0.00    +0.000 OA
BRANCH  20  22
ATOM     22  C   UNL     1      50.006   6.198  17.817  0.00  0.00    +0.000 A 
ATOM     23  C   UNL     1      51.377   6.267  18.029  0.00  0.00    +0.000 A 
ATOM     24  S   UNL     1      52.228   4.833  17.672  0.00  0.00    +0.000 S 
ATOM     25  C   UNL     1      50.782   4.007  17.381  0.00  0.00    +0.000 A 
ATOM     26  N   UNL     1      50.793   2.670  17.158  0.00  0.00    +0.000 NA
ATOM     27  C   UNL     1      49.607   2.151  17.027  0.00  0.00    +0.000 A 
ATOM     28  N   UNL     1      48.438   2.863  17.046  0.00  0.00    +0.000 N 
ATOM     29  C   UNL     1      48.396   4.239  17.103  0.00  0.00    +0.000 A 
ATOM     30  O   UNL     1      47.372   4.852  16.834  0.00  0.00    +0.000 OA
ATOM     31  C   UNL     1      49.679   4.844  17.420  0.00  0.00    +0.000 A 
ATOM     32  H   UNL     1      47.563   2.413  16.842  0.00  0.00    +0.000 HD
ENDBRANCH  20  22
BRANCH  19  34
ATOM     33  C   UNL     1      48.394  10.664  17.390  0.00  0.00    +0.000 C 
ATOM     34  C   UNL     1      47.752   9.288  17.496  0.00  0.00    +0.000 C 
ENDBRANCH  19  34
ENDBRANCH   1  19
TORSDOF 7
ENDMDL
MODEL 6
REMARK VINA RESULT:    -6.960      2.524      8.437
REMARK INTER + INTRA:         -10.695
REMARK INTER:                  -9.551
REMARK INTRA:                  -1.144
REMARK UNBOUND:                -0.887
REMARK  Name = 
REMARK  8 active torsions:
REMARK  status: ('A' for Active; 'I' for Inactive)
REMARK    1  A    between atoms: C_1  and  C_2
REMARK    2  A    between atoms: C_2  and  N_3
REMARK    3  A    between atoms: N_3  and  C_4
REMARK    4  A    between atoms: C_4  and  C_5
REMARK    5  A    between atoms: C_8  and  C_9
REMARK    6  A    between atoms: C_9  and  N_10
REMARK    7  A    between atoms: C_11  and  C_13
REMARK    8  A    between atoms: C_20  and  C_22
REMARK                            x       y       z     vdW  Elec       q    Type
REMARK                         _______ _______ _______ _____ _____    ______ ____
ROOT
ATOM      1  C   UNL     1      49.950   7.017  15.605  0.00  0.00    +0.000 C 
ENDROOT
BRANCH   1   2
ATOM      2  C   UNL     1      48.644   7.083  14.852  0.00  0.00    +0.000 A 
ATOM      3  C   UNL     1      48.071   8.334  14.603  0.00  0.00    +0.000 A 
ATOM      4  C   UNL     1      47.103   8.450  13.610  0.00  0.00    +0.000 A 
ATOM      5  C   UNL     1      46.705   7.314  12.904  0.00  0.00    +0.000 A 
ATOM      6  C   UNL     1      47.281   6.101  13.269  0.00  0.00    +0.000 A 
ATOM      7  N   UNL     1      48.237   5.962  14.215  0.00  0.00    +0.000 NA
BRANCH   5   8
ATOM      8  C   UNL     1      45.723   7.389  11.773  0.00  0.00    +0.000 C 
BRANCH   8   9
ATOM      9  N   UNL     1      45.707   6.183  10.976  0.00  0.00    +0.000 N 
ATOM     10  C   UNL     1      44.532   5.498  10.775  0.00  0.00    +0.000 C 
ATOM     11  O   UNL     1      43.469   5.877  11.254  0.00  0.00    +0.000 OA
ATOM     12  H   UNL     1      46.570   5.820  10.603  0.00  0.00    +0.000 HD
BRANCH  10  13
ATOM     13  C   UNL     1      44.625   4.303   9.958  0.00  0.00    +0.000 A 
ATOM     14  C   UNL     1      44.574   2.952  10.264  0.00  0.00    +0.000 A 
ATOM     15  C   UNL     1      44.753   2.222   9.062  0.00  0.00    +0.000 A 
ATOM     16  C   UNL     1      44.899   3.135   8.045  0.00  0.00    +0.000 A 
ATOM     17  N   UNL     1      44.806   4.386   8.592  0.00  0.00    +0.000 N 
ATOM     18  H   UNL     1      44.872   5.263   8.088  0.00  0.00    +0.000 HD
ENDBRANCH  10  13
ENDBRANCH   8   9
ENDBRANCH   5   8
ENDBRANCH   1   2
BRANCH   1  19
ATOM     19  N   UNL     1      50.120   7.491  16.973  0.00  0.00    +0.000 N 
ATOM     20  C   UNL     1      49.733   6.707  18.081  0.00  0.00    +0.000 C 
ATOM     21  O   UNL     1      49.914   7.116  19.228  0.00  0.00    +0.000 OA
BRANCH  20  22
ATOM     22  C   UNL     1      49.162   5.353  17.881  0.00  0.00    +0.000 A 
ATOM     23  C   UNL     1      47.832   5.043  17.634  0.00  0.00    +0.000 A 
ATOM     24  S   UNL     1      47.522   3.389  17.358  0.00  0.00    +0.000 S 
ATOM     25  C   UNL     1      49.176   3.040  17.389  0.00  0.00    +0.000 A 
ATOM     26  N   UNL     1      49.617   1.797  17.074  0.00  0.00    +0.000 NA
ATOM     27  C   UNL     1      50.913   1.690  17.062  0.00  0.00    +0.000 A 
ATOM     28  N   UNL     1      51.782   2.695  17.388  0.00  0.00    +0.000 N 
ATOM     29  C   UNL     1      51.371   3.918  17.872  0.00  0.00    +0.000 A 
ATOM     30  O   UNL     1      52.159   4.680  18.416  0.00  0.00    +0.000 OA
ATOM     31  C   UNL     1      49.941   4.140  17.740  0.00  0.00    +0.000 A 
ATOM     32  H   UNL     1      52.770   2.516  17.451  0.00  0.00    +0.000 HD
ENDBRANCH  20  22
BRANCH  19  34
ATOM     33  C   UNL     1      51.606   9.287  16.057  0.00  0.00    +0.000 C 
ATOM     34  C   UNL     1      50.795   8.766  17.235  0.00  0.00    +0.000 C 
ENDBRANCH  19  34
ENDBRANCH   1  19
TORSDOF 7
ENDMDL
MODEL 7
REMARK VINA RESULT:    -6.886      2.151      2.498
REMARK INTER + INTRA:         -10.591
REMARK INTER:                  -9.370
REMARK INTRA:                  -1.221
REMARK UNBOUND:                -0.887
REMARK  Name = 
REMARK  8 active torsions:
REMARK  status: ('A' for Active; 'I' for Inactive)
REMARK    1  A    between atoms: C_1  and  C_2
REMARK    2  A    between atoms: C_2  and  N_3
REMARK    3  A    between atoms: N_3  and  C_4
REMARK    4  A    between atoms: C_4  and  C_5
REMARK    5  A    between atoms: C_8  and  C_9
REMARK    6  A    between atoms: C_9  and  N_10
REMARK    7  A    between atoms: C_11  and  C_13
REMARK    8  A    between atoms: C_20  and  C_22
REMARK                            x       y       z     vdW  Elec       q    Type
REMARK                         _______ _______ _______ _____ _____    ______ ____
ROOT
ATOM      1  C   UNL     1      47.383   6.210  12.255  0.00  0.00    +0.000 C 
ENDROOT
BRANCH   1   2
ATOM      2  C   UNL     1      47.749   5.684  13.621  0.00  0.00    +0.000 A 
ATOM      3  C   UNL     1      48.417   6.530  14.512  0.00  0.00    +0.000 A 
ATOM      4  C   UNL     1      48.423   6.216  15.868  0.00  0.00    +0.000 A 
ATOM      5  C   UNL     1      47.789   5.052  16.305  0.00  0.00    +0.000 A 
ATOM      6  C   UNL     1      47.211   4.237  15.337  0.00  0.00    +0.000 A 
ATOM      7  N   UNL     1      47.173   4.528  14.016  0.00  0.00    +0.000 NA
BRANCH   5   8
ATOM      8  C   UNL     1      47.697   4.701  17.760  0.00  0.00    +0.000 C 
BRANCH   8   9
ATOM      9  N   UNL     1      48.995   4.639  18.395  0.00  0.00    +0.000 N 
ATOM     10  C   UNL     1      49.313   5.505  19.413  0.00  0.00    +0.000 C 
ATOM     11  O   UNL     1      48.523   6.351  19.817  0.00  0.00    +0.000 OA
ATOM     12  H   UNL     1      49.683   3.984  18.059  0.00  0.00    +0.000 HD
BRANCH  10  13
ATOM     13  C   UNL     1      50.638   5.357  19.984  0.00  0.00    +0.000 A 
ATOM     14  C   UNL     1      51.393   6.160  20.825  0.00  0.00    +0.000 A 
ATOM     15  C   UNL     1      52.643   5.525  21.034  0.00  0.00    +0.000 A 
ATOM     16  C   UNL     1      52.628   4.345  20.329  0.00  0.00    +0.000 A 
ATOM     17  N   UNL     1      51.411   4.246  19.711  0.00  0.00    +0.000 N 
ATOM     18  H   UNL     1      51.103   3.481  19.121  0.00  0.00    +0.000 HD
ENDBRANCH  10  13
ENDBRANCH   8   9
ENDBRANCH   5   8
ENDBRANCH   1   2
BRANCH   1  19
ATOM     19  N   UNL     1      46.322   7.181  12.019  0.00  0.00    +0.000 N 
ATOM     20  C   UNL     1      45.006   6.778  11.709  0.00  0.00    +0.000 C 
ATOM     21  O   UNL     1      44.120   7.616  11.543  0.00  0.00    +0.000 OA
BRANCH  20  22
ATOM     22  C   UNL     1      44.657   5.339  11.641  0.00  0.00    +0.000 A 
ATOM     23  C   UNL     1      43.968   4.607  12.599  0.00  0.00    +0.000 A 
ATOM     24  S   UNL     1      43.646   2.988  12.169  0.00  0.00    +0.000 S 
ATOM     25  C   UNL     1      44.265   3.244  10.616  0.00  0.00    +0.000 A 
ATOM     26  N   UNL     1      44.159   2.276   9.673  0.00  0.00    +0.000 NA
ATOM     27  C   UNL     1      44.605   2.634   8.504  0.00  0.00    +0.000 A 
ATOM     28  N   UNL     1      45.187   3.841   8.228  0.00  0.00    +0.000 N 
ATOM     29  C   UNL     1      45.462   4.783   9.195  0.00  0.00    +0.000 A 
ATOM     30  O   UNL     1      46.226   5.713   8.974  0.00  0.00    +0.000 OA
ATOM     31  C   UNL     1      44.831   4.500  10.474  0.00  0.00    +0.000 A 
ATOM     32  H   UNL     1      45.597   4.016   7.327  0.00  0.00    +0.000 HD
ENDBRANCH  20  22
BRANCH  19  34
ATOM     33  C   UNL     1      48.000   9.034  11.849  0.00  0.00    +0.000 C 
ATOM     34  C   UNL     1      46.579   8.614  12.197  0.00  0.00    +0.000 C 
ENDBRANCH  19  34
ENDBRANCH   1  19
TORSDOF 7
ENDMDL
MODEL 8
REMARK VINA RESULT:    -6.712      3.195      4.907
REMARK INTER + INTRA:         -10.345
REMARK INTER:                  -9.092
REMARK INTRA:                  -1.253
REMARK UNBOUND:                -0.887
REMARK  Name = 
REMARK  8 active torsions:
REMARK  status: ('A' for Active; 'I' for Inactive)
REMARK    1  A    between atoms: C_1  and  C_2
REMARK    2  A    between atoms: C_2  and  N_3
REMARK    3  A    between atoms: N_3  and  C_4
REMARK    4  A    between atoms: C_4  and  C_5
REMARK    5  A    between atoms: C_8  and  C_9
REMARK    6  A    between atoms: C_9  and  N_10
REMARK    7  A    between atoms: C_11  and  C_13
REMARK    8  A    between atoms: C_20  and  C_22
REMARK                            x       y       z     vdW  Elec       q    Type
REMARK                         _______ _______ _______ _____ _____    ______ ____
ROOT
ATOM      1  C   UNL     1      47.278   6.224  12.032  0.00  0.00    +0.000 C 
ENDROOT
BRANCH   1   2
ATOM      2  C   UNL     1      47.891   5.993  13.390  0.00  0.00    +0.000 A 
ATOM      3  C   UNL     1      48.863   6.885  13.853  0.00  0.00    +0.000 A 
ATOM      4  C   UNL     1      49.157   6.923  15.213  0.00  0.00    +0.000 A 
ATOM      5  C   UNL     1      48.497   6.051  16.081  0.00  0.00    +0.000 A 
ATOM      6  C   UNL     1      47.597   5.151  15.520  0.00  0.00    +0.000 A 
ATOM      7  N   UNL     1      47.278   5.107  14.206  0.00  0.00    +0.000 NA
BRANCH   5   8
ATOM      8  C   UNL     1      48.716   6.097  17.563  0.00  0.00    +0.000 C 
BRANCH   8   9
ATOM      9  N   UNL     1      47.970   7.161  18.198  0.00  0.00    +0.000 N 
ATOM     10  C   UNL     1      48.606   8.309  18.606  0.00  0.00    +0.000 C 
ATOM     11  O   UNL     1      49.812   8.474  18.450  0.00  0.00    +0.000 OA
ATOM     12  H   UNL     1      46.986   7.040  18.380  0.00  0.00    +0.000 HD
BRANCH  10  13
ATOM     13  C   UNL     1      47.767   9.315  19.228  0.00  0.00    +0.000 A 
ATOM     14  C   UNL     1      46.975   9.302  20.366  0.00  0.00    +0.000 A 
ATOM     15  C   UNL     1      46.346  10.568  20.477  0.00  0.00    +0.000 A 
ATOM     16  C   UNL     1      46.770  11.332  19.417  0.00  0.00    +0.000 A 
ATOM     17  N   UNL     1      47.637  10.574  18.677  0.00  0.00    +0.000 N 
ATOM     18  H   UNL     1      48.116  10.869  17.835  0.00  0.00    +0.000 HD
ENDBRANCH  10  13
ENDBRANCH   8   9
ENDBRANCH   5   8
ENDBRANCH   1   2
BRANCH   1  19
ATOM     19  N   UNL     1      46.179   7.150  11.787  0.00  0.00    +0.000 N 
ATOM     20  C   UNL     1      44.872   6.692  11.516  0.00  0.00    +0.000 C 
ATOM     21  O   UNL     1      43.954   7.492  11.342  0.00  0.00    +0.000 OA
BRANCH  20  22
ATOM     22  C   UNL     1      44.573   5.239  11.500  0.00  0.00    +0.000 A 
ATOM     23  C   UNL     1      43.906   4.520  12.483  0.00  0.00    +0.000 A 
ATOM     24  S   UNL     1      43.642   2.876  12.112  0.00  0.00    +0.000 S 
ATOM     25  C   UNL     1      44.256   3.096  10.552  0.00  0.00    +0.000 A 
ATOM     26  N   UNL     1      44.187   2.091   9.645  0.00  0.00    +0.000 NA
ATOM     27  C   UNL     1      44.624   2.422   8.464  0.00  0.00    +0.000 A 
ATOM     28  N   UNL     1      45.165   3.637   8.145  0.00  0.00    +0.000 N 
ATOM     29  C   UNL     1      45.405   4.623   9.078  0.00  0.00    +0.000 A 
ATOM     30  O   UNL     1      46.137   5.569   8.824  0.00  0.00    +0.000 OA
ATOM     31  C   UNL     1      44.780   4.365  10.365  0.00  0.00    +0.000 A 
ATOM     32  H   UNL     1      45.572   3.793   7.239  0.00  0.00    +0.000 HD
ENDBRANCH  20  22
BRANCH  19  34
ATOM     33  C   UNL     1      46.079   9.142  13.302  0.00  0.00    +0.000 C 
ATOM     34  C   UNL     1      46.387   8.595  11.915  0.00  0.00    +0.000 C 
ENDBRANCH  19  34
ENDBRANCH   1  19
TORSDOF 7
ENDMDL
MODEL 9
REMARK VINA RESULT:    -6.656      2.813      8.920
REMARK INTER + INTRA:         -10.268
REMARK INTER:                  -9.075
REMARK INTRA:                  -1.193
REMARK UNBOUND:                -0.887
REMARK  Name = 
REMARK  8 active torsions:
REMARK  status: ('A' for Active; 'I' for Inactive)
REMARK    1  A    between atoms: C_1  and  C_2
REMARK    2  A    between atoms: C_2  and  N_3
REMARK    3  A    between atoms: N_3  and  C_4
REMARK    4  A    between atoms: C_4  and  C_5
REMARK    5  A    between atoms: C_8  and  C_9
REMARK    6  A    between atoms: C_9  and  N_10
REMARK    7  A    between atoms: C_11  and  C_13
REMARK    8  A    between atoms: C_20  and  C_22
REMARK                            x       y       z     vdW  Elec       q    Type
REMARK                         _______ _______ _______ _____ _____    ______ ____
ROOT
ATOM      1  C   UNL     1      49.591   6.596  16.842  0.00  0.00    +0.000 C 
ENDROOT
BRANCH   1   2
ATOM      2  C   UNL     1      48.911   6.559  15.495  0.00  0.00    +0.000 A 
ATOM      3  C   UNL     1      48.090   5.470  15.183  0.00  0.00    +0.000 A 
ATOM      4  C   UNL     1      47.174   5.590  14.143  0.00  0.00    +0.000 A 
ATOM      5  C   UNL     1      47.111   6.780  13.417  0.00  0.00    +0.000 A 
ATOM      6  C   UNL     1      48.015   7.783  13.755  0.00  0.00    +0.000 A 
ATOM      7  N   UNL     1      48.902   7.701  14.773  0.00  0.00    +0.000 NA
BRANCH   5   8
ATOM      8  C   UNL     1      46.094   6.995  12.336  0.00  0.00    +0.000 C 
BRANCH   8   9
ATOM      9  N   UNL     1      46.015   5.876  11.424  0.00  0.00    +0.000 N 
ATOM     10  C   UNL     1      44.800   5.470  10.924  0.00  0.00    +0.000 C 
ATOM     11  O   UNL     1      43.753   6.033  11.227  0.00  0.00    +0.000 OA
ATOM     12  H   UNL     1      46.851   5.365  11.188  0.00  0.00    +0.000 HD
BRANCH  10  13
ATOM     13  C   UNL     1      44.831   4.341  10.015  0.00  0.00    +0.000 A 
ATOM     14  C   UNL     1      44.886   2.972  10.222  0.00  0.00    +0.000 A 
ATOM     15  C   UNL     1      44.927   2.336   8.955  0.00  0.00    +0.000 A 
ATOM     16  C   UNL     1      44.886   3.324   8.000  0.00  0.00    +0.000 A 
ATOM     17  N   UNL     1      44.814   4.527   8.647  0.00  0.00    +0.000 N 
ATOM     18  H   UNL     1      44.768   5.439   8.207  0.00  0.00    +0.000 HD
ENDBRANCH  10  13
ENDBRANCH   8   9
ENDBRANCH   5   8
ENDBRANCH   1   2
BRANCH   1  19
ATOM     19  N   UNL     1      48.941   6.203  18.087  0.00  0.00    +0.000 N 
ATOM     20  C   UNL     1      49.551   5.305  18.987  0.00  0.00    +0.000 C 
ATOM     21  O   UNL     1      48.998   5.011  20.047  0.00  0.00    +0.000 OA
BRANCH  20  22
ATOM     22  C   UNL     1      50.896   4.750  18.701  0.00  0.00    +0.000 A 
ATOM     23  C   UNL     1      52.112   5.255  19.142  0.00  0.00    +0.000 A 
ATOM     24  S   UNL     1      53.473   4.322  18.711  0.00  0.00    +0.000 S 
ATOM     25  C   UNL     1      52.482   3.115  18.063  0.00  0.00    +0.000 A 
ATOM     26  N   UNL     1      53.020   1.945  17.642  0.00  0.00    +0.000 NA
ATOM     27  C   UNL     1      52.136   1.077  17.241  0.00  0.00    +0.000 A 
ATOM     28  N   UNL     1      50.789   1.309  17.178  0.00  0.00    +0.000 N 
ATOM     29  C   UNL     1      50.224   2.537  17.439  0.00  0.00    +0.000 A 
ATOM     30  O   UNL     1      49.074   2.788  17.105  0.00  0.00    +0.000 OA
ATOM     31  C   UNL     1      51.146   3.480  18.052  0.00  0.00    +0.000 A 
ATOM     32  H   UNL     1      50.173   0.629  16.767  0.00  0.00    +0.000 HD
ENDBRANCH  20  22
BRANCH  19  34
ATOM     33  C   UNL     1      47.800   8.262  18.945  0.00  0.00    +0.000 C 
ATOM     34  C   UNL     1      47.670   6.817  18.483  0.00  0.00    +0.000 C 
ENDBRANCH  19  34
ENDBRANCH   1  19
TORSDOF 7
ENDMDL
