MODEL 1
REMARK VINA RESULT:    -8.465      0.000      0.000
REMARK INTER + INTRA:         -11.734
REMARK INTER:                 -10.940
REMARK INTRA:                  -0.794
REMARK UNBOUND:                -0.794
REMARK  Name = 
REMARK  6 active torsions:
REMARK  status: ('A' for Active; 'I' for Inactive)
REMARK    1  A    between atoms: C_1  and  C_2
REMARK    2  A    between atoms: C_2  and  C_3
REMARK    3  A    between atoms: C_5  and  C_6
REMARK    4  A    between atoms: N_12  and  C_13
REMARK    5  A    between atoms: C_13  and  C_14
REMARK    6  A    between atoms: C_14  and  C_17
REMARK                            x       y       z     vdW  Elec       q    Type
REMARK                         _______ _______ _______ _____ _____    ______ ____
ROOT
ATOM      1  C   UNL     1      47.751   6.590  13.819  0.00  0.00    +0.000 A 
ATOM      2  C   UNL     1      48.126   5.795  14.887  0.00  0.00    +0.000 A 
ATOM      3  C   UNL     1      47.363   4.669  15.142  0.00  0.00    +0.000 A 
ATOM      4  N   UNL     1      46.304   4.341  14.362  0.00  0.00    +0.000 NA
ATOM      5  C   UNL     1      46.004   5.151  13.346  0.00  0.00    +0.000 A 
ATOM      6  N   UNL     1      44.914   4.881  12.533  0.00  0.00    +0.000 N 
ATOM      7  N   UNL     1      46.693   6.258  13.047  0.00  0.00    +0.000 NA
ATOM      8  H   UNL     1      45.085   5.364  11.656  0.00  0.00    +0.000 HD
ENDROOT
BRANCH   1  10
ATOM      9  C   UNL     1      47.909   8.965  14.536  0.00  0.00    +0.000 C 
ATOM     10  C   UNL     1      48.470   7.922  13.537  0.00  0.00    +0.000 C 
ATOM     11  C   UNL     1      50.000   7.760  13.711  0.00  0.00    +0.000 C 
ATOM     12  C   UNL     1      50.770   8.996  13.256  0.00  0.00    +0.000 C 
ATOM     13  O   UNL     1      50.456   9.325  11.907  0.00  0.00    +0.000 OA
ATOM     14  C   UNL     1      49.073   9.617  11.721  0.00  0.00    +0.000 C 
ATOM     15  C   UNL     1      48.213   8.413  12.088  0.00  0.00    +0.000 C 
ENDBRANCH   1  10
BRANCH   3  16
ATOM     16  C   UNL     1      47.683   3.793  16.341  0.00  0.00    +0.000 C 
ATOM     17  F   UNL     1      48.689   4.296  17.117  0.00  0.00    +0.000 F 
ATOM     18  F   UNL     1      46.623   3.632  17.183  0.00  0.00    +0.000 F 
ATOM     19  F   UNL     1      48.087   2.540  15.993  0.00  0.00    +0.000 F 
ENDBRANCH   3  16
BRANCH   6  20
ATOM     20  C   UNL     1      44.553   3.460  12.428  0.00  0.00    +0.000 C 
BRANCH  20  21
ATOM     21  C   UNL     1      43.669   3.149  11.203  0.00  0.00    +0.000 C 
ATOM     22  F   UNL     1      43.010   1.971  11.461  0.00  0.00    +0.000 F 
ATOM     23  F   UNL     1      42.675   4.089  11.149  0.00  0.00    +0.000 F 
BRANCH  21  24
ATOM     24  C   UNL     1      44.468   3.099   9.915  0.00  0.00    +0.000 A 
ATOM     25  C   UNL     1      44.622   4.257   9.157  0.00  0.00    +0.000 A 
ATOM     26  N   UNL     1      45.324   4.300   7.996  0.00  0.00    +0.000 NA
ATOM     27  C   UNL     1      45.875   3.129   7.616  0.00  0.00    +0.000 A 
ATOM     28 CL   UNL     1      46.757   3.172   6.151  0.00  0.00    +0.000 Cl
ATOM     29  C   UNL     1      45.743   1.968   8.358  0.00  0.00    +0.000 A 
ATOM     30  N   UNL     1      45.047   1.925   9.524  0.00  0.00    +0.000 NA
ENDBRANCH  21  24
ENDBRANCH  20  21
ENDBRANCH   6  20
TORSDOF 5
ENDMDL
MODEL 2
REMARK VINA RESULT:    -8.439      2.786      4.249
REMARK INTER + INTRA:         -11.700
REMARK INTER:                 -10.857
REMARK INTRA:                  -0.843
REMARK UNBOUND:                -0.794
REMARK  Name = 
REMARK  6 active torsions:
REMARK  status: ('A' for Active; 'I' for Inactive)
REMARK    1  A    between atoms: C_1  and  C_2
REMARK    2  A    between atoms: C_2  and  C_3
REMARK    3  A    between atoms: C_5  and  C_6
REMARK    4  A    between atoms: N_12  and  C_13
REMARK    5  A    between atoms: C_13  and  C_14
REMARK    6  A    between atoms: C_14  and  C_17
REMARK                            x       y       z     vdW  Elec       q    Type
REMARK                         _______ _______ _______ _____ _____    ______ ____
ROOT
ATOM      1  C   UNL     1      47.717   5.023  15.809  0.00  0.00    +0.000 A 
ATOM      2  C   UNL     1      48.354   6.074  15.174  0.00  0.00    +0.000 A 
ATOM      3  C   UNL     1      47.962   6.368  13.880  0.00  0.00    +0.000 A 
ATOM      4  N   UNL     1      46.976   5.672  13.264  0.00  0.00    +0.000 NA
ATOM      5  C   UNL     1      46.402   4.675  13.939  0.00  0.00    +0.000 A 
ATOM      6  N   UNL     1      45.409   3.911  13.349  0.00  0.00    +0.000 N 
ATOM      7  N   UNL     1      46.736   4.332  15.189  0.00  0.00    +0.000 NA
ATOM      8  H   UNL     1      44.877   3.495  14.109  0.00  0.00    +0.000 HD
ENDROOT
BRANCH   1  10
ATOM      9  C   UNL     1      47.601   3.127  17.412  0.00  0.00    +0.000 C 
ATOM     10  C   UNL     1      48.171   4.552  17.203  0.00  0.00    +0.000 C 
ATOM     11  C   UNL     1      49.716   4.546  17.297  0.00  0.00    +0.000 C 
ATOM     12  C   UNL     1      50.210   4.274  18.714  0.00  0.00    +0.000 C 
ATOM     13  O   UNL     1      49.661   5.209  19.635  0.00  0.00    +0.000 OA
ATOM     14  C   UNL     1      48.237   5.158  19.685  0.00  0.00    +0.000 C 
ATOM     15  C   UNL     1      47.638   5.485  18.322  0.00  0.00    +0.000 C 
ENDBRANCH   1  10
BRANCH   3  16
ATOM     16  C   UNL     1      48.670   7.467  13.106  0.00  0.00    +0.000 C 
ATOM     17  F   UNL     1      49.744   7.011  12.392  0.00  0.00    +0.000 F 
ATOM     18  F   UNL     1      47.866   8.082  12.194  0.00  0.00    +0.000 F 
ATOM     19  F   UNL     1      49.162   8.452  13.907  0.00  0.00    +0.000 F 
ENDBRANCH   3  16
BRANCH   6  20
ATOM     20  C   UNL     1      44.625   4.600  12.314  0.00  0.00    +0.000 C 
BRANCH  20  21
ATOM     21  C   UNL     1      43.886   3.631  11.367  0.00  0.00    +0.000 C 
ATOM     22  F   UNL     1      43.704   2.451  12.049  0.00  0.00    +0.000 F 
ATOM     23  F   UNL     1      42.618   4.111  11.176  0.00  0.00    +0.000 F 
BRANCH  21  24
ATOM     24  C   UNL     1      44.620   3.438  10.055  0.00  0.00    +0.000 A 
ATOM     25  C   UNL     1      44.970   4.550   9.293  0.00  0.00    +0.000 A 
ATOM     26  N   UNL     1      45.631   4.466   8.110  0.00  0.00    +0.000 NA
ATOM     27  C   UNL     1      45.934   3.214   7.712  0.00  0.00    +0.000 A 
ATOM     28 CL   UNL     1      46.761   3.097   6.219  0.00  0.00    +0.000 Cl
ATOM     29  C   UNL     1      45.604   2.094   8.455  0.00  0.00    +0.000 A 
ATOM     30  N   UNL     1      44.949   2.178   9.643  0.00  0.00    +0.000 NA
ENDBRANCH  21  24
ENDBRANCH  20  21
ENDBRANCH   6  20
TORSDOF 5
ENDMDL
MODEL 3
REMARK VINA RESULT:    -8.065      4.563      7.713
REMARK INTER + INTRA:         -11.216
REMARK INTER:                 -10.342
REMARK INTRA:                  -0.875
REMARK UNBOUND:                -0.794
REMARK  Name = 
REMARK  6 active torsions:
REMARK  status: ('A' for Active; 'I' for Inactive)
REMARK    1  A    between atoms: C_1  and  C_2
REMARK    2  A    between atoms: C_2  and  C_3
REMARK    3  A    between atoms: C_5  and  C_6
REMARK    4  A    between atoms: N_12  and  C_13
REMARK    5  A    between atoms: C_13  and  C_14
REMARK    6  A    between atoms: C_14  and  C_17
REMARK                            x       y       z     vdW  Elec       q    Type
REMARK                         _______ _______ _______ _____ _____    ______ ____
ROOT
ATOM      1  C   UNL     1      46.394   5.391  12.806  0.00  0.00    +0.000 A 
ATOM      2  C   UNL     1      47.422   6.248  12.457  0.00  0.00    +0.000 A 
ATOM      3  C   UNL     1      48.368   6.537  13.424  0.00  0.00    +0.000 A 
ATOM      4  N   UNL     1      48.307   5.983  14.660  0.00  0.00    +0.000 NA
ATOM      5  C   UNL     1      47.290   5.161  14.925  0.00  0.00    +0.000 A 
ATOM      6  N   UNL     1      47.161   4.589  16.181  0.00  0.00    +0.000 N 
ATOM      7  N   UNL     1      46.338   4.845  14.040  0.00  0.00    +0.000 NA
ATOM      8  H   UNL     1      46.590   3.758  16.059  0.00  0.00    +0.000 HD
ENDROOT
BRANCH   1  10
ATOM      9  C   UNL     1      45.558   5.854  10.512  0.00  0.00    +0.000 C 
ATOM     10  C   UNL     1      45.235   5.110  11.831  0.00  0.00    +0.000 C 
ATOM     11  C   UNL     1      45.092   3.588  11.585  0.00  0.00    +0.000 C 
ATOM     12  C   UNL     1      43.841   3.246  10.782  0.00  0.00    +0.000 C 
ATOM     13  O   UNL     1      42.673   3.759  11.413  0.00  0.00    +0.000 OA
ATOM     14  C   UNL     1      42.697   5.179  11.541  0.00  0.00    +0.000 C 
ATOM     15  C   UNL     1      43.882   5.623  12.390  0.00  0.00    +0.000 C 
ENDBRANCH   1  10
BRANCH   3  16
ATOM     16  C   UNL     1      49.483   7.523  13.123  0.00  0.00    +0.000 C 
ATOM     17  F   UNL     1      49.056   8.822  13.105  0.00  0.00    +0.000 F 
ATOM     18  F   UNL     1      50.490   7.488  14.041  0.00  0.00    +0.000 F 
ATOM     19  F   UNL     1      50.064   7.317  11.910  0.00  0.00    +0.000 F 
ENDBRANCH   3  16
BRANCH   6  20
ATOM     20  C   UNL     1      48.422   4.405  16.914  0.00  0.00    +0.000 C 
BRANCH  20  21
ATOM     21  C   UNL     1      48.734   2.926  17.220  0.00  0.00    +0.000 C 
ATOM     22  F   UNL     1      47.975   2.563  18.308  0.00  0.00    +0.000 F 
ATOM     23  F   UNL     1      48.238   2.167  16.193  0.00  0.00    +0.000 F 
BRANCH  21  24
ATOM     24  C   UNL     1      50.215   2.683  17.436  0.00  0.00    +0.000 A 
ATOM     25  C   UNL     1      51.034   3.737  17.831  0.00  0.00    +0.000 A 
ATOM     26  N   UNL     1      52.367   3.605  18.050  0.00  0.00    +0.000 NA
ATOM     27  C   UNL     1      52.858   2.363  17.858  0.00  0.00    +0.000 A 
ATOM     28 CL   UNL     1      54.538   2.187  18.125  0.00  0.00    +0.000 Cl
ATOM     29  C   UNL     1      52.062   1.298  17.474  0.00  0.00    +0.000 A 
ATOM     30  N   UNL     1      50.726   1.428  17.262  0.00  0.00    +0.000 NA
ENDBRANCH  21  24
ENDBRANCH  20  21
ENDBRANCH   6  20
TORSDOF 5
ENDMDL
MODEL 4
REMARK VINA RESULT:    -7.907      4.198      7.636
REMARK INTER + INTRA:         -11.013
REMARK INTER:                 -10.276
REMARK INTRA:                  -0.736
REMARK UNBOUND:                -0.794
REMARK  Name = 
REMARK  6 active torsions:
REMARK  status: ('A' for Active; 'I' for Inactive)
REMARK    1  A    between atoms: C_1  and  C_2
REMARK    2  A    between atoms: C_2  and  C_3
REMARK    3  A    between atoms: C_5  and  C_6
REMARK    4  A    between atoms: N_12  and  C_13
REMARK    5  A    between atoms: C_13  and  C_14
REMARK    6  A    between atoms: C_14  and  C_17
REMARK                            x       y       z     vdW  Elec       q    Type
REMARK                         _______ _______ _______ _____ _____    ______ ____
ROOT
ATOM      1  C   UNL     1      45.572   5.184  11.693  0.00  0.00    +0.000 A 
ATOM      2  C   UNL     1      45.796   6.548  11.638  0.00  0.00    +0.000 A 
ATOM      3  C   UNL     1      46.298   7.157  12.775  0.00  0.00    +0.000 A 
ATOM      4  N   UNL     1      46.584   6.444  13.891  0.00  0.00    +0.000 NA
ATOM      5  C   UNL     1      46.349   5.132  13.871  0.00  0.00    +0.000 A 
ATOM      6  N   UNL     1      46.596   4.357  14.993  0.00  0.00    +0.000 N 
ATOM      7  N   UNL     1      45.858   4.480  12.810  0.00  0.00    +0.000 NA
ATOM      8  H   UNL     1      46.712   3.403  14.663  0.00  0.00    +0.000 HD
ENDROOT
BRANCH   1  10
ATOM      9  C   UNL     1      43.415   4.866  10.501  0.00  0.00    +0.000 C 
ATOM     10  C   UNL     1      44.905   4.446  10.517  0.00  0.00    +0.000 C 
ATOM     11  C   UNL     1      45.597   4.817   9.182  0.00  0.00    +0.000 C 
ATOM     12  C   UNL     1      45.101   3.967   8.016  0.00  0.00    +0.000 C 
ATOM     13  O   UNL     1      45.262   2.580   8.290  0.00  0.00    +0.000 OA
ATOM     14  C   UNL     1      44.530   2.159   9.440  0.00  0.00    +0.000 C 
ATOM     15  C   UNL     1      45.001   2.906  10.682  0.00  0.00    +0.000 C 
ENDBRANCH   1  10
BRANCH   3  16
ATOM     16  C   UNL     1      46.501   8.662  12.800  0.00  0.00    +0.000 C 
ATOM     17  F   UNL     1      47.282   9.078  13.842  0.00  0.00    +0.000 F 
ATOM     18  F   UNL     1      47.112   9.138  11.679  0.00  0.00    +0.000 F 
ATOM     19  F   UNL     1      45.335   9.355  12.924  0.00  0.00    +0.000 F 
ENDBRANCH   3  16
BRANCH   6  20
ATOM     20  C   UNL     1      47.651   4.867  15.881  0.00  0.00    +0.000 C 
BRANCH  20  21
ATOM     21  C   UNL     1      47.795   4.049  17.181  0.00  0.00    +0.000 C 
ATOM     22  F   UNL     1      47.550   4.902  18.231  0.00  0.00    +0.000 F 
ATOM     23  F   UNL     1      46.765   3.147  17.230  0.00  0.00    +0.000 F 
BRANCH  21  24
ATOM     24  C   UNL     1      49.146   3.369  17.286  0.00  0.00    +0.000 A 
ATOM     25  C   UNL     1      49.348   2.141  16.662  0.00  0.00    +0.000 A 
ATOM     26  N   UNL     1      50.526   1.469  16.703  0.00  0.00    +0.000 NA
ATOM     27  C   UNL     1      51.508   2.077  17.399  0.00  0.00    +0.000 A 
ATOM     28 CL   UNL     1      52.995   1.233  17.462  0.00  0.00    +0.000 Cl
ATOM     29  C   UNL     1      51.334   3.300  18.021  0.00  0.00    +0.000 A 
ATOM     30  N   UNL     1      50.157   3.978  17.974  0.00  0.00    +0.000 NA
ENDBRANCH  21  24
ENDBRANCH  20  21
ENDBRANCH   6  20
TORSDOF 5
ENDMDL
MODEL 5
REMARK VINA RESULT:    -7.548      4.606      7.953
REMARK INTER + INTRA:         -10.548
REMARK INTER:                  -9.585
REMARK INTRA:                  -0.963
REMARK UNBOUND:                -0.794
REMARK  Name = 
REMARK  6 active torsions:
REMARK  status: ('A' for Active; 'I' for Inactive)
REMARK    1  A    between atoms: C_1  and  C_2
REMARK    2  A    between atoms: C_2  and  C_3
REMARK    3  A    between atoms: C_5  and  C_6
REMARK    4  A    between atoms: N_12  and  C_13
REMARK    5  A    between atoms: C_13  and  C_14
REMARK    6  A    between atoms: C_14  and  C_17
REMARK                            x       y       z     vdW  Elec       q    Type
REMARK                         _______ _______ _______ _____ _____    ______ ____
ROOT
ATOM      1  C   UNL     1      46.288   5.161  13.178  0.00  0.00    +0.000 A 
ATOM      2  C   UNL     1      47.268   6.135  13.132  0.00  0.00    +0.000 A 
ATOM      3  C   UNL     1      48.186   6.165  14.168  0.00  0.00    +0.000 A 
ATOM      4  N   UNL     1      48.144   5.260  15.176  0.00  0.00    +0.000 NA
ATOM      5  C   UNL     1      47.174   4.345  15.152  0.00  0.00    +0.000 A 
ATOM      6  N   UNL     1      47.066   3.413  16.172  0.00  0.00    +0.000 N 
ATOM      7  N   UNL     1      46.251   4.263  14.187  0.00  0.00    +0.000 NA
ATOM      8  H   UNL     1      46.544   2.629  15.789  0.00  0.00    +0.000 HD
ENDROOT
BRANCH   1  10
ATOM      9  C   UNL     1      45.497   6.194  11.061  0.00  0.00    +0.000 C 
ATOM     10  C   UNL     1      45.157   5.129  12.132  0.00  0.00    +0.000 C 
ATOM     11  C   UNL     1      45.048   3.722  11.496  0.00  0.00    +0.000 C 
ATOM     12  C   UNL     1      43.822   3.586  10.598  0.00  0.00    +0.000 C 
ATOM     13  O   UNL     1      42.630   3.903  11.308  0.00  0.00    +0.000 OA
ATOM     14  C   UNL     1      42.626   5.241  11.802  0.00  0.00    +0.000 C 
ATOM     15  C   UNL     1      43.783   5.463  12.769  0.00  0.00    +0.000 C 
ENDBRANCH   1  10
BRANCH   3  16
ATOM     16  C   UNL     1      49.245   7.252  14.210  0.00  0.00    +0.000 C 
ATOM     17  F   UNL     1      49.774   7.532  12.980  0.00  0.00    +0.000 F 
ATOM     18  F   UNL     1      48.772   8.442  14.677  0.00  0.00    +0.000 F 
ATOM     19  F   UNL     1      50.310   6.930  14.996  0.00  0.00    +0.000 F 
ENDBRANCH   3  16
BRANCH   6  20
ATOM     20  C   UNL     1      48.327   3.080  16.848  0.00  0.00    +0.000 C 
BRANCH  20  21
ATOM     21  C   UNL     1      48.482   3.777  18.216  0.00  0.00    +0.000 C 
ATOM     22  F   UNL     1      47.424   4.642  18.358  0.00  0.00    +0.000 F 
ATOM     23  F   UNL     1      48.287   2.838  19.194  0.00  0.00    +0.000 F 
BRANCH  21  24
ATOM     24  C   UNL     1      49.824   4.469  18.360  0.00  0.00    +0.000 A 
ATOM     25  C   UNL     1      50.180   5.031  19.583  0.00  0.00    +0.000 A 
ATOM     26  N   UNL     1      51.362   5.663  19.797  0.00  0.00    +0.000 NA
ATOM     27  C   UNL     1      52.186   5.714  18.730  0.00  0.00    +0.000 A 
ATOM     28 CL   UNL     1      53.675   6.515  18.989  0.00  0.00    +0.000 Cl
ATOM     29  C   UNL     1      51.857   5.156  17.507  0.00  0.00    +0.000 A 
ATOM     30  N   UNL     1      50.678   4.516  17.294  0.00  0.00    +0.000 NA
ENDBRANCH  21  24
ENDBRANCH  20  21
ENDBRANCH   6  20
TORSDOF 5
ENDMDL
MODEL 6
REMARK VINA RESULT:    -7.355      1.698      2.300
REMARK INTER + INTRA:         -10.298
REMARK INTER:                  -9.550
REMARK INTRA:                  -0.749
REMARK UNBOUND:                -0.794
REMARK  Name = 
REMARK  6 active torsions:
REMARK  status: ('A' for Active; 'I' for Inactive)
REMARK    1  A    between atoms: C_1  and  C_2
REMARK    2  A    between atoms: C_2  and  C_3
REMARK    3  A    between atoms: C_5  and  C_6
REMARK    4  A    between atoms: N_12  and  C_13
REMARK    5  A    between atoms: C_13  and  C_14
REMARK    6  A    between atoms: C_14  and  C_17
REMARK                            x       y       z     vdW  Elec       q    Type
REMARK                         _______ _______ _______ _____ _____    ______ ____
ROOT
ATOM      1  C   UNL     1      48.580   6.243  15.636  0.00  0.00    +0.000 A 
ATOM      2  C   UNL     1      48.720   5.186  16.517  0.00  0.00    +0.000 A 
ATOM      3  C   UNL     1      47.896   4.090  16.333  0.00  0.00    +0.000 A 
ATOM      4  N   UNL     1      47.003   4.039  15.315  0.00  0.00    +0.000 NA
ATOM      5  C   UNL     1      46.927   5.092  14.500  0.00  0.00    +0.000 A 
ATOM      6  N   UNL     1      46.012   5.107  13.459  0.00  0.00    +0.000 N 
ATOM      7  N   UNL     1      47.687   6.186  14.624  0.00  0.00    +0.000 NA
ATOM      8  H   UNL     1      46.362   5.777  12.780  0.00  0.00    +0.000 HD
ENDROOT
BRANCH   1  10
ATOM      9  C   UNL     1      50.787   7.154  16.325  0.00  0.00    +0.000 C 
ATOM     10  C   UNL     1      49.371   7.549  15.838  0.00  0.00    +0.000 C 
ATOM     11  C   UNL     1      49.446   8.346  14.513  0.00  0.00    +0.000 C 
ATOM     12  C   UNL     1      50.050   9.734  14.705  0.00  0.00    +0.000 C 
ATOM     13  O   UNL     1      49.333  10.472  15.689  0.00  0.00    +0.000 OA
ATOM     14  C   UNL     1      49.349   9.841  16.968  0.00  0.00    +0.000 C 
ATOM     15  C   UNL     1      48.702   8.463  16.897  0.00  0.00    +0.000 C 
ENDBRANCH   1  10
BRANCH   3  16
ATOM     16  C   UNL     1      47.954   2.927  17.309  0.00  0.00    +0.000 C 
ATOM     17  F   UNL     1      48.591   3.241  18.478  0.00  0.00    +0.000 F 
ATOM     18  F   UNL     1      46.722   2.477  17.679  0.00  0.00    +0.000 F 
ATOM     19  F   UNL     1      48.621   1.848  16.813  0.00  0.00    +0.000 F 
ENDBRANCH   3  16
BRANCH   6  20
ATOM     20  C   UNL     1      45.645   3.784  12.933  0.00  0.00    +0.000 C 
BRANCH  20  21
ATOM     21  C   UNL     1      44.466   3.834  11.940  0.00  0.00    +0.000 C 
ATOM     22  F   UNL     1      43.581   2.847  12.306  0.00  0.00    +0.000 F 
ATOM     23  F   UNL     1      43.781   5.000  12.155  0.00  0.00    +0.000 F 
BRANCH  21  24
ATOM     24  C   UNL     1      44.920   3.704  10.500  0.00  0.00    +0.000 A 
ATOM     25  C   UNL     1      44.924   2.452   9.890  0.00  0.00    +0.000 A 
ATOM     26  N   UNL     1      45.311   2.250   8.605  0.00  0.00    +0.000 NA
ATOM     27  C   UNL     1      45.700   3.359   7.943  0.00  0.00    +0.000 A 
ATOM     28 CL   UNL     1      46.196   3.113   6.324  0.00  0.00    +0.000 Cl
ATOM     29  C   UNL     1      45.697   4.614   8.525  0.00  0.00    +0.000 A 
ATOM     30  N   UNL     1      45.302   4.819   9.809  0.00  0.00    +0.000 NA
ENDBRANCH  21  24
ENDBRANCH  20  21
ENDBRANCH   6  20
TORSDOF 5
ENDMDL
MODEL 7
REMARK VINA RESULT:    -6.979      4.463      7.871
REMARK INTER + INTRA:          -9.812
REMARK INTER:                  -8.755
REMARK INTRA:                  -1.057
REMARK UNBOUND:                -0.794
REMARK  Name = 
REMARK  6 active torsions:
REMARK  status: ('A' for Active; 'I' for Inactive)
REMARK    1  A    between atoms: C_1  and  C_2
REMARK    2  A    between atoms: C_2  and  C_3
REMARK    3  A    between atoms: C_5  and  C_6
REMARK    4  A    between atoms: N_12  and  C_13
REMARK    5  A    between atoms: C_13  and  C_14
REMARK    6  A    between atoms: C_14  and  C_17
REMARK                            x       y       z     vdW  Elec       q    Type
REMARK                         _______ _______ _______ _____ _____    ______ ____
ROOT
ATOM      1  C   UNL     1      46.293   5.402  13.221  0.00  0.00    +0.000 A 
ATOM      2  C   UNL     1      46.395   4.537  14.296  0.00  0.00    +0.000 A 
ATOM      3  C   UNL     1      47.470   4.706  15.151  0.00  0.00    +0.000 A 
ATOM      4  N   UNL     1      48.376   5.695  14.960  0.00  0.00    +0.000 NA
ATOM      5  C   UNL     1      48.213   6.496  13.906  0.00  0.00    +0.000 A 
ATOM      6  N   UNL     1      49.125   7.506  13.646  0.00  0.00    +0.000 N 
ATOM      7  N   UNL     1      47.202   6.385  13.036  0.00  0.00    +0.000 NA
ATOM      8  H   UNL     1      48.639   8.189  13.071  0.00  0.00    +0.000 HD
ENDROOT
BRANCH   1  10
ATOM      9  C   UNL     1      45.499   6.207  11.009  0.00  0.00    +0.000 C 
ATOM     10  C   UNL     1      45.198   5.212  12.156  0.00  0.00    +0.000 C 
ATOM     11  C   UNL     1      45.197   3.754  11.635  0.00  0.00    +0.000 C 
ATOM     12  C   UNL     1      44.008   3.466  10.723  0.00  0.00    +0.000 C 
ATOM     13  O   UNL     1      42.779   3.760  11.376  0.00  0.00    +0.000 OA
ATOM     14  C   UNL     1      42.675   5.130  11.758  0.00  0.00    +0.000 C 
ATOM     15  C   UNL     1      43.787   5.505  12.730  0.00  0.00    +0.000 C 
ENDBRANCH   1  10
BRANCH   3  16
ATOM     16  C   UNL     1      47.674   3.746  16.310  0.00  0.00    +0.000 C 
ATOM     17  F   UNL     1      48.581   4.200  17.227  0.00  0.00    +0.000 F 
ATOM     18  F   UNL     1      46.533   3.511  17.017  0.00  0.00    +0.000 F 
ATOM     19  F   UNL     1      48.137   2.527  15.917  0.00  0.00    +0.000 F 
ENDBRANCH   3  16
BRANCH   6  20
ATOM     20  C   UNL     1      49.823   8.035  14.826  0.00  0.00    +0.000 C 
BRANCH  20  21
ATOM     21  C   UNL     1      49.085   9.218  15.487  0.00  0.00    +0.000 C 
ATOM     22  F   UNL     1      49.921  10.307  15.427  0.00  0.00    +0.000 F 
ATOM     23  F   UNL     1      48.028   9.558  14.685  0.00  0.00    +0.000 F 
BRANCH  21  24
ATOM     24  C   UNL     1      48.641   8.902  16.901  0.00  0.00    +0.000 A 
ATOM     25  C   UNL     1      49.074   7.727  17.511  0.00  0.00    +0.000 A 
ATOM     26  N   UNL     1      48.726   7.371  18.774  0.00  0.00    +0.000 NA
ATOM     27  C   UNL     1      47.921   8.243  19.414  0.00  0.00    +0.000 A 
ATOM     28 CL   UNL     1      47.473   7.800  21.004  0.00  0.00    +0.000 Cl
ATOM     29  C   UNL     1      47.485   9.420  18.832  0.00  0.00    +0.000 A 
ATOM     30  N   UNL     1      47.838   9.781  17.570  0.00  0.00    +0.000 NA
ENDBRANCH  21  24
ENDBRANCH  20  21
ENDBRANCH   6  20
TORSDOF 5
ENDMDL
MODEL 8
REMARK VINA RESULT:    -6.515      4.796      7.777
REMARK INTER + INTRA:          -9.214
REMARK INTER:                  -7.975
REMARK INTRA:                  -1.239
REMARK UNBOUND:                -0.794
REMARK  Name = 
REMARK  6 active torsions:
REMARK  status: ('A' for Active; 'I' for Inactive)
REMARK    1  A    between atoms: C_1  and  C_2
REMARK    2  A    between atoms: C_2  and  C_3
REMARK    3  A    between atoms: C_5  and  C_6
REMARK    4  A    between atoms: N_12  and  C_13
REMARK    5  A    between atoms: C_13  and  C_14
REMARK    6  A    between atoms: C_14  and  C_17
REMARK                            x       y       z     vdW  Elec       q    Type
REMARK                         _______ _______ _______ _____ _____    ______ ____
ROOT
ATOM      1  C   UNL     1      46.850   7.357  12.500  0.00  0.00    +0.000 A 
ATOM      2  C   UNL     1      48.037   7.399  11.792  0.00  0.00    +0.000 A 
ATOM      3  C   UNL     1      49.099   8.074  12.367  0.00  0.00    +0.000 A 
ATOM      4  N   UNL     1      48.991   8.651  13.589  0.00  0.00    +0.000 NA
ATOM      5  C   UNL     1      47.818   8.566  14.217  0.00  0.00    +0.000 A 
ATOM      6  N   UNL     1      47.642   9.162  15.456  0.00  0.00    +0.000 N 
ATOM      7  N   UNL     1      46.749   7.936  13.717  0.00  0.00    +0.000 NA
ATOM      8  H   UNL     1      46.863   8.681  15.897  0.00  0.00    +0.000 HD
ENDROOT
BRANCH   1  10
ATOM      9  C   UNL     1      44.669   7.897  11.438  0.00  0.00    +0.000 C 
ATOM     10  C   UNL     1      45.585   6.731  11.884  0.00  0.00    +0.000 C 
ATOM     11  C   UNL     1      45.957   5.831  10.680  0.00  0.00    +0.000 C 
ATOM     12  C   UNL     1      44.763   5.038  10.158  0.00  0.00    +0.000 C 
ATOM     13  O   UNL     1      44.173   4.262  11.194  0.00  0.00    +0.000 OA
ATOM     14  C   UNL     1      43.689   5.061  12.272  0.00  0.00    +0.000 C 
ATOM     15  C   UNL     1      44.827   5.849  12.911  0.00  0.00    +0.000 C 
ENDBRANCH   1  10
BRANCH   3  16
ATOM     16  C   UNL     1      50.408   8.214  11.609  0.00  0.00    +0.000 C 
ATOM     17  F   UNL     1      50.513   9.401  10.939  0.00  0.00    +0.000 F 
ATOM     18  F   UNL     1      51.503   8.158  12.418  0.00  0.00    +0.000 F 
ATOM     19  F   UNL     1      50.582   7.249  10.664  0.00  0.00    +0.000 F 
ENDBRANCH   3  16
BRANCH   6  20
ATOM     20  C   UNL     1      48.863   9.291  16.264  0.00  0.00    +0.000 C 
BRANCH  20  21
ATOM     21  C   UNL     1      48.726   8.673  17.671  0.00  0.00    +0.000 C 
ATOM     22  F   UNL     1      49.896   8.926  18.346  0.00  0.00    +0.000 F 
ATOM     23  F   UNL     1      47.779   9.387  18.356  0.00  0.00    +0.000 F 
BRANCH  21  24
ATOM     24  C   UNL     1      48.391   7.196  17.620  0.00  0.00    +0.000 A 
ATOM     25  C   UNL     1      47.634   6.626  18.640  0.00  0.00    +0.000 A 
ATOM     26  N   UNL     1      47.286   5.315  18.669  0.00  0.00    +0.000 NA
ATOM     27  C   UNL     1      47.728   4.582  17.626  0.00  0.00    +0.000 A 
ATOM     28 CL   UNL     1      47.301   2.926  17.656  0.00  0.00    +0.000 Cl
ATOM     29  C   UNL     1      48.475   5.127  16.596  0.00  0.00    +0.000 A 
ATOM     30  N   UNL     1      48.817   6.442  16.563  0.00  0.00    +0.000 NA
ENDBRANCH  21  24
ENDBRANCH  20  21
ENDBRANCH   6  20
TORSDOF 5
ENDMDL
MODEL 9
REMARK VINA RESULT:    -6.469      3.613      5.275
REMARK INTER + INTRA:          -9.154
REMARK INTER:                  -8.101
REMARK INTRA:                  -1.053
REMARK UNBOUND:                -0.794
REMARK  Name = 
REMARK  6 active torsions:
REMARK  status: ('A' for Active; 'I' for Inactive)
REMARK    1  A    between atoms: C_1  and  C_2
REMARK    2  A    between atoms: C_2  and  C_3
REMARK    3  A    between atoms: C_5  and  C_6
REMARK    4  A    between atoms: N_12  and  C_13
REMARK    5  A    between atoms: C_13  and  C_14
REMARK    6  A    between atoms: C_14  and  C_17
REMARK                            x       y       z     vdW  Elec       q    Type
REMARK                         _______ _______ _______ _____ _____    ______ ____
ROOT
ATOM      1  C   UNL     1      49.000   6.382  16.189  0.00  0.00    +0.000 A 
ATOM      2  C   UNL     1      49.251   7.727  16.392  0.00  0.00    +0.000 A 
ATOM      3  C   UNL     1      49.014   8.587  15.334  0.00  0.00    +0.000 A 
ATOM      4  N   UNL     1      48.531   8.136  14.151  0.00  0.00    +0.000 NA
ATOM      5  C   UNL     1      48.307   6.827  14.027  0.00  0.00    +0.000 A 
ATOM      6  N   UNL     1      47.841   6.305  12.831  0.00  0.00    +0.000 N 
ATOM      7  N   UNL     1      48.521   5.939  15.006  0.00  0.00    +0.000 NA
ATOM      8  H   UNL     1      47.400   5.418  13.058  0.00  0.00    +0.000 HD
ENDROOT
BRANCH   1  10
ATOM      9  C   UNL     1      50.892   5.251  17.337  0.00  0.00    +0.000 C 
ATOM     10  C   UNL     1      49.347   5.342  17.270  0.00  0.00    +0.000 C 
ATOM     11  C   UNL     1      48.761   5.767  18.639  0.00  0.00    +0.000 C 
ATOM     12  C   UNL     1      48.911   4.679  19.697  0.00  0.00    +0.000 C 
ATOM     13  O   UNL     1      48.322   3.459  19.262  0.00  0.00    +0.000 OA
ATOM     14  C   UNL     1      48.923   2.953  18.072  0.00  0.00    +0.000 C 
ATOM     15  C   UNL     1      48.766   3.946  16.926  0.00  0.00    +0.000 C 
ENDBRANCH   1  10
BRANCH   3  16
ATOM     16  C   UNL     1      49.334  10.065  15.473  0.00  0.00    +0.000 C 
ATOM     17  F   UNL     1      48.501  10.713  16.343  0.00  0.00    +0.000 F 
ATOM     18  F   UNL     1      50.593  10.298  15.940  0.00  0.00    +0.000 F 
ATOM     19  F   UNL     1      49.230  10.746  14.299  0.00  0.00    +0.000 F 
ENDBRANCH   3  16
BRANCH   6  20
ATOM     20  C   UNL     1      47.044   7.233  12.016  0.00  0.00    +0.000 C 
BRANCH  20  21
ATOM     21  C   UNL     1      45.557   6.833  11.922  0.00  0.00    +0.000 C 
ATOM     22  F   UNL     1      45.045   6.856  13.197  0.00  0.00    +0.000 F 
ATOM     23  F   UNL     1      44.890   7.835  11.270  0.00  0.00    +0.000 F 
BRANCH  21  24
ATOM     24  C   UNL     1      45.365   5.492  11.241  0.00  0.00    +0.000 A 
ATOM     25  C   UNL     1      45.424   5.412   9.852  0.00  0.00    +0.000 A 
ATOM     26  N   UNL     1      45.267   4.252   9.165  0.00  0.00    +0.000 NA
ATOM     27  C   UNL     1      45.048   3.160   9.926  0.00  0.00    +0.000 A 
ATOM     28 CL   UNL     1      44.843   1.695   9.068  0.00  0.00    +0.000 Cl
ATOM     29  C   UNL     1      44.994   3.214  11.308  0.00  0.00    +0.000 A 
ATOM     30  N   UNL     1      45.158   4.373  11.997  0.00  0.00    +0.000 NA
ENDBRANCH  21  24
ENDBRANCH  20  21
ENDBRANCH   6  20
TORSDOF 5
ENDMDL
