MODEL 1
REMARK VINA RESULT:    -8.499      0.000      0.000
REMARK INTER + INTRA:         -13.005
REMARK INTER:                 -11.976
REMARK INTRA:                  -1.029
REMARK UNBOUND:                -1.029
REMARK  Name = 
REMARK  7 active torsions:
REMARK  status: ('A' for Active; 'I' for Inactive)
REMARK    1  A    between atoms: C_2  and  C_20
REMARK    2  A    between atoms: N_3  and  C_4
REMARK    3  A    between atoms: C_4  and  C_5
REMARK    4  A    between atoms: N_8  and  C_9
REMARK    5  A    between atoms: C_9  and  N_10
REMARK    6  A    between atoms: N_10  and  C_11
REMARK    7  A    between atoms: C_11  and  C_12
REMARK                            x       y       z     vdW  Elec       q    Type
REMARK                         _______ _______ _______ _____ _____    ______ ____
ROOT
ATOM      1  C   UNL     1      46.596   6.411  12.425  0.00  0.00    +0.000 C 
ENDROOT
BRANCH   1   2
ATOM      2  C   UNL     1      45.098   6.733  12.305  0.00  0.00    +0.000 C 
ATOM      3  C   UNL     1      44.232   5.907  13.266  0.00  0.00    +0.000 C 
ATOM      4  C   UNL     1      44.175   4.432  12.870  0.00  0.00    +0.000 C 
ATOM      5  N   UNL     1      43.688   4.260  11.488  0.00  0.00    +0.000 NA
ATOM      6  C   UNL     1      44.538   4.993  10.536  0.00  0.00    +0.000 C 
ATOM      7  C   UNL     1      44.607   6.488  10.874  0.00  0.00    +0.000 C 
BRANCH   5   8
ATOM      8  C   UNL     1      43.638   2.842  11.131  0.00  0.00    +0.000 C 
BRANCH   8   9
ATOM      9  N   UNL     1      44.861   2.529  10.417  0.00  0.00    +0.000 NA
ATOM     10  H   UNL     1      45.459   1.991  11.039  0.00  0.00    +0.000 HD
BRANCH   9  11
ATOM     11  C   UNL     1      44.611   1.793   9.187  0.00  0.00    +0.000 C 
BRANCH  11  12
ATOM     12  C   UNL     1      45.679   2.071   8.152  0.00  0.00    +0.000 A 
ATOM     13  C   UNL     1      45.743   3.311   7.500  0.00  0.00    +0.000 A 
ATOM     14  C   UNL     1      46.751   3.572   6.568  0.00  0.00    +0.000 A 
ATOM     15  C   UNL     1      47.706   2.601   6.276  0.00  0.00    +0.000 A 
ATOM     16  C   UNL     1      47.652   1.363   6.914  0.00  0.00    +0.000 A 
ATOM     17  C   UNL     1      46.645   1.099   7.846  0.00  0.00    +0.000 A 
ENDBRANCH  11  12
ENDBRANCH   9  11
ENDBRANCH   8   9
ENDBRANCH   5   8
ENDBRANCH   1   2
BRANCH   1  20
ATOM     18  O   UNL     1      49.212   6.628  13.450  0.00  0.00    +0.000 OA
ATOM     19  C   UNL     1      48.287   6.392  14.222  0.00  0.00    +0.000 C 
ATOM     20  N   UNL     1      46.994   6.219  13.799  0.00  0.00    +0.000 N 
ATOM     21  H   UNL     1      46.249   6.259  14.487  0.00  0.00    +0.000 HD
BRANCH  19  22
ATOM     22  C   UNL     1      48.515   6.214  15.659  0.00  0.00    +0.000 A 
ATOM     23  C   UNL     1      49.007   7.265  16.418  0.00  0.00    +0.000 A 
ATOM     24  S   UNL     1      49.228   6.869  18.063  0.00  0.00    +0.000 S 
ATOM     25  C   UNL     1      48.637   5.291  17.820  0.00  0.00    +0.000 A 
ATOM     26  N   UNL     1      48.535   4.413  18.854  0.00  0.00    +0.000 NA
ATOM     27  C   UNL     1      48.037   3.265  18.531  0.00  0.00    +0.000 A 
ATOM     28  N   UNL     1      47.641   2.912  17.268  0.00  0.00    +0.000 N 
ATOM     29  C   UNL     1      47.772   3.747  16.187  0.00  0.00    +0.000 A 
ATOM     30  O   UNL     1      47.491   3.365  15.055  0.00  0.00    +0.000 OA
ATOM     31  C   UNL     1      48.296   5.065  16.498  0.00  0.00    +0.000 A 
ATOM     32  H   UNL     1      47.284   1.987  17.076  0.00  0.00    +0.000 HD
ENDBRANCH  19  22
ENDBRANCH   1  20
TORSDOF 7
ENDMDL
MODEL 2
REMARK VINA RESULT:    -8.321      0.921      1.360
REMARK INTER + INTRA:         -12.755
REMARK INTER:                 -11.785
REMARK INTRA:                  -0.970
REMARK UNBOUND:                -1.029
REMARK  Name = 
REMARK  7 active torsions:
REMARK  status: ('A' for Active; 'I' for Inactive)
REMARK    1  A    between atoms: C_2  and  C_20
REMARK    2  A    between atoms: N_3  and  C_4
REMARK    3  A    between atoms: C_4  and  C_5
REMARK    4  A    between atoms: N_8  and  C_9
REMARK    5  A    between atoms: C_9  and  N_10
REMARK    6  A    between atoms: N_10  and  C_11
REMARK    7  A    between atoms: C_11  and  C_12
REMARK                            x       y       z     vdW  Elec       q    Type
REMARK                         _______ _______ _______ _____ _____    ______ ____
ROOT
ATOM      1  C   UNL     1      47.357   5.797  12.992  0.00  0.00    +0.000 C 
ENDROOT
BRANCH   1   2
ATOM      2  C   UNL     1      46.125   6.575  12.501  0.00  0.00    +0.000 C 
ATOM      3  C   UNL     1      44.836   6.176  13.232  0.00  0.00    +0.000 C 
ATOM      4  C   UNL     1      44.373   4.769  12.859  0.00  0.00    +0.000 C 
ATOM      5  N   UNL     1      44.183   4.628  11.402  0.00  0.00    +0.000 NA
ATOM      6  C   UNL     1      45.425   4.946  10.678  0.00  0.00    +0.000 C 
ATOM      7  C   UNL     1      45.919   6.363  10.997  0.00  0.00    +0.000 C 
BRANCH   5   8
ATOM      8  C   UNL     1      43.738   3.275  11.068  0.00  0.00    +0.000 C 
BRANCH   8   9
ATOM      9  N   UNL     1      44.862   2.580  10.473  0.00  0.00    +0.000 NA
ATOM     10  H   UNL     1      45.181   1.875  11.132  0.00  0.00    +0.000 HD
BRANCH   9  11
ATOM     11  C   UNL     1      44.522   1.967   9.198  0.00  0.00    +0.000 C 
BRANCH  11  12
ATOM     12  C   UNL     1      45.629   2.151   8.185  0.00  0.00    +0.000 A 
ATOM     13  C   UNL     1      46.569   1.136   7.954  0.00  0.00    +0.000 A 
ATOM     14  C   UNL     1      47.572   1.299   6.994  0.00  0.00    +0.000 A 
ATOM     15  C   UNL     1      47.647   2.476   6.253  0.00  0.00    +0.000 A 
ATOM     16  C   UNL     1      46.723   3.495   6.473  0.00  0.00    +0.000 A 
ATOM     17  C   UNL     1      45.720   3.334   7.433  0.00  0.00    +0.000 A 
ENDBRANCH  11  12
ENDBRANCH   9  11
ENDBRANCH   8   9
ENDBRANCH   5   8
ENDBRANCH   1   2
BRANCH   1  20
ATOM     18  O   UNL     1      49.652   6.935  14.166  0.00  0.00    +0.000 OA
ATOM     19  C   UNL     1      48.716   6.603  14.888  0.00  0.00    +0.000 C 
ATOM     20  N   UNL     1      47.585   5.994  14.403  0.00  0.00    +0.000 N 
ATOM     21  H   UNL     1      46.763   5.956  14.997  0.00  0.00    +0.000 HD
BRANCH  19  22
ATOM     22  C   UNL     1      48.770   6.778  16.342  0.00  0.00    +0.000 A 
ATOM     23  C   UNL     1      48.836   8.053  16.885  0.00  0.00    +0.000 A 
ATOM     24  S   UNL     1      48.912   8.062  18.589  0.00  0.00    +0.000 S 
ATOM     25  C   UNL     1      48.823   6.363  18.657  0.00  0.00    +0.000 A 
ATOM     26  N   UNL     1      48.816   5.709  19.850  0.00  0.00    +0.000 NA
ATOM     27  C   UNL     1      48.708   4.425  19.752  0.00  0.00    +0.000 A 
ATOM     28  N   UNL     1      48.614   3.736  18.571  0.00  0.00    +0.000 N 
ATOM     29  C   UNL     1      48.668   4.349  17.345  0.00  0.00    +0.000 A 
ATOM     30  O   UNL     1      48.673   3.693  16.309  0.00  0.00    +0.000 OA
ATOM     31  C   UNL     1      48.756   5.799  17.396  0.00  0.00    +0.000 A 
ATOM     32  H   UNL     1      48.559   2.727  18.562  0.00  0.00    +0.000 HD
ENDBRANCH  19  22
ENDBRANCH   1  20
TORSDOF 7
ENDMDL
MODEL 3
REMARK VINA RESULT:    -8.077      1.633      2.025
REMARK INTER + INTRA:         -12.411
REMARK INTER:                 -11.748
REMARK INTRA:                  -0.663
REMARK UNBOUND:                -1.029
REMARK  Name = 
REMARK  7 active torsions:
REMARK  status: ('A' for Active; 'I' for Inactive)
REMARK    1  A    between atoms: C_2  and  C_20
REMARK    2  A    between atoms: N_3  and  C_4
REMARK    3  A    between atoms: C_4  and  C_5
REMARK    4  A    between atoms: N_8  and  C_9
REMARK    5  A    between atoms: C_9  and  N_10
REMARK    6  A    between atoms: N_10  and  C_11
REMARK    7  A    between atoms: C_11  and  C_12
REMARK                            x       y       z     vdW  Elec       q    Type
REMARK                         _______ _______ _______ _____ _____    ______ ____
ROOT
ATOM      1  C   UNL     1      46.720   5.109  13.755  0.00  0.00    +0.000 C 
ENDROOT
BRANCH   1   2
ATOM      2  C   UNL     1      46.035   6.320  13.100  0.00  0.00    +0.000 C 
ATOM      3  C   UNL     1      44.503   6.239  13.153  0.00  0.00    +0.000 C 
ATOM      4  C   UNL     1      43.950   5.148  12.238  0.00  0.00    +0.000 C 
ATOM      5  N   UNL     1      44.391   5.337  10.841  0.00  0.00    +0.000 NA
ATOM      6  C   UNL     1      45.860   5.355  10.753  0.00  0.00    +0.000 C 
ATOM      7  C   UNL     1      46.466   6.455  11.635  0.00  0.00    +0.000 C 
BRANCH   5   8
ATOM      8  C   UNL     1      43.848   4.284   9.983  0.00  0.00    +0.000 C 
BRANCH   8   9
ATOM      9  N   UNL     1      44.713   3.128  10.110  0.00  0.00    +0.000 NA
ATOM     10  H   UNL     1      44.523   2.690  11.008  0.00  0.00    +0.000 HD
BRANCH   9  11
ATOM     11  C   UNL     1      44.523   2.172   9.030  0.00  0.00    +0.000 C 
BRANCH  11  12
ATOM     12  C   UNL     1      45.657   2.238   8.030  0.00  0.00    +0.000 A 
ATOM     13  C   UNL     1      45.834   3.367   7.217  0.00  0.00    +0.000 A 
ATOM     14  C   UNL     1      46.901   3.436   6.317  0.00  0.00    +0.000 A 
ATOM     15  C   UNL     1      47.805   2.380   6.221  0.00  0.00    +0.000 A 
ATOM     16  C   UNL     1      47.640   1.250   7.020  0.00  0.00    +0.000 A 
ATOM     17  C   UNL     1      46.573   1.179   7.919  0.00  0.00    +0.000 A 
ENDBRANCH  11  12
ENDBRANCH   9  11
ENDBRANCH   8   9
ENDBRANCH   5   8
ENDBRANCH   1   2
BRANCH   1  20
ATOM     18  O   UNL     1      47.053   3.670  16.155  0.00  0.00    +0.000 OA
ATOM     19  C   UNL     1      47.680   4.713  15.994  0.00  0.00    +0.000 C 
ATOM     20  N   UNL     1      47.536   5.501  14.879  0.00  0.00    +0.000 N 
ATOM     21  H   UNL     1      48.236   6.212  14.695  0.00  0.00    +0.000 HD
BRANCH  19  22
ATOM     22  C   UNL     1      48.588   5.228  17.022  0.00  0.00    +0.000 A 
ATOM     23  C   UNL     1      48.371   6.482  17.574  0.00  0.00    +0.000 A 
ATOM     24  S   UNL     1      49.539   6.923  18.737  0.00  0.00    +0.000 S 
ATOM     25  C   UNL     1      50.351   5.436  18.567  0.00  0.00    +0.000 A 
ATOM     26  N   UNL     1      51.451   5.148  19.313  0.00  0.00    +0.000 NA
ATOM     27  C   UNL     1      51.942   3.972  19.106  0.00  0.00    +0.000 A 
ATOM     28  N   UNL     1      51.439   3.060  18.215  0.00  0.00    +0.000 N 
ATOM     29  C   UNL     1      50.363   3.326  17.406  0.00  0.00    +0.000 A 
ATOM     30  O   UNL     1      49.997   2.521  16.555  0.00  0.00    +0.000 OA
ATOM     31  C   UNL     1      49.750   4.625  17.621  0.00  0.00    +0.000 A 
ATOM     32  H   UNL     1      51.888   2.165  18.080  0.00  0.00    +0.000 HD
ENDBRANCH  19  22
ENDBRANCH   1  20
TORSDOF 7
ENDMDL
MODEL 4
REMARK VINA RESULT:    -7.443      3.217      4.665
REMARK INTER + INTRA:         -11.518
REMARK INTER:                 -10.833
REMARK INTRA:                  -0.684
REMARK UNBOUND:                -1.029
REMARK  Name = 
REMARK  7 active torsions:
REMARK  status: ('A' for Active; 'I' for Inactive)
REMARK    1  A    between atoms: C_2  and  C_20
REMARK    2  A    between atoms: N_3  and  C_4
REMARK    3  A    between atoms: C_4  and  C_5
REMARK    4  A    between atoms: N_8  and  C_9
REMARK    5  A    between atoms: C_9  and  N_10
REMARK    6  A    between atoms: N_10  and  C_11
REMARK    7  A    between atoms: C_11  and  C_12
REMARK                            x       y       z     vdW  Elec       q    Type
REMARK                         _______ _______ _______ _____ _____    ______ ____
ROOT
ATOM      1  C   UNL     1      46.741   6.309  11.902  0.00  0.00    +0.000 C 
ENDROOT
BRANCH   1   2
ATOM      2  C   UNL     1      45.898   5.933  13.131  0.00  0.00    +0.000 C 
ATOM      3  C   UNL     1      46.104   4.478  13.574  0.00  0.00    +0.000 C 
ATOM      4  C   UNL     1      45.507   3.482  12.580  0.00  0.00    +0.000 C 
ATOM      5  N   UNL     1      44.071   3.735  12.355  0.00  0.00    +0.000 NA
ATOM      6  C   UNL     1      43.849   5.107  11.869  0.00  0.00    +0.000 C 
ATOM      7  C   UNL     1      44.407   6.150  12.847  0.00  0.00    +0.000 C 
BRANCH   5   8
ATOM      8  C   UNL     1      43.520   2.769  11.404  0.00  0.00    +0.000 C 
BRANCH   8   9
ATOM      9  N   UNL     1      44.576   2.421  10.475  0.00  0.00    +0.000 NA
ATOM     10  H   UNL     1      44.609   1.408  10.400  0.00  0.00    +0.000 HD
BRANCH   9  11
ATOM     11  C   UNL     1      44.380   3.021   9.164  0.00  0.00    +0.000 C 
BRANCH  11  12
ATOM     12  C   UNL     1      45.474   2.613   8.202  0.00  0.00    +0.000 A 
ATOM     13  C   UNL     1      45.957   3.511   7.239  0.00  0.00    +0.000 A 
ATOM     14  C   UNL     1      46.989   3.138   6.373  0.00  0.00    +0.000 A 
ATOM     15  C   UNL     1      47.551   1.867   6.459  0.00  0.00    +0.000 A 
ATOM     16  C   UNL     1      47.079   0.962   7.409  0.00  0.00    +0.000 A 
ATOM     17  C   UNL     1      46.047   1.332   8.275  0.00  0.00    +0.000 A 
ENDBRANCH  11  12
ENDBRANCH   9  11
ENDBRANCH   8   9
ENDBRANCH   5   8
ENDBRANCH   1   2
BRANCH   1  20
ATOM     18  O   UNL     1      49.073   6.393  13.482  0.00  0.00    +0.000 OA
ATOM     19  C   UNL     1      48.713   7.411  12.899  0.00  0.00    +0.000 C 
ATOM     20  N   UNL     1      47.562   7.470  12.153  0.00  0.00    +0.000 N 
ATOM     21  H   UNL     1      47.438   8.249  11.515  0.00  0.00    +0.000 HD
BRANCH  19  22
ATOM     22  C   UNL     1      49.461   8.665  13.011  0.00  0.00    +0.000 A 
ATOM     23  C   UNL     1      49.091   9.611  13.955  0.00  0.00    +0.000 A 
ATOM     24  S   UNL     1      50.061  11.015  13.927  0.00  0.00    +0.000 S 
ATOM     25  C   UNL     1      51.031  10.386  12.676  0.00  0.00    +0.000 A 
ATOM     26  N   UNL     1      52.087  11.090  12.187  0.00  0.00    +0.000 NA
ATOM     27  C   UNL     1      52.755  10.477  11.266  0.00  0.00    +0.000 A 
ATOM     28  N   UNL     1      52.458   9.229  10.786  0.00  0.00    +0.000 N 
ATOM     29  C   UNL     1      51.375   8.504  11.214  0.00  0.00    +0.000 A 
ATOM     30  O   UNL     1      51.087   7.429  10.696  0.00  0.00    +0.000 OA
ATOM     31  C   UNL     1      50.606   9.133  12.275  0.00  0.00    +0.000 A 
ATOM     32  H   UNL     1      53.005   8.815  10.044  0.00  0.00    +0.000 HD
ENDBRANCH  19  22
ENDBRANCH   1  20
TORSDOF 7
ENDMDL
MODEL 5
REMARK VINA RESULT:    -7.265      1.722      2.755
REMARK INTER + INTRA:         -11.267
REMARK INTER:                 -10.255
REMARK INTRA:                  -1.012
REMARK UNBOUND:                -1.029
REMARK  Name = 
REMARK  7 active torsions:
REMARK  status: ('A' for Active; 'I' for Inactive)
REMARK    1  A    between atoms: C_2  and  C_20
REMARK    2  A    between atoms: N_3  and  C_4
REMARK    3  A    between atoms: C_4  and  C_5
REMARK    4  A    between atoms: N_8  and  C_9
REMARK    5  A    between atoms: C_9  and  N_10
REMARK    6  A    between atoms: N_10  and  C_11
REMARK    7  A    between atoms: C_11  and  C_12
REMARK                            x       y       z     vdW  Elec       q    Type
REMARK                         _______ _______ _______ _____ _____    ______ ____
ROOT
ATOM      1  C   UNL     1      47.322   5.753  12.831  0.00  0.00    +0.000 C 
ENDROOT
BRANCH   1   2
ATOM      2  C   UNL     1      46.064   6.589  12.545  0.00  0.00    +0.000 C 
ATOM      3  C   UNL     1      44.802   6.012  13.202  0.00  0.00    +0.000 C 
ATOM      4  C   UNL     1      44.355   4.706  12.547  0.00  0.00    +0.000 C 
ATOM      5  N   UNL     1      44.130   4.874  11.098  0.00  0.00    +0.000 NA
ATOM      6  C   UNL     1      45.345   5.368  10.431  0.00  0.00    +0.000 C 
ATOM      7  C   UNL     1      45.822   6.696  11.035  0.00  0.00    +0.000 C 
BRANCH   5   8
ATOM      8  C   UNL     1      43.700   3.613  10.493  0.00  0.00    +0.000 C 
BRANCH   8   9
ATOM      9  N   UNL     1      44.874   2.773  10.357  0.00  0.00    +0.000 NA
ATOM     10  H   UNL     1      45.033   2.309  11.248  0.00  0.00    +0.000 HD
BRANCH   9  11
ATOM     11  C   UNL     1      44.733   1.793   9.291  0.00  0.00    +0.000 C 
BRANCH  11  12
ATOM     12  C   UNL     1      45.719   2.049   8.173  0.00  0.00    +0.000 A 
ATOM     13  C   UNL     1      45.724   3.271   7.484  0.00  0.00    +0.000 A 
ATOM     14  C   UNL     1      46.657   3.514   6.473  0.00  0.00    +0.000 A 
ATOM     15  C   UNL     1      47.597   2.541   6.139  0.00  0.00    +0.000 A 
ATOM     16  C   UNL     1      47.602   1.321   6.812  0.00  0.00    +0.000 A 
ATOM     17  C   UNL     1      46.669   1.076   7.823  0.00  0.00    +0.000 A 
ENDBRANCH  11  12
ENDBRANCH   9  11
ENDBRANCH   8   9
ENDBRANCH   5   8
ENDBRANCH   1   2
BRANCH   1  20
ATOM     18  O   UNL     1      47.168   4.643  15.417  0.00  0.00    +0.000 OA
ATOM     19  C   UNL     1      47.923   5.591  15.219  0.00  0.00    +0.000 C 
ATOM     20  N   UNL     1      48.018   6.222  14.004  0.00  0.00    +0.000 N 
ATOM     21  H   UNL     1      48.812   6.833  13.837  0.00  0.00    +0.000 HD
BRANCH  19  22
ATOM     22  C   UNL     1      48.738   6.159  16.296  0.00  0.00    +0.000 A 
ATOM     23  C   UNL     1      49.415   5.322  17.170  0.00  0.00    +0.000 A 
ATOM     24  S   UNL     1      50.293   6.159  18.370  0.00  0.00    +0.000 S 
ATOM     25  C   UNL     1      49.826   7.668  17.737  0.00  0.00    +0.000 A 
ATOM     26  N   UNL     1      50.264   8.828  18.296  0.00  0.00    +0.000 NA
ATOM     27  C   UNL     1      49.860   9.897  17.692  0.00  0.00    +0.000 A 
ATOM     28  N   UNL     1      49.052   9.910  16.585  0.00  0.00    +0.000 N 
ATOM     29  C   UNL     1      48.547   8.768  16.018  0.00  0.00    +0.000 A 
ATOM     30  O   UNL     1      47.753   8.822  15.084  0.00  0.00    +0.000 OA
ATOM     31  C   UNL     1      48.996   7.533  16.639  0.00  0.00    +0.000 A 
ATOM     32  H   UNL     1      48.750  10.783  16.175  0.00  0.00    +0.000 HD
ENDBRANCH  19  22
ENDBRANCH   1  20
TORSDOF 7
ENDMDL
MODEL 6
REMARK VINA RESULT:    -7.146      3.092      8.091
REMARK INTER + INTRA:         -11.099
REMARK INTER:                  -9.987
REMARK INTRA:                  -1.112
REMARK UNBOUND:                -1.029
REMARK  Name = 
REMARK  7 active torsions:
REMARK  status: ('A' for Active; 'I' for Inactive)
REMARK    1  A    between atoms: C_2  and  C_20
REMARK    2  A    between atoms: N_3  and  C_4
REMARK    3  A    between atoms: C_4  and  C_5
REMARK    4  A    between atoms: N_8  and  C_9
REMARK    5  A    between atoms: C_9  and  N_10
REMARK    6  A    between atoms: N_10  and  C_11
REMARK    7  A    between atoms: C_11  and  C_12
REMARK                            x       y       z     vdW  Elec       q    Type
REMARK                         _______ _______ _______ _____ _____    ______ ____
ROOT
ATOM      1  C   UNL     1      46.318   8.086  13.121  0.00  0.00    +0.000 C 
ENDROOT
BRANCH   1   2
ATOM      2  C   UNL     1      47.476   8.540  12.219  0.00  0.00    +0.000 C 
ATOM      3  C   UNL     1      48.518   7.438  11.983  0.00  0.00    +0.000 C 
ATOM      4  C   UNL     1      49.325   7.128  13.243  0.00  0.00    +0.000 C 
ATOM      5  N   UNL     1      49.989   8.335  13.772  0.00  0.00    +0.000 NA
ATOM      6  C   UNL     1      49.005   9.390  14.066  0.00  0.00    +0.000 C 
ATOM      7  C   UNL     1      48.183   9.758  12.824  0.00  0.00    +0.000 C 
BRANCH   5   8
ATOM      8  C   UNL     1      50.758   8.015  14.975  0.00  0.00    +0.000 C 
BRANCH   8   9
ATOM      9  N   UNL     1      50.451   6.646  15.338  0.00  0.00    +0.000 NA
ATOM     10  H   UNL     1      51.268   6.075  15.134  0.00  0.00    +0.000 HD
BRANCH   9  11
ATOM     11  C   UNL     1      50.077   6.514  16.737  0.00  0.00    +0.000 C 
BRANCH  11  12
ATOM     12  C   UNL     1      49.293   5.244  16.982  0.00  0.00    +0.000 A 
ATOM     13  C   UNL     1      47.909   5.199  16.763  0.00  0.00    +0.000 A 
ATOM     14  C   UNL     1      47.195   4.014  16.961  0.00  0.00    +0.000 A 
ATOM     15  C   UNL     1      47.855   2.860  17.376  0.00  0.00    +0.000 A 
ATOM     16  C   UNL     1      49.230   2.890  17.601  0.00  0.00    +0.000 A 
ATOM     17  C   UNL     1      49.945   4.074  17.405  0.00  0.00    +0.000 A 
ENDBRANCH  11  12
ENDBRANCH   9  11
ENDBRANCH   8   9
ENDBRANCH   5   8
ENDBRANCH   1   2
BRANCH   1  20
ATOM     18  O   UNL     1      44.239   7.548  11.296  0.00  0.00    +0.000 OA
ATOM     19  C   UNL     1      44.840   6.608  11.808  0.00  0.00    +0.000 C 
ATOM     20  N   UNL     1      45.828   6.782  12.745  0.00  0.00    +0.000 N 
ATOM     21  H   UNL     1      46.438   5.999  12.956  0.00  0.00    +0.000 HD
BRANCH  19  22
ATOM     22  C   UNL     1      44.496   5.218  11.498  0.00  0.00    +0.000 A 
ATOM     23  C   UNL     1      43.714   4.484  12.377  0.00  0.00    +0.000 A 
ATOM     24  S   UNL     1      43.434   2.882  11.862  0.00  0.00    +0.000 S 
ATOM     25  C   UNL     1      44.320   3.129  10.429  0.00  0.00    +0.000 A 
ATOM     26  N   UNL     1      44.453   2.138   9.507  0.00  0.00    +0.000 NA
ATOM     27  C   UNL     1      45.119   2.476   8.453  0.00  0.00    +0.000 A 
ATOM     28  N   UNL     1      45.671   3.712   8.241  0.00  0.00    +0.000 N 
ATOM     29  C   UNL     1      45.604   4.726   9.164  0.00  0.00    +0.000 A 
ATOM     30  O   UNL     1      46.188   5.789   8.979  0.00  0.00    +0.000 OA
ATOM     31  C   UNL     1      44.837   4.410  10.356  0.00  0.00    +0.000 A 
ATOM     32  H   UNL     1      46.205   3.905   7.405  0.00  0.00    +0.000 HD
ENDBRANCH  19  22
ENDBRANCH   1  20
TORSDOF 7
ENDMDL
MODEL 7
REMARK VINA RESULT:    -7.123      3.391      8.218
REMARK INTER + INTRA:         -11.067
REMARK INTER:                  -9.385
REMARK INTRA:                  -1.682
REMARK UNBOUND:                -1.029
REMARK  Name = 
REMARK  7 active torsions:
REMARK  status: ('A' for Active; 'I' for Inactive)
REMARK    1  A    between atoms: C_2  and  C_20
REMARK    2  A    between atoms: N_3  and  C_4
REMARK    3  A    between atoms: C_4  and  C_5
REMARK    4  A    between atoms: N_8  and  C_9
REMARK    5  A    between atoms: C_9  and  N_10
REMARK    6  A    between atoms: N_10  and  C_11
REMARK    7  A    between atoms: C_11  and  C_12
REMARK                            x       y       z     vdW  Elec       q    Type
REMARK                         _______ _______ _______ _____ _____    ______ ____
ROOT
ATOM      1  C   UNL     1      49.161   6.659  15.551  0.00  0.00    +0.000 C 
ENDROOT
BRANCH   1   2
ATOM      2  C   UNL     1      49.556   8.120  15.820  0.00  0.00    +0.000 C 
ATOM      3  C   UNL     1      50.764   8.248  16.758  0.00  0.00    +0.000 C 
ATOM      4  C   UNL     1      50.427   7.841  18.192  0.00  0.00    +0.000 C 
ATOM      5  N   UNL     1      49.296   8.624  18.727  0.00  0.00    +0.000 NA
ATOM      6  C   UNL     1      48.103   8.469  17.878  0.00  0.00    +0.000 C 
ATOM      7  C   UNL     1      48.380   8.891  16.429  0.00  0.00    +0.000 C 
BRANCH   5   8
ATOM      8  C   UNL     1      48.993   8.220  20.100  0.00  0.00    +0.000 C 
BRANCH   8   9
ATOM      9  N   UNL     1      49.371   6.827  20.238  0.00  0.00    +0.000 NA
ATOM     10  H   UNL     1      49.892   6.727  21.106  0.00  0.00    +0.000 HD
BRANCH   9  11
ATOM     11  C   UNL     1      48.219   5.938  20.232  0.00  0.00    +0.000 C 
BRANCH  11  12
ATOM     12  C   UNL     1      48.247   5.008  19.039  0.00  0.00    +0.000 A 
ATOM     13  C   UNL     1      49.379   4.229  18.761  0.00  0.00    +0.000 A 
ATOM     14  C   UNL     1      49.387   3.349  17.675  0.00  0.00    +0.000 A 
ATOM     15  C   UNL     1      48.266   3.235  16.857  0.00  0.00    +0.000 A 
ATOM     16  C   UNL     1      47.135   4.006  17.119  0.00  0.00    +0.000 A 
ATOM     17  C   UNL     1      47.125   4.887  18.203  0.00  0.00    +0.000 A 
ENDBRANCH  11  12
ENDBRANCH   9  11
ENDBRANCH   8   9
ENDBRANCH   5   8
ENDBRANCH   1   2
BRANCH   1  20
ATOM     18  O   UNL     1      48.994   6.205  12.774  0.00  0.00    +0.000 OA
ATOM     19  C   UNL     1      47.958   6.296  13.427  0.00  0.00    +0.000 C 
ATOM     20  N   UNL     1      47.950   6.568  14.772  0.00  0.00    +0.000 N 
ATOM     21  H   UNL     1      47.095   6.402  15.294  0.00  0.00    +0.000 HD
BRANCH  19  22
ATOM     22  C   UNL     1      46.641   6.181  12.794  0.00  0.00    +0.000 A 
ATOM     23  C   UNL     1      46.035   7.301  12.246  0.00  0.00    +0.000 A 
ATOM     24  S   UNL     1      44.500   6.982  11.573  0.00  0.00    +0.000 S 
ATOM     25  C   UNL     1      44.613   5.328  11.960  0.00  0.00    +0.000 A 
ATOM     26  N   UNL     1      43.618   4.461  11.628  0.00  0.00    +0.000 NA
ATOM     27  C   UNL     1      43.854   3.232  11.951  0.00  0.00    +0.000 A 
ATOM     28  N   UNL     1      44.989   2.793  12.580  0.00  0.00    +0.000 N 
ATOM     29  C   UNL     1      45.994   3.638  12.978  0.00  0.00    +0.000 A 
ATOM     30  O   UNL     1      46.953   3.222  13.620  0.00  0.00    +0.000 OA
ATOM     31  C   UNL     1      45.796   5.030  12.611  0.00  0.00    +0.000 A 
ATOM     32  H   UNL     1      45.100   1.820  12.830  0.00  0.00    +0.000 HD
ENDBRANCH  19  22
ENDBRANCH   1  20
TORSDOF 7
ENDMDL
MODEL 8
REMARK VINA RESULT:    -6.913      3.589      7.522
REMARK INTER + INTRA:         -10.771
REMARK INTER:                  -9.755
REMARK INTRA:                  -1.015
REMARK UNBOUND:                -1.029
REMARK  Name = 
REMARK  7 active torsions:
REMARK  status: ('A' for Active; 'I' for Inactive)
REMARK    1  A    between atoms: C_2  and  C_20
REMARK    2  A    between atoms: N_3  and  C_4
REMARK    3  A    between atoms: C_4  and  C_5
REMARK    4  A    between atoms: N_8  and  C_9
REMARK    5  A    between atoms: C_9  and  N_10
REMARK    6  A    between atoms: N_10  and  C_11
REMARK    7  A    between atoms: C_11  and  C_12
REMARK                            x       y       z     vdW  Elec       q    Type
REMARK                         _______ _______ _______ _____ _____    ______ ____
ROOT
ATOM      1  C   UNL     1      47.440   3.380  16.482  0.00  0.00    +0.000 C 
ENDROOT
BRANCH   1   2
ATOM      2  C   UNL     1      47.812   4.011  17.833  0.00  0.00    +0.000 C 
ATOM      3  C   UNL     1      47.741   5.544  17.816  0.00  0.00    +0.000 C 
ATOM      4  C   UNL     1      48.851   6.164  16.969  0.00  0.00    +0.000 C 
ATOM      5  N   UNL     1      50.187   5.732  17.425  0.00  0.00    +0.000 NA
ATOM      6  C   UNL     1      50.304   4.265  17.392  0.00  0.00    +0.000 C 
ATOM      7  C   UNL     1      49.226   3.592  18.252  0.00  0.00    +0.000 C 
BRANCH   5   8
ATOM      8  C   UNL     1      51.234   6.339  16.602  0.00  0.00    +0.000 C 
BRANCH   8   9
ATOM      9  N   UNL     1      50.619   6.770  15.363  0.00  0.00    +0.000 NA
ATOM     10  H   UNL     1      49.615   6.821  15.511  0.00  0.00    +0.000 HD
BRANCH   9  11
ATOM     11  C   UNL     1      51.132   8.054  14.908  0.00  0.00    +0.000 C 
BRANCH  11  12
ATOM     12  C   UNL     1      50.336   8.581  13.735  0.00  0.00    +0.000 A 
ATOM     13  C   UNL     1      49.938   9.925  13.681  0.00  0.00    +0.000 A 
ATOM     14  C   UNL     1      49.229  10.414  12.580  0.00  0.00    +0.000 A 
ATOM     15  C   UNL     1      48.912   9.568  11.520  0.00  0.00    +0.000 A 
ATOM     16  C   UNL     1      49.297   8.229  11.561  0.00  0.00    +0.000 A 
ATOM     17  C   UNL     1      50.005   7.739  12.661  0.00  0.00    +0.000 A 
ENDBRANCH  11  12
ENDBRANCH   9  11
ENDBRANCH   8   9
ENDBRANCH   5   8
ENDBRANCH   1   2
BRANCH   1  20
ATOM     18  O   UNL     1      47.444   3.305  13.664  0.00  0.00    +0.000 OA
ATOM     19  C   UNL     1      46.822   4.196  14.236  0.00  0.00    +0.000 C 
ATOM     20  N   UNL     1      46.812   4.335  15.601  0.00  0.00    +0.000 N 
ATOM     21  H   UNL     1      46.107   4.932  16.022  0.00  0.00    +0.000 HD
BRANCH  19  22
ATOM     22  C   UNL     1      46.090   5.221  13.488  0.00  0.00    +0.000 A 
ATOM     23  C   UNL     1      46.602   6.506  13.390  0.00  0.00    +0.000 A 
ATOM     24  S   UNL     1      45.605   7.568  12.501  0.00  0.00    +0.000 S 
ATOM     25  C   UNL     1      44.475   6.334  12.187  0.00  0.00    +0.000 A 
ATOM     26  N   UNL     1      43.366   6.574  11.437  0.00  0.00    +0.000 NA
ATOM     27  C   UNL     1      42.616   5.538  11.250  0.00  0.00    +0.000 A 
ATOM     28  N   UNL     1      42.869   4.289  11.752  0.00  0.00    +0.000 N 
ATOM     29  C   UNL     1      43.948   4.013  12.554  0.00  0.00    +0.000 A 
ATOM     30  O   UNL     1      44.093   2.905  13.061  0.00  0.00    +0.000 OA
ATOM     31  C   UNL     1      44.845   5.136  12.770  0.00  0.00    +0.000 A 
ATOM     32  H   UNL     1      42.227   3.526  11.592  0.00  0.00    +0.000 HD
ENDBRANCH  19  22
ENDBRANCH   1  20
TORSDOF 7
ENDMDL
MODEL 9
REMARK VINA RESULT:    -6.250      4.724      7.722
REMARK INTER + INTRA:          -9.836
REMARK INTER:                  -8.827
REMARK INTRA:                  -1.009
REMARK UNBOUND:                -1.029
REMARK  Name = 
REMARK  7 active torsions:
REMARK  status: ('A' for Active; 'I' for Inactive)
REMARK    1  A    between atoms: C_2  and  C_20
REMARK    2  A    between atoms: N_3  and  C_4
REMARK    3  A    between atoms: C_4  and  C_5
REMARK    4  A    between atoms: N_8  and  C_9
REMARK    5  A    between atoms: C_9  and  N_10
REMARK    6  A    between atoms: N_10  and  C_11
REMARK    7  A    between atoms: C_11  and  C_12
REMARK                            x       y       z     vdW  Elec       q    Type
REMARK                         _______ _______ _______ _____ _____    ______ ____
ROOT
ATOM      1  C   UNL     1      46.499   8.084  12.196  0.00  0.00    +0.000 C 
ENDROOT
BRANCH   1   2
ATOM      2  C   UNL     1      47.326   8.151  13.490  0.00  0.00    +0.000 C 
ATOM      3  C   UNL     1      48.017   9.507  13.688  0.00  0.00    +0.000 C 
ATOM      4  C   UNL     1      49.151   9.728  12.688  0.00  0.00    +0.000 C 
ATOM      5  N   UNL     1      50.152   8.645  12.754  0.00  0.00    +0.000 NA
ATOM      6  C   UNL     1      49.525   7.336  12.506  0.00  0.00    +0.000 C 
ATOM      7  C   UNL     1      48.394   7.052  13.504  0.00  0.00    +0.000 C 
BRANCH   5   8
ATOM      8  C   UNL     1      51.229   8.878  11.791  0.00  0.00    +0.000 C 
BRANCH   8   9
ATOM      9  N   UNL     1      51.776   7.586  11.428  0.00  0.00    +0.000 NA
ATOM     10  H   UNL     1      51.127   7.138  10.787  0.00  0.00    +0.000 HD
BRANCH   9  11
ATOM     11  C   UNL     1      53.095   7.693  10.824  0.00  0.00    +0.000 C 
BRANCH  11  12
ATOM     12  C   UNL     1      53.005   7.800   9.318  0.00  0.00    +0.000 A 
ATOM     13  C   UNL     1      52.630   6.696   8.539  0.00  0.00    +0.000 A 
ATOM     14  C   UNL     1      52.518   6.809   7.151  0.00  0.00    +0.000 A 
ATOM     15  C   UNL     1      52.776   8.026   6.524  0.00  0.00    +0.000 A 
ATOM     16  C   UNL     1      53.153   9.132   7.284  0.00  0.00    +0.000 A 
ATOM     17  C   UNL     1      53.266   9.020   8.672  0.00  0.00    +0.000 A 
ENDBRANCH  11  12
ENDBRANCH   9  11
ENDBRANCH   8   9
ENDBRANCH   5   8
ENDBRANCH   1   2
BRANCH   1  20
ATOM     18  O   UNL     1      43.882   7.358  11.445  0.00  0.00    +0.000 OA
ATOM     19  C   UNL     1      44.742   6.486  11.524  0.00  0.00    +0.000 C 
ATOM     20  N   UNL     1      46.026   6.746  11.933  0.00  0.00    +0.000 N 
ATOM     21  H   UNL     1      46.741   6.047  11.758  0.00  0.00    +0.000 HD
BRANCH  19  22
ATOM     22  C   UNL     1      44.437   5.081  11.244  0.00  0.00    +0.000 A 
ATOM     23  C   UNL     1      43.643   4.356  12.120  0.00  0.00    +0.000 A 
ATOM     24  S   UNL     1      43.412   2.734  11.644  0.00  0.00    +0.000 S 
ATOM     25  C   UNL     1      44.338   2.959  10.232  0.00  0.00    +0.000 A 
ATOM     26  N   UNL     1      44.520   1.944   9.345  0.00  0.00    +0.000 NA
ATOM     27  C   UNL     1      45.213   2.266   8.303  0.00  0.00    +0.000 A 
ATOM     28  N   UNL     1      45.746   3.507   8.072  0.00  0.00    +0.000 N 
ATOM     29  C   UNL     1      45.629   4.545   8.961  0.00  0.00    +0.000 A 
ATOM     30  O   UNL     1      46.196   5.615   8.764  0.00  0.00    +0.000 OA
ATOM     31  C   UNL     1      44.831   4.247  10.138  0.00  0.00    +0.000 A 
ATOM     32  H   UNL     1      46.302   3.687   7.248  0.00  0.00    +0.000 HD
ENDBRANCH  19  22
ENDBRANCH   1  20
TORSDOF 7
ENDMDL
