MODEL 1
REMARK VINA RESULT:    -7.363      0.000      0.000
REMARK INTER + INTRA:          -9.925
REMARK INTER:                  -9.515
REMARK INTRA:                  -0.410
REMARK UNBOUND:                -0.410
REMARK  Name = 
REMARK  6 active torsions:
REMARK  status: ('A' for Active; 'I' for Inactive)
REMARK    1  A    between atoms: N_1  and  C_2
REMARK    2  A    between atoms: C_2  and  C_3
REMARK    3  A    between atoms: C_6  and  C_7
REMARK    4  A    between atoms: C_7  and  N_8
REMARK    5  A    between atoms: CA_13  and  C_14
REMARK    6  A    between atoms: C_14  and  O_15
REMARK                            x       y       z     vdW  Elec       q    Type
REMARK                         _______ _______ _______ _____ _____    ______ ____
ROOT
ATOM      1  C   UNL     1      43.768   3.235  10.510  0.00  0.00    +0.000 C 
ENDROOT
BRANCH   1   2
ATOM      2  N   UNL     1      44.320   2.790  11.777  0.00  0.00    +0.000 N 
ATOM      3  C   UNL     1      45.177   3.669  12.408  0.00  0.00    +0.000 A 
ATOM      4  N   UNL     1      46.180   3.125  13.105  0.00  0.00    +0.000 NA
ATOM      5  C   UNL     1      47.001   3.975  13.750  0.00  0.00    +0.000 A 
ATOM      6  C   UNL     1      46.861   5.340  13.716  0.00  0.00    +0.000 A 
ATOM      7  CA  UNL     1      45.812   5.815  12.962  0.00  0.00    +0.000 A 
ATOM      8  N   UNL     1      44.969   4.989  12.305  0.00  0.00    +0.000 NA
ATOM      9  H   UNL     1      44.762   1.878  11.748  0.00  0.00    +0.000 HD
BRANCH   7  10
ATOM     10  C   UNL     1      45.540   7.293  12.862  0.00  0.00    +0.000 C 
BRANCH  10  11
ATOM     11  O   UNL     1      44.347   7.538  12.124  0.00  0.00    +0.000 OA
ATOM     12  H   UNL     1      43.665   7.766  12.781  0.00  0.00    +0.000 HD
ENDBRANCH  10  11
ENDBRANCH   7  10
ENDBRANCH   1   2
BRANCH   1  16
ATOM     13  C   UNL     1      46.499   2.925   7.314  0.00  0.00    +0.000 A 
ATOM     14  C   UNL     1      46.156   1.822   8.089  0.00  0.00    +0.000 A 
ATOM     15  N   UNL     1      45.298   1.892   9.133  0.00  0.00    +0.000 NA
ATOM     16  C   UNL     1      44.765   3.117   9.381  0.00  0.00    +0.000 A 
ATOM     17  C   UNL     1      45.128   4.226   8.624  0.00  0.00    +0.000 A 
ATOM     18  N   UNL     1      45.989   4.156   7.579  0.00  0.00    +0.000 NA
BRANCH  13  19
ATOM     19  C   UNL     1      47.434   2.769   6.140  0.00  0.00    +0.000 C 
BRANCH  19  20
ATOM     20  N   UNL     1      48.472   1.761   6.378  0.00  0.00    +0.000 NA
ATOM     21  H   UNL     1      49.383   2.181   6.201  0.00  0.00    +0.000 HD
ATOM     22  H   UNL     1      48.366   1.025   5.679  0.00  0.00    +0.000 HD
ENDBRANCH  19  20
ENDBRANCH  13  19
ENDBRANCH   1  16
TORSDOF 6
ENDMDL
MODEL 2
REMARK VINA RESULT:    -6.614      1.990      2.829
REMARK INTER + INTRA:          -8.957
REMARK INTER:                  -8.628
REMARK INTRA:                  -0.329
REMARK UNBOUND:                -0.410
REMARK  Name = 
REMARK  6 active torsions:
REMARK  status: ('A' for Active; 'I' for Inactive)
REMARK    1  A    between atoms: N_1  and  C_2
REMARK    2  A    between atoms: C_2  and  C_3
REMARK    3  A    between atoms: C_6  and  C_7
REMARK    4  A    between atoms: C_7  and  N_8
REMARK    5  A    between atoms: CA_13  and  C_14
REMARK    6  A    between atoms: C_14  and  O_15
REMARK                            x       y       z     vdW  Elec       q    Type
REMARK                         _______ _______ _______ _____ _____    ______ ____
ROOT
ATOM      1  C   UNL     1      44.122   4.496  10.407  0.00  0.00    +0.000 C 
ENDROOT
BRANCH   1   2
ATOM      2  N   UNL     1      44.297   5.929  10.260  0.00  0.00    +0.000 N 
ATOM      3  C   UNL     1      45.024   6.557  11.251  0.00  0.00    +0.000 A 
ATOM      4  N   UNL     1      44.655   7.805  11.560  0.00  0.00    +0.000 NA
ATOM      5  C   UNL     1      45.381   8.436  12.502  0.00  0.00    +0.000 A 
ATOM      6  C   UNL     1      46.447   7.865  13.150  0.00  0.00    +0.000 A 
ATOM      7  CA  UNL     1      46.747   6.572  12.782  0.00  0.00    +0.000 A 
ATOM      8  N   UNL     1      46.042   5.912  11.839  0.00  0.00    +0.000 NA
ATOM      9  H   UNL     1      43.437   6.448  10.117  0.00  0.00    +0.000 HD
BRANCH   7  10
ATOM     10  C   UNL     1      47.909   5.842  13.405  0.00  0.00    +0.000 C 
BRANCH  10  11
ATOM     11  O   UNL     1      49.142   6.293  12.855  0.00  0.00    +0.000 OA
ATOM     12  H   UNL     1      49.700   5.500  12.756  0.00  0.00    +0.000 HD
ENDBRANCH  10  11
ENDBRANCH   7  10
ENDBRANCH   1   2
BRANCH   1  16
ATOM     13  C   UNL     1      46.504   2.298   7.713  0.00  0.00    +0.000 A 
ATOM     14  C   UNL     1      46.360   3.676   7.600  0.00  0.00    +0.000 A 
ATOM     15  N   UNL     1      45.587   4.408   8.438  0.00  0.00    +0.000 NA
ATOM     16  C   UNL     1      44.960   3.715   9.423  0.00  0.00    +0.000 A 
ATOM     17  C   UNL     1      45.081   2.332   9.520  0.00  0.00    +0.000 A 
ATOM     18  N   UNL     1      45.854   1.599   8.680  0.00  0.00    +0.000 NA
BRANCH  13  19
ATOM     19  C   UNL     1      47.411   1.547   6.769  0.00  0.00    +0.000 C 
BRANCH  19  20
ATOM     20  N   UNL     1      48.410   2.417   6.140  0.00  0.00    +0.000 NA
ATOM     21  H   UNL     1      49.014   2.799   6.866  0.00  0.00    +0.000 HD
ATOM     22  H   UNL     1      47.924   3.218   5.735  0.00  0.00    +0.000 HD
ENDBRANCH  19  20
ENDBRANCH  13  19
ENDBRANCH   1  16
TORSDOF 6
ENDMDL
MODEL 3
REMARK VINA RESULT:    -6.085      3.367      4.779
REMARK INTER + INTRA:          -8.273
REMARK INTER:                  -8.013
REMARK INTRA:                  -0.261
REMARK UNBOUND:                -0.410
REMARK  Name = 
REMARK  6 active torsions:
REMARK  status: ('A' for Active; 'I' for Inactive)
REMARK    1  A    between atoms: N_1  and  C_2
REMARK    2  A    between atoms: C_2  and  C_3
REMARK    3  A    between atoms: C_6  and  C_7
REMARK    4  A    between atoms: C_7  and  N_8
REMARK    5  A    between atoms: CA_13  and  C_14
REMARK    6  A    between atoms: C_14  and  O_15
REMARK                            x       y       z     vdW  Elec       q    Type
REMARK                         _______ _______ _______ _____ _____    ______ ____
ROOT
ATOM      1  C   UNL     1      46.536   4.590  14.241  0.00  0.00    +0.000 C 
ENDROOT
BRANCH   1   2
ATOM      2  N   UNL     1      47.064   3.324  14.715  0.00  0.00    +0.000 N 
ATOM      3  C   UNL     1      47.771   3.365  15.899  0.00  0.00    +0.000 A 
ATOM      4  N   UNL     1      48.791   2.509  16.014  0.00  0.00    +0.000 NA
ATOM      5  C   UNL     1      49.464   2.521  17.180  0.00  0.00    +0.000 A 
ATOM      6  C   UNL     1      49.163   3.359  18.224  0.00  0.00    +0.000 A 
ATOM      7  CA  UNL     1      48.108   4.219  18.014  0.00  0.00    +0.000 A 
ATOM      8  N   UNL     1      47.411   4.230  16.858  0.00  0.00    +0.000 NA
ATOM      9  H   UNL     1      47.614   2.814  14.031  0.00  0.00    +0.000 HD
BRANCH   7  10
ATOM     10  C   UNL     1      47.665   5.174  19.091  0.00  0.00    +0.000 C 
BRANCH  10  11
ATOM     11  O   UNL     1      46.310   5.566  18.893  0.00  0.00    +0.000 OA
ATOM     12  H   UNL     1      46.098   6.180  19.618  0.00  0.00    +0.000 HD
ENDBRANCH  10  11
ENDBRANCH   7  10
ENDBRANCH   1   2
BRANCH   1  16
ATOM     13  C   UNL     1      44.892   4.343  10.368  0.00  0.00    +0.000 A 
ATOM     14  C   UNL     1      44.870   3.259  11.239  0.00  0.00    +0.000 A 
ATOM     15  N   UNL     1      45.406   3.301  12.481  0.00  0.00    +0.000 NA
ATOM     16  C   UNL     1      45.964   4.484  12.847  0.00  0.00    +0.000 A 
ATOM     17  C   UNL     1      46.010   5.560  11.967  0.00  0.00    +0.000 A 
ATOM     18  N   UNL     1      45.474   5.518  10.721  0.00  0.00    +0.000 NA
BRANCH  13  19
ATOM     19  C   UNL     1      44.242   4.241   9.009  0.00  0.00    +0.000 C 
BRANCH  19  20
ATOM     20  N   UNL     1      44.326   2.889   8.447  0.00  0.00    +0.000 NA
ATOM     21  H   UNL     1      44.345   2.217   9.212  0.00  0.00    +0.000 HD
ATOM     22  H   UNL     1      45.227   2.797   7.976  0.00  0.00    +0.000 HD
ENDBRANCH  19  20
ENDBRANCH  13  19
ENDBRANCH   1  16
TORSDOF 6
ENDMDL
MODEL 4
REMARK VINA RESULT:    -5.918      3.435      7.396
REMARK INTER + INTRA:          -8.057
REMARK INTER:                  -7.816
REMARK INTRA:                  -0.241
REMARK UNBOUND:                -0.410
REMARK  Name = 
REMARK  6 active torsions:
REMARK  status: ('A' for Active; 'I' for Inactive)
REMARK    1  A    between atoms: N_1  and  C_2
REMARK    2  A    between atoms: C_2  and  C_3
REMARK    3  A    between atoms: C_6  and  C_7
REMARK    4  A    between atoms: C_7  and  N_8
REMARK    5  A    between atoms: CA_13  and  C_14
REMARK    6  A    between atoms: C_14  and  O_15
REMARK                            x       y       z     vdW  Elec       q    Type
REMARK                         _______ _______ _______ _____ _____    ______ ____
ROOT
ATOM      1  C   UNL     1      46.727   4.587  14.037  0.00  0.00    +0.000 C 
ENDROOT
BRANCH   1   2
ATOM      2  N   UNL     1      45.295   4.350  14.067  0.00  0.00    +0.000 N 
ATOM      3  C   UNL     1      44.613   4.602  12.895  0.00  0.00    +0.000 A 
ATOM      4  N   UNL     1      43.366   5.068  13.020  0.00  0.00    +0.000 NA
ATOM      5  C   UNL     1      42.683   5.284  11.880  0.00  0.00    +0.000 A 
ATOM      6  C   UNL     1      43.200   5.061  10.628  0.00  0.00    +0.000 A 
ATOM      7  CA  UNL     1      44.496   4.596  10.592  0.00  0.00    +0.000 A 
ATOM      8  N   UNL     1      45.208   4.367  11.717  0.00  0.00    +0.000 NA
ATOM      9  H   UNL     1      44.807   4.813  14.827  0.00  0.00    +0.000 HD
BRANCH   7  10
ATOM     10  C   UNL     1      45.171   4.293   9.280  0.00  0.00    +0.000 C 
BRANCH  10  11
ATOM     11  O   UNL     1      45.802   5.456   8.755  0.00  0.00    +0.000 OA
ATOM     12  H   UNL     1      45.874   5.314   7.794  0.00  0.00    +0.000 HD
ENDBRANCH  10  11
ENDBRANCH   7  10
ENDBRANCH   1   2
BRANCH   1  16
ATOM     13  C   UNL     1      48.494   4.525  17.863  0.00  0.00    +0.000 A 
ATOM     14  C   UNL     1      47.599   3.541  17.458  0.00  0.00    +0.000 A 
ATOM     15  N   UNL     1      47.000   3.543  16.244  0.00  0.00    +0.000 NA
ATOM     16  C   UNL     1      47.338   4.568  15.419  0.00  0.00    +0.000 A 
ATOM     17  C   UNL     1      48.211   5.568  15.833  0.00  0.00    +0.000 A 
ATOM     18  N   UNL     1      48.811   5.567  17.050  0.00  0.00    +0.000 NA
BRANCH  13  19
ATOM     19  C   UNL     1      49.156   4.442  19.218  0.00  0.00    +0.000 C 
BRANCH  19  20
ATOM     20  N   UNL     1      48.477   3.504  20.117  0.00  0.00    +0.000 NA
ATOM     21  H   UNL     1      48.311   3.968  21.009  0.00  0.00    +0.000 HD
ATOM     22  H   UNL     1      49.120   2.738  20.320  0.00  0.00    +0.000 HD
ENDBRANCH  19  20
ENDBRANCH  13  19
ENDBRANCH   1  16
TORSDOF 6
ENDMDL
MODEL 5
REMARK VINA RESULT:    -5.839      3.006      4.410
REMARK INTER + INTRA:          -7.956
REMARK INTER:                  -7.669
REMARK INTRA:                  -0.287
REMARK UNBOUND:                -0.410
REMARK  Name = 
REMARK  6 active torsions:
REMARK  status: ('A' for Active; 'I' for Inactive)
REMARK    1  A    between atoms: N_1  and  C_2
REMARK    2  A    between atoms: C_2  and  C_3
REMARK    3  A    between atoms: C_6  and  C_7
REMARK    4  A    between atoms: C_7  and  N_8
REMARK    5  A    between atoms: CA_13  and  C_14
REMARK    6  A    between atoms: C_14  and  O_15
REMARK                            x       y       z     vdW  Elec       q    Type
REMARK                         _______ _______ _______ _____ _____    ______ ____
ROOT
ATOM      1  C   UNL     1      45.852   5.569  13.428  0.00  0.00    +0.000 C 
ENDROOT
BRANCH   1   2
ATOM      2  N   UNL     1      47.240   5.971  13.571  0.00  0.00    +0.000 N 
ATOM      3  C   UNL     1      47.844   5.655  14.770  0.00  0.00    +0.000 A 
ATOM      4  N   UNL     1      48.756   6.521  15.224  0.00  0.00    +0.000 NA
ATOM      5  C   UNL     1      49.374   6.203  16.377  0.00  0.00    +0.000 A 
ATOM      6  C   UNL     1      49.107   5.063  17.093  0.00  0.00    +0.000 A 
ATOM      7  CA  UNL     1      48.142   4.236  16.563  0.00  0.00    +0.000 A 
ATOM      8  N   UNL     1      47.507   4.524  15.407  0.00  0.00    +0.000 NA
ATOM      9  H   UNL     1      47.419   6.949  13.370  0.00  0.00    +0.000 HD
BRANCH   7  10
ATOM     10  C   UNL     1      47.774   2.944  17.243  0.00  0.00    +0.000 C 
BRANCH  10  11
ATOM     11  O   UNL     1      46.402   2.947  17.626  0.00  0.00    +0.000 OA
ATOM     12  H   UNL     1      46.051   3.817  17.364  0.00  0.00    +0.000 HD
ENDBRANCH  10  11
ENDBRANCH   7  10
ENDBRANCH   1   2
BRANCH   1  16
ATOM     13  C   UNL     1      45.053   4.068   9.572  0.00  0.00    +0.000 A 
ATOM     14  C   UNL     1      45.576   5.342   9.763  0.00  0.00    +0.000 A 
ATOM     15  N   UNL     1      45.826   5.860  10.989  0.00  0.00    +0.000 NA
ATOM     16  C   UNL     1      45.548   5.049  12.043  0.00  0.00    +0.000 A 
ATOM     17  C   UNL     1      44.999   3.786  11.854  0.00  0.00    +0.000 A 
ATOM     18  N   UNL     1      44.747   3.267  10.626  0.00  0.00    +0.000 NA
BRANCH  13  19
ATOM     19  C   UNL     1      44.833   3.537   8.176  0.00  0.00    +0.000 C 
BRANCH  19  20
ATOM     20  N   UNL     1      45.898   3.935   7.250  0.00  0.00    +0.000 NA
ATOM     21  H   UNL     1      46.400   4.726   7.650  0.00  0.00    +0.000 HD
ATOM     22  H   UNL     1      45.462   4.287   6.397  0.00  0.00    +0.000 HD
ENDBRANCH  19  20
ENDBRANCH  13  19
ENDBRANCH   1  16
TORSDOF 6
ENDMDL
MODEL 6
REMARK VINA RESULT:    -5.763      4.451      7.700
REMARK INTER + INTRA:          -7.858
REMARK INTER:                  -7.499
REMARK INTRA:                  -0.359
REMARK UNBOUND:                -0.410
REMARK  Name = 
REMARK  6 active torsions:
REMARK  status: ('A' for Active; 'I' for Inactive)
REMARK    1  A    between atoms: N_1  and  C_2
REMARK    2  A    between atoms: C_2  and  C_3
REMARK    3  A    between atoms: C_6  and  C_7
REMARK    4  A    between atoms: C_7  and  N_8
REMARK    5  A    between atoms: CA_13  and  C_14
REMARK    6  A    between atoms: C_14  and  O_15
REMARK                            x       y       z     vdW  Elec       q    Type
REMARK                         _______ _______ _______ _____ _____    ______ ____
ROOT
ATOM      1  C   UNL     1      47.628   4.461  16.612  0.00  0.00    +0.000 C 
ENDROOT
BRANCH   1   2
ATOM      2  N   UNL     1      46.881   3.830  15.538  0.00  0.00    +0.000 N 
ATOM      3  C   UNL     1      46.720   4.578  14.390  0.00  0.00    +0.000 A 
ATOM      4  N   UNL     1      45.572   4.407  13.725  0.00  0.00    +0.000 NA
ATOM      5  C   UNL     1      45.422   5.108  12.585  0.00  0.00    +0.000 A 
ATOM      6  C   UNL     1      46.367   5.975  12.095  0.00  0.00    +0.000 A 
ATOM      7  CA  UNL     1      47.510   6.103  12.852  0.00  0.00    +0.000 A 
ATOM      8  N   UNL     1      47.693   5.412  13.998  0.00  0.00    +0.000 NA
ATOM      9  H   UNL     1      45.975   3.465  15.812  0.00  0.00    +0.000 HD
BRANCH   7  10
ATOM     10  C   UNL     1      48.631   7.008  12.411  0.00  0.00    +0.000 C 
BRANCH  10  11
ATOM     11  O   UNL     1      49.767   6.853  13.254  0.00  0.00    +0.000 OA
ATOM     12  H   UNL     1      50.388   6.280  12.770  0.00  0.00    +0.000 HD
ENDBRANCH  10  11
ENDBRANCH   7  10
ENDBRANCH   1   2
BRANCH   1  16
ATOM     13  C   UNL     1      51.188   2.394  17.515  0.00  0.00    +0.000 A 
ATOM     14  C   UNL     1      50.162   1.795  16.792  0.00  0.00    +0.000 A 
ATOM     15  N   UNL     1      48.999   2.426  16.502  0.00  0.00    +0.000 NA
ATOM     16  C   UNL     1      48.891   3.704  16.949  0.00  0.00    +0.000 A 
ATOM     17  C   UNL     1      49.905   4.293  17.696  0.00  0.00    +0.000 A 
ATOM     18  N   UNL     1      51.070   3.662  17.988  0.00  0.00    +0.000 NA
BRANCH  13  19
ATOM     19  C   UNL     1      52.475   1.647  17.771  0.00  0.00    +0.000 C 
BRANCH  19  20
ATOM     20  N   UNL     1      52.245   0.273  18.230  0.00  0.00    +0.000 NA
ATOM     21  H   UNL     1      52.694  -0.368  17.579  0.00  0.00    +0.000 HD
ATOM     22  H   UNL     1      51.245   0.079  18.163  0.00  0.00    +0.000 HD
ENDBRANCH  19  20
ENDBRANCH  13  19
ENDBRANCH   1  16
TORSDOF 6
ENDMDL
MODEL 7
REMARK VINA RESULT:    -5.664      4.464      6.418
REMARK INTER + INTRA:          -7.729
REMARK INTER:                  -7.474
REMARK INTRA:                  -0.255
REMARK UNBOUND:                -0.410
REMARK  Name = 
REMARK  6 active torsions:
REMARK  status: ('A' for Active; 'I' for Inactive)
REMARK    1  A    between atoms: N_1  and  C_2
REMARK    2  A    between atoms: C_2  and  C_3
REMARK    3  A    between atoms: C_6  and  C_7
REMARK    4  A    between atoms: C_7  and  N_8
REMARK    5  A    between atoms: CA_13  and  C_14
REMARK    6  A    between atoms: C_14  and  O_15
REMARK                            x       y       z     vdW  Elec       q    Type
REMARK                         _______ _______ _______ _____ _____    ______ ____
ROOT
ATOM      1  C   UNL     1      47.133   4.202  14.669  0.00  0.00    +0.000 C 
ENDROOT
BRANCH   1   2
ATOM      2  N   UNL     1      47.475   5.266  15.595  0.00  0.00    +0.000 N 
ATOM      3  C   UNL     1      48.204   4.894  16.705  0.00  0.00    +0.000 A 
ATOM      4  N   UNL     1      47.958   5.569  17.833  0.00  0.00    +0.000 NA
ATOM      5  C   UNL     1      48.690   5.233  18.913  0.00  0.00    +0.000 A 
ATOM      6  C   UNL     1      49.645   4.248  18.907  0.00  0.00    +0.000 A 
ATOM      7  CA  UNL     1      49.822   3.594  17.709  0.00  0.00    +0.000 A 
ATOM      8  N   UNL     1      49.107   3.908  16.607  0.00  0.00    +0.000 NA
ATOM      9  H   UNL     1      46.687   5.827  15.903  0.00  0.00    +0.000 HD
BRANCH   7  10
ATOM     10  C   UNL     1      50.856   2.507  17.568  0.00  0.00    +0.000 C 
BRANCH  10  11
ATOM     11  O   UNL     1      50.534   1.641  16.485  0.00  0.00    +0.000 OA
ATOM     12  H   UNL     1      51.306   1.651  15.892  0.00  0.00    +0.000 HD
ENDBRANCH  10  11
ENDBRANCH   7  10
ENDBRANCH   1   2
BRANCH   1  16
ATOM     13  C   UNL     1      44.094   5.403  12.006  0.00  0.00    +0.000 A 
ATOM     14  C   UNL     1      44.190   4.091  12.457  0.00  0.00    +0.000 A 
ATOM     15  N   UNL     1      45.165   3.670  13.297  0.00  0.00    +0.000 NA
ATOM     16  C   UNL     1      46.054   4.617  13.697  0.00  0.00    +0.000 A 
ATOM     17  C   UNL     1      45.975   5.922  13.224  0.00  0.00    +0.000 A 
ATOM     18  N   UNL     1      44.999   6.345  12.381  0.00  0.00    +0.000 NA
BRANCH  13  19
ATOM     19  C   UNL     1      42.960   5.815  11.099  0.00  0.00    +0.000 C 
BRANCH  19  20
ATOM     20  N   UNL     1      41.833   6.393  11.838  0.00  0.00    +0.000 NA
ATOM     21  H   UNL     1      41.613   7.304  11.438  0.00  0.00    +0.000 HD
ATOM     22  H   UNL     1      42.141   6.578  12.793  0.00  0.00    +0.000 HD
ENDBRANCH  19  20
ENDBRANCH  13  19
ENDBRANCH   1  16
TORSDOF 6
ENDMDL
MODEL 8
REMARK VINA RESULT:    -5.347      4.076      7.921
REMARK INTER + INTRA:          -7.319
REMARK INTER:                  -7.080
REMARK INTRA:                  -0.239
REMARK UNBOUND:                -0.410
REMARK  Name = 
REMARK  6 active torsions:
REMARK  status: ('A' for Active; 'I' for Inactive)
REMARK    1  A    between atoms: N_1  and  C_2
REMARK    2  A    between atoms: C_2  and  C_3
REMARK    3  A    between atoms: C_6  and  C_7
REMARK    4  A    between atoms: C_7  and  N_8
REMARK    5  A    between atoms: CA_13  and  C_14
REMARK    6  A    between atoms: C_14  and  O_15
REMARK                            x       y       z     vdW  Elec       q    Type
REMARK                         _______ _______ _______ _____ _____    ______ ____
ROOT
ATOM      1  C   UNL     1      46.962   4.003  15.038  0.00  0.00    +0.000 C 
ENDROOT
BRANCH   1   2
ATOM      2  N   UNL     1      46.739   5.251  14.329  0.00  0.00    +0.000 N 
ATOM      3  C   UNL     1      46.065   5.156  13.130  0.00  0.00    +0.000 A 
ATOM      4  N   UNL     1      46.420   6.023  12.176  0.00  0.00    +0.000 NA
ATOM      5  C   UNL     1      45.743   5.958  11.014  0.00  0.00    +0.000 A 
ATOM      6  C   UNL     1      44.738   5.057  10.769  0.00  0.00    +0.000 A 
ATOM      7  CA  UNL     1      44.448   4.190  11.799  0.00  0.00    +0.000 A 
ATOM      8  N   UNL     1      45.105   4.231  12.978  0.00  0.00    +0.000 NA
ATOM      9  H   UNL     1      47.574   5.808  14.184  0.00  0.00    +0.000 HD
BRANCH   7  10
ATOM     10  C   UNL     1      43.350   3.168  11.662  0.00  0.00    +0.000 C 
BRANCH  10  11
ATOM     11  O   UNL     1      43.720   2.150  10.738  0.00  0.00    +0.000 OA
ATOM     12  H   UNL     1      43.727   1.317  11.242  0.00  0.00    +0.000 HD
ENDBRANCH  10  11
ENDBRANCH   7  10
ENDBRANCH   1   2
BRANCH   1  16
ATOM     13  C   UNL     1      49.222   4.566  18.551  0.00  0.00    +0.000 A 
ATOM     14  C   UNL     1      49.492   5.282  17.389  0.00  0.00    +0.000 A 
ATOM     15  N   UNL     1      48.797   5.110  16.240  0.00  0.00    +0.000 NA
ATOM     16  C   UNL     1      47.793   4.196  16.285  0.00  0.00    +0.000 A 
ATOM     17  C   UNL     1      47.540   3.461  17.438  0.00  0.00    +0.000 A 
ATOM     18  N   UNL     1      48.237   3.632  18.589  0.00  0.00    +0.000 NA
BRANCH  13  19
ATOM     19  C   UNL     1      50.012   4.834  19.809  0.00  0.00    +0.000 C 
BRANCH  19  20
ATOM     20  N   UNL     1      51.360   4.260  19.759  0.00  0.00    +0.000 NA
ATOM     21  H   UNL     1      51.981   4.834  20.327  0.00  0.00    +0.000 HD
ATOM     22  H   UNL     1      51.705   4.344  18.802  0.00  0.00    +0.000 HD
ENDBRANCH  19  20
ENDBRANCH  13  19
ENDBRANCH   1  16
TORSDOF 6
ENDMDL
MODEL 9
REMARK VINA RESULT:    -5.346      4.482      5.967
REMARK INTER + INTRA:          -7.319
REMARK INTER:                  -6.994
REMARK INTRA:                  -0.324
REMARK UNBOUND:                -0.410
REMARK  Name = 
REMARK  6 active torsions:
REMARK  status: ('A' for Active; 'I' for Inactive)
REMARK    1  A    between atoms: N_1  and  C_2
REMARK    2  A    between atoms: C_2  and  C_3
REMARK    3  A    between atoms: C_6  and  C_7
REMARK    4  A    between atoms: C_7  and  N_8
REMARK    5  A    between atoms: CA_13  and  C_14
REMARK    6  A    between atoms: C_14  and  O_15
REMARK                            x       y       z     vdW  Elec       q    Type
REMARK                         _______ _______ _______ _____ _____    ______ ____
ROOT
ATOM      1  C   UNL     1      46.985   4.803  13.593  0.00  0.00    +0.000 C 
ENDROOT
BRANCH   1   2
ATOM      2  N   UNL     1      46.354   4.430  14.846  0.00  0.00    +0.000 N 
ATOM      3  C   UNL     1      47.193   4.295  15.932  0.00  0.00    +0.000 A 
ATOM      4  N   UNL     1      46.864   3.357  16.827  0.00  0.00    +0.000 NA
ATOM      5  C   UNL     1      47.661   3.243  17.906  0.00  0.00    +0.000 A 
ATOM      6  C   UNL     1      48.772   4.020  18.117  0.00  0.00    +0.000 A 
ATOM      7  CA  UNL     1      49.046   4.949  17.139  0.00  0.00    +0.000 A 
ATOM      8  N   UNL     1      48.266   5.091  16.046  0.00  0.00    +0.000 NA
ATOM      9  H   UNL     1      45.765   3.606  14.792  0.00  0.00    +0.000 HD
BRANCH   7  10
ATOM     10  C   UNL     1      50.226   5.877  17.264  0.00  0.00    +0.000 C 
BRANCH  10  11
ATOM     11  O   UNL     1      50.689   6.282  15.980  0.00  0.00    +0.000 OA
ATOM     12  H   UNL     1      50.564   7.247  15.940  0.00  0.00    +0.000 HD
ENDBRANCH  10  11
ENDBRANCH   7  10
ENDBRANCH   1   2
BRANCH   1  16
ATOM     13  C   UNL     1      44.886   7.920  11.682  0.00  0.00    +0.000 A 
ATOM     14  C   UNL     1      44.434   6.606  11.641  0.00  0.00    +0.000 A 
ATOM     15  N   UNL     1      45.095   5.580  12.228  0.00  0.00    +0.000 NA
ATOM     16  C   UNL     1      46.237   5.909  12.885  0.00  0.00    +0.000 A 
ATOM     17  C   UNL     1      46.705   7.219  12.903  0.00  0.00    +0.000 A 
ATOM     18  N   UNL     1      46.044   8.247  12.314  0.00  0.00    +0.000 NA
BRANCH  13  19
ATOM     19  C   UNL     1      44.081   9.023  11.038  0.00  0.00    +0.000 C 
BRANCH  19  20
ATOM     20  N   UNL     1      42.681   8.644  10.825  0.00  0.00    +0.000 NA
ATOM     21  H   UNL     1      42.653   7.809  10.242  0.00  0.00    +0.000 HD
ATOM     22  H   UNL     1      42.233   9.379  10.276  0.00  0.00    +0.000 HD
ENDBRANCH  19  20
ENDBRANCH  13  19
ENDBRANCH   1  16
TORSDOF 6
ENDMDL
