MODEL 1
REMARK VINA RESULT:    -7.974      0.000      0.000
REMARK INTER + INTRA:         -11.114
REMARK INTER:                 -10.305
REMARK INTRA:                  -0.809
REMARK UNBOUND:                -0.809
REMARK  Name = 
REMARK  6 active torsions:
REMARK  status: ('A' for Active; 'I' for Inactive)
REMARK    1  A    between atoms: C_1  and  C_2
REMARK    2  A    between atoms: C_2  and  C_3
REMARK    3  A    between atoms: C_2  and  C_14
REMARK    4  A    between atoms: C_3  and  N_4
REMARK    5  A    between atoms: C_8  and  C_9
REMARK    6  A    between atoms: C_18  and  C_19
REMARK                            x       y       z     vdW  Elec       q    Type
REMARK                         _______ _______ _______ _____ _____    ______ ____
ROOT
ATOM      1  C   UNL     1      43.604   4.642  10.579  0.00  0.00    +0.000 C 
ENDROOT
BRANCH   1   2
ATOM      2  N   UNL     1      43.939   3.233  10.384  0.00  0.00    +0.000 N 
ATOM      3  C   UNL     1      44.847   3.026   9.333  0.00  0.00    +0.000 A 
ATOM      4  C   UNL     1      45.277   1.729   9.014  0.00  0.00    +0.000 A 
ATOM      5  N   UNL     1      46.165   1.439   8.023  0.00  0.00    +0.000 NA
ATOM      6  C   UNL     1      46.625   2.531   7.350  0.00  0.00    +0.000 A 
ATOM      7  C   UNL     1      46.221   3.816   7.658  0.00  0.00    +0.000 A 
ATOM      8  N   UNL     1      45.337   4.086   8.649  0.00  0.00    +0.000 NA
ATOM      9  H   UNL     1      43.103   2.676  10.219  0.00  0.00    +0.000 HD
BRANCH   6  10
ATOM     10  C   UNL     1      47.605   2.323   6.251  0.00  0.00    +0.000 C 
ATOM     11  N   UNL     1      47.540   3.213   5.217  0.00  0.00    +0.000 N 
ATOM     12  O   UNL     1      48.419   1.410   6.266  0.00  0.00    +0.000 OA
ATOM     13  H   UNL     1      46.848   3.953   5.220  0.00  0.00    +0.000 HD
ATOM     14  H   UNL     1      48.173   3.110   4.435  0.00  0.00    +0.000 HD
ENDBRANCH   6  10
ENDBRANCH   1   2
BRANCH   1  16
ATOM     15  C   UNL     1      42.669   5.446  12.837  0.00  0.00    +0.000 C 
ATOM     16  C   UNL     1      43.831   4.967  12.027  0.00  0.00    +0.000 C 
BRANCH  16  17
ATOM     17  C   UNL     1      45.210   5.226  12.460  0.00  0.00    +0.000 A 
ATOM     18  C   UNL     1      46.002   6.176  11.805  0.00  0.00    +0.000 A 
ATOM     19  C   UNL     1      47.258   6.522  12.306  0.00  0.00    +0.000 A 
ATOM     20  C   UNL     1      47.726   5.932  13.481  0.00  0.00    +0.000 A 
ATOM     21  C   UNL     1      46.954   4.968  14.142  0.00  0.00    +0.000 A 
ATOM     22  C   UNL     1      45.711   4.599  13.602  0.00  0.00    +0.000 A 
BRANCH  21  23
ATOM     23  C   UNL     1      47.395   4.356  15.447  0.00  0.00    +0.000 C 
ATOM     24  F   UNL     1      46.419   4.321  16.394  0.00  0.00    +0.000 F 
ATOM     25  F   UNL     1      47.807   3.065  15.290  0.00  0.00    +0.000 F 
ATOM     26  F   UNL     1      48.446   5.016  16.006  0.00  0.00    +0.000 F 
ENDBRANCH  21  23
ENDBRANCH  16  17
ENDBRANCH   1  16
TORSDOF 5
ENDMDL
MODEL 2
REMARK VINA RESULT:    -7.571      1.568      2.208
REMARK INTER + INTRA:         -10.593
REMARK INTER:                  -9.865
REMARK INTRA:                  -0.728
REMARK UNBOUND:                -0.809
REMARK  Name = 
REMARK  6 active torsions:
REMARK  status: ('A' for Active; 'I' for Inactive)
REMARK    1  A    between atoms: C_1  and  C_2
REMARK    2  A    between atoms: C_2  and  C_3
REMARK    3  A    between atoms: C_2  and  C_14
REMARK    4  A    between atoms: C_3  and  N_4
REMARK    5  A    between atoms: C_8  and  C_9
REMARK    6  A    between atoms: C_18  and  C_19
REMARK                            x       y       z     vdW  Elec       q    Type
REMARK                         _______ _______ _______ _____ _____    ______ ____
ROOT
ATOM      1  C   UNL     1      43.509   4.897  10.493  0.00  0.00    +0.000 C 
ENDROOT
BRANCH   1   2
ATOM      2  N   UNL     1      43.902   3.492  10.416  0.00  0.00    +0.000 N 
ATOM      3  C   UNL     1      44.806   3.231   9.374  0.00  0.00    +0.000 A 
ATOM      4  C   UNL     1      45.287   1.931   9.162  0.00  0.00    +0.000 A 
ATOM      5  N   UNL     1      46.176   1.592   8.187  0.00  0.00    +0.000 NA
ATOM      6  C   UNL     1      46.582   2.640   7.416  0.00  0.00    +0.000 A 
ATOM      7  C   UNL     1      46.128   3.929   7.617  0.00  0.00    +0.000 A 
ATOM      8  N   UNL     1      45.244   4.247   8.593  0.00  0.00    +0.000 NA
ATOM      9  H   UNL     1      43.089   2.888  10.312  0.00  0.00    +0.000 HD
BRANCH   6  10
ATOM     10  C   UNL     1      47.558   2.378   6.325  0.00  0.00    +0.000 C 
ATOM     11  N   UNL     1      47.494   3.219   5.251  0.00  0.00    +0.000 N 
ATOM     12  O   UNL     1      48.369   1.462   6.380  0.00  0.00    +0.000 OA
ATOM     13  H   UNL     1      46.805   3.961   5.222  0.00  0.00    +0.000 HD
ATOM     14  H   UNL     1      48.124   3.078   4.473  0.00  0.00    +0.000 HD
ENDBRANCH   6  10
ENDBRANCH   1   2
BRANCH   1  16
ATOM     15  C   UNL     1      42.993   5.114  13.004  0.00  0.00    +0.000 C 
ATOM     16  C   UNL     1      43.899   5.404  11.851  0.00  0.00    +0.000 C 
BRANCH  16  17
ATOM     17  C   UNL     1      44.875   6.501  11.916  0.00  0.00    +0.000 A 
ATOM     18  C   UNL     1      44.511   7.807  11.569  0.00  0.00    +0.000 A 
ATOM     19  C   UNL     1      45.396   8.868  11.768  0.00  0.00    +0.000 A 
ATOM     20  C   UNL     1      46.649   8.633  12.334  0.00  0.00    +0.000 A 
ATOM     21  C   UNL     1      47.037   7.330  12.674  0.00  0.00    +0.000 A 
ATOM     22  C   UNL     1      46.153   6.268  12.428  0.00  0.00    +0.000 A 
BRANCH  21  23
ATOM     23  C   UNL     1      48.355   7.044  13.346  0.00  0.00    +0.000 C 
ATOM     24  F   UNL     1      49.186   6.257  12.611  0.00  0.00    +0.000 F 
ATOM     25  F   UNL     1      49.055   8.187  13.602  0.00  0.00    +0.000 F 
ATOM     26  F   UNL     1      48.205   6.423  14.548  0.00  0.00    +0.000 F 
ENDBRANCH  21  23
ENDBRANCH  16  17
ENDBRANCH   1  16
TORSDOF 5
ENDMDL
MODEL 3
REMARK VINA RESULT:    -7.550      4.644      6.714
REMARK INTER + INTRA:         -10.567
REMARK INTER:                  -9.765
REMARK INTRA:                  -0.802
REMARK UNBOUND:                -0.809
REMARK  Name = 
REMARK  6 active torsions:
REMARK  status: ('A' for Active; 'I' for Inactive)
REMARK    1  A    between atoms: C_1  and  C_2
REMARK    2  A    between atoms: C_2  and  C_3
REMARK    3  A    between atoms: C_2  and  C_14
REMARK    4  A    between atoms: C_3  and  N_4
REMARK    5  A    between atoms: C_8  and  C_9
REMARK    6  A    between atoms: C_18  and  C_19
REMARK                            x       y       z     vdW  Elec       q    Type
REMARK                         _______ _______ _______ _____ _____    ______ ____
ROOT
ATOM      1  C   UNL     1      43.925   4.357  11.962  0.00  0.00    +0.000 C 
ENDROOT
BRANCH   1   2
ATOM      2  N   UNL     1      44.757   3.937  13.087  0.00  0.00    +0.000 N 
ATOM      3  C   UNL     1      45.879   4.759  13.276  0.00  0.00    +0.000 A 
ATOM      4  C   UNL     1      46.783   4.496  14.317  0.00  0.00    +0.000 A 
ATOM      5  N   UNL     1      47.885   5.249  14.582  0.00  0.00    +0.000 NA
ATOM      6  C   UNL     1      48.049   6.312  13.745  0.00  0.00    +0.000 A 
ATOM      7  C   UNL     1      47.163   6.593  12.721  0.00  0.00    +0.000 A 
ATOM      8  N   UNL     1      46.070   5.832  12.474  0.00  0.00    +0.000 NA
ATOM      9  H   UNL     1      45.064   2.972  12.976  0.00  0.00    +0.000 HD
BRANCH   6  10
ATOM     10  C   UNL     1      49.221   7.203  13.953  0.00  0.00    +0.000 C 
ATOM     11  N   UNL     1      50.024   7.397  12.865  0.00  0.00    +0.000 N 
ATOM     12  O   UNL     1      49.459   7.728  15.032  0.00  0.00    +0.000 OA
ATOM     13  H   UNL     1      49.815   6.941  11.985  0.00  0.00    +0.000 HD
ATOM     14  H   UNL     1      50.844   7.982  12.954  0.00  0.00    +0.000 HD
ENDBRANCH   6  10
ENDBRANCH   1   2
BRANCH   1  16
ATOM     15  C   UNL     1      43.499   1.881  11.409  0.00  0.00    +0.000 C 
ATOM     16  C   UNL     1      43.922   3.242  10.957  0.00  0.00    +0.000 C 
BRANCH  16  17
ATOM     17  C   UNL     1      44.730   3.416   9.743  0.00  0.00    +0.000 A 
ATOM     18  C   UNL     1      45.091   4.692   9.297  0.00  0.00    +0.000 A 
ATOM     19  C   UNL     1      45.975   4.848   8.228  0.00  0.00    +0.000 A 
ATOM     20  C   UNL     1      46.520   3.725   7.606  0.00  0.00    +0.000 A 
ATOM     21  C   UNL     1      46.159   2.439   8.028  0.00  0.00    +0.000 A 
ATOM     22  C   UNL     1      45.236   2.298   9.076  0.00  0.00    +0.000 A 
BRANCH  21  23
ATOM     23  C   UNL     1      46.775   1.202   7.425  0.00  0.00    +0.000 C 
ATOM     24  F   UNL     1      46.303   0.041   7.952  0.00  0.00    +0.000 F 
ATOM     25  F   UNL     1      46.545   1.122   6.082  0.00  0.00    +0.000 F 
ATOM     26  F   UNL     1      48.127   1.167   7.573  0.00  0.00    +0.000 F 
ENDBRANCH  21  23
ENDBRANCH  16  17
ENDBRANCH   1  16
TORSDOF 5
ENDMDL
MODEL 4
REMARK VINA RESULT:    -7.434      3.048      3.569
REMARK INTER + INTRA:         -10.416
REMARK INTER:                  -9.710
REMARK INTRA:                  -0.706
REMARK UNBOUND:                -0.809
REMARK  Name = 
REMARK  6 active torsions:
REMARK  status: ('A' for Active; 'I' for Inactive)
REMARK    1  A    between atoms: C_1  and  C_2
REMARK    2  A    between atoms: C_2  and  C_3
REMARK    3  A    between atoms: C_2  and  C_14
REMARK    4  A    between atoms: C_3  and  N_4
REMARK    5  A    between atoms: C_8  and  C_9
REMARK    6  A    between atoms: C_18  and  C_19
REMARK                            x       y       z     vdW  Elec       q    Type
REMARK                         _______ _______ _______ _____ _____    ______ ____
ROOT
ATOM      1  C   UNL     1      43.498   4.655  10.725  0.00  0.00    +0.000 C 
ENDROOT
BRANCH   1   2
ATOM      2  N   UNL     1      43.805   3.250  10.464  0.00  0.00    +0.000 N 
ATOM      3  C   UNL     1      44.740   3.075   9.432  0.00  0.00    +0.000 A 
ATOM      4  C   UNL     1      45.147   1.786   9.056  0.00  0.00    +0.000 A 
ATOM      5  N   UNL     1      46.059   1.526   8.079  0.00  0.00    +0.000 NA
ATOM      6  C   UNL     1      46.568   2.639   7.481  0.00  0.00    +0.000 A 
ATOM      7  C   UNL     1      46.186   3.917   7.845  0.00  0.00    +0.000 A 
ATOM      8  N   UNL     1      45.279   4.156   8.821  0.00  0.00    +0.000 NA
ATOM      9  H   UNL     1      42.961   2.724  10.244  0.00  0.00    +0.000 HD
BRANCH   6  10
ATOM     10  C   UNL     1      47.577   2.464   6.402  0.00  0.00    +0.000 C 
ATOM     11  N   UNL     1      47.377   3.204   5.272  0.00  0.00    +0.000 N 
ATOM     12  O   UNL     1      48.528   1.702   6.515  0.00  0.00    +0.000 OA
ATOM     13  H   UNL     1      46.576   3.819   5.196  0.00  0.00    +0.000 HD
ATOM     14  H   UNL     1      48.025   3.114   4.501  0.00  0.00    +0.000 HD
ENDBRANCH   6  10
ENDBRANCH   1   2
BRANCH   1  16
ATOM     15  C   UNL     1      43.165   4.543  13.274  0.00  0.00    +0.000 C 
ATOM     16  C   UNL     1      43.991   4.979  12.105  0.00  0.00    +0.000 C 
BRANCH  16  17
ATOM     17  C   UNL     1      44.982   6.054  12.241  0.00  0.00    +0.000 A 
ATOM     18  C   UNL     1      46.322   5.765  12.521  0.00  0.00    +0.000 A 
ATOM     19  C   UNL     1      47.285   6.775  12.507  0.00  0.00    +0.000 A 
ATOM     20  C   UNL     1      46.917   8.084  12.196  0.00  0.00    +0.000 A 
ATOM     21  C   UNL     1      45.577   8.396  11.929  0.00  0.00    +0.000 A 
ATOM     22  C   UNL     1      44.613   7.378  11.988  0.00  0.00    +0.000 A 
BRANCH  21  23
ATOM     23  C   UNL     1      45.151   9.784  11.525  0.00  0.00    +0.000 C 
ATOM     24  F   UNL     1      44.347  10.397  12.435  0.00  0.00    +0.000 F 
ATOM     25  F   UNL     1      46.219  10.616  11.353  0.00  0.00    +0.000 F 
ATOM     26  F   UNL     1      44.473   9.801  10.345  0.00  0.00    +0.000 F 
ENDBRANCH  21  23
ENDBRANCH  16  17
ENDBRANCH   1  16
TORSDOF 5
ENDMDL
MODEL 5
REMARK VINA RESULT:    -7.420      2.038      2.669
REMARK INTER + INTRA:         -10.398
REMARK INTER:                  -9.610
REMARK INTRA:                  -0.788
REMARK UNBOUND:                -0.809
REMARK  Name = 
REMARK  6 active torsions:
REMARK  status: ('A' for Active; 'I' for Inactive)
REMARK    1  A    between atoms: C_1  and  C_2
REMARK    2  A    between atoms: C_2  and  C_3
REMARK    3  A    between atoms: C_2  and  C_14
REMARK    4  A    between atoms: C_3  and  N_4
REMARK    5  A    between atoms: C_8  and  C_9
REMARK    6  A    between atoms: C_18  and  C_19
REMARK                            x       y       z     vdW  Elec       q    Type
REMARK                         _______ _______ _______ _____ _____    ______ ____
ROOT
ATOM      1  C   UNL     1      43.350   4.042  10.962  0.00  0.00    +0.000 C 
ENDROOT
BRANCH   1   2
ATOM      2  N   UNL     1      44.023   4.762   9.883  0.00  0.00    +0.000 N 
ATOM      3  C   UNL     1      44.884   3.946   9.132  0.00  0.00    +0.000 A 
ATOM      4  C   UNL     1      45.608   4.480   8.055  0.00  0.00    +0.000 A 
ATOM      5  N   UNL     1      46.451   3.759   7.266  0.00  0.00    +0.000 NA
ATOM      6  C   UNL     1      46.538   2.441   7.603  0.00  0.00    +0.000 A 
ATOM      7  C   UNL     1      45.826   1.895   8.653  0.00  0.00    +0.000 A 
ATOM      8  N   UNL     1      44.989   2.629   9.426  0.00  0.00    +0.000 NA
ATOM      9  H   UNL     1      44.546   5.558  10.242  0.00  0.00    +0.000 HD
BRANCH   6  10
ATOM     10  C   UNL     1      47.430   1.563   6.799  0.00  0.00    +0.000 C 
ATOM     11  N   UNL     1      48.615   2.116   6.405  0.00  0.00    +0.000 N 
ATOM     12  O   UNL     1      47.122   0.417   6.501  0.00  0.00    +0.000 OA
ATOM     13  H   UNL     1      48.842   3.071   6.652  0.00  0.00    +0.000 HD
ATOM     14  H   UNL     1      49.254   1.568   5.844  0.00  0.00    +0.000 HD
ENDBRANCH   6  10
ENDBRANCH   1   2
BRANCH   1  16
ATOM     15  C   UNL     1      42.310   5.828  12.494  0.00  0.00    +0.000 C 
ATOM     16  C   UNL     1      43.437   4.891  12.197  0.00  0.00    +0.000 C 
BRANCH  16  17
ATOM     17  C   UNL     1      44.763   5.093  12.795  0.00  0.00    +0.000 A 
ATOM     18  C   UNL     1      45.532   4.004  13.221  0.00  0.00    +0.000 A 
ATOM     19  C   UNL     1      46.846   4.187  13.655  0.00  0.00    +0.000 A 
ATOM     20  C   UNL     1      47.409   5.464  13.650  0.00  0.00    +0.000 A 
ATOM     21  C   UNL     1      46.650   6.568  13.241  0.00  0.00    +0.000 A 
ATOM     22  C   UNL     1      45.316   6.374  12.848  0.00  0.00    +0.000 A 
BRANCH  21  23
ATOM     23  C   UNL     1      47.242   7.952  13.159  0.00  0.00    +0.000 C 
ATOM     24  F   UNL     1      48.387   8.102  13.878  0.00  0.00    +0.000 F 
ATOM     25  F   UNL     1      47.559   8.295  11.878  0.00  0.00    +0.000 F 
ATOM     26  F   UNL     1      46.386   8.914  13.601  0.00  0.00    +0.000 F 
ENDBRANCH  21  23
ENDBRANCH  16  17
ENDBRANCH   1  16
TORSDOF 5
ENDMDL
MODEL 6
REMARK VINA RESULT:    -7.084      4.937      7.600
REMARK INTER + INTRA:          -9.964
REMARK INTER:                  -9.515
REMARK INTRA:                  -0.449
REMARK UNBOUND:                -0.809
REMARK  Name = 
REMARK  6 active torsions:
REMARK  status: ('A' for Active; 'I' for Inactive)
REMARK    1  A    between atoms: C_1  and  C_2
REMARK    2  A    between atoms: C_2  and  C_3
REMARK    3  A    between atoms: C_2  and  C_14
REMARK    4  A    between atoms: C_3  and  N_4
REMARK    5  A    between atoms: C_8  and  C_9
REMARK    6  A    between atoms: C_18  and  C_19
REMARK                            x       y       z     vdW  Elec       q    Type
REMARK                         _______ _______ _______ _____ _____    ______ ____
ROOT
ATOM      1  C   UNL     1      45.423   3.257  12.378  0.00  0.00    +0.000 C 
ENDROOT
BRANCH   1   2
ATOM      2  N   UNL     1      46.140   4.524  12.507  0.00  0.00    +0.000 N 
ATOM      3  C   UNL     1      46.804   4.656  13.737  0.00  0.00    +0.000 A 
ATOM      4  C   UNL     1      47.543   5.813  14.022  0.00  0.00    +0.000 A 
ATOM      5  N   UNL     1      48.229   6.018  15.181  0.00  0.00    +0.000 NA
ATOM      6  C   UNL     1      48.150   4.984  16.064  0.00  0.00    +0.000 A 
ATOM      7  C   UNL     1      47.436   3.832  15.796  0.00  0.00    +0.000 A 
ATOM      8  N   UNL     1      46.761   3.646  14.637  0.00  0.00    +0.000 NA
ATOM      9  H   UNL     1      45.513   5.315  12.379  0.00  0.00    +0.000 HD
BRANCH   6  10
ATOM     10  C   UNL     1      48.870   5.105  17.360  0.00  0.00    +0.000 C 
ATOM     11  N   UNL     1      48.084   5.213  18.472  0.00  0.00    +0.000 N 
ATOM     12  O   UNL     1      50.092   5.111  17.431  0.00  0.00    +0.000 OA
ATOM     13  H   UNL     1      47.075   5.219  18.388  0.00  0.00    +0.000 HD
ATOM     14  H   UNL     1      48.521   5.313  19.379  0.00  0.00    +0.000 HD
ENDBRANCH   6  10
ENDBRANCH   1   2
BRANCH   1  16
ATOM     15  C   UNL     1      43.070   2.950  11.385  0.00  0.00    +0.000 C 
ATOM     16  C   UNL     1      44.491   3.379  11.208  0.00  0.00    +0.000 C 
BRANCH  16  17
ATOM     17  C   UNL     1      45.086   3.482   9.869  0.00  0.00    +0.000 A 
ATOM     18  C   UNL     1      45.330   4.730   9.285  0.00  0.00    +0.000 A 
ATOM     19  C   UNL     1      46.024   4.827   8.078  0.00  0.00    +0.000 A 
ATOM     20  C   UNL     1      46.498   3.674   7.453  0.00  0.00    +0.000 A 
ATOM     21  C   UNL     1      46.251   2.414   8.014  0.00  0.00    +0.000 A 
ATOM     22  C   UNL     1      45.514   2.329   9.206  0.00  0.00    +0.000 A 
BRANCH  21  23
ATOM     23  C   UNL     1      46.801   1.150   7.404  0.00  0.00    +0.000 C 
ATOM     24  F   UNL     1      46.583   1.048   6.065  0.00  0.00    +0.000 F 
ATOM     25  F   UNL     1      48.152   1.051   7.569  0.00  0.00    +0.000 F 
ATOM     26  F   UNL     1      46.275   0.027   7.963  0.00  0.00    +0.000 F 
ENDBRANCH  21  23
ENDBRANCH  16  17
ENDBRANCH   1  16
TORSDOF 5
ENDMDL
MODEL 7
REMARK VINA RESULT:    -6.887      4.763      6.830
REMARK INTER + INTRA:          -9.710
REMARK INTER:                  -9.002
REMARK INTRA:                  -0.708
REMARK UNBOUND:                -0.809
REMARK  Name = 
REMARK  6 active torsions:
REMARK  status: ('A' for Active; 'I' for Inactive)
REMARK    1  A    between atoms: C_1  and  C_2
REMARK    2  A    between atoms: C_2  and  C_3
REMARK    3  A    between atoms: C_2  and  C_14
REMARK    4  A    between atoms: C_3  and  N_4
REMARK    5  A    between atoms: C_8  and  C_9
REMARK    6  A    between atoms: C_18  and  C_19
REMARK                            x       y       z     vdW  Elec       q    Type
REMARK                         _______ _______ _______ _____ _____    ______ ____
ROOT
ATOM      1  C   UNL     1      45.307   3.817  12.329  0.00  0.00    +0.000 C 
ENDROOT
BRANCH   1   2
ATOM      2  N   UNL     1      44.744   5.103  12.735  0.00  0.00    +0.000 N 
ATOM      3  C   UNL     1      45.632   6.174  12.550  0.00  0.00    +0.000 A 
ATOM      4  C   UNL     1      45.247   7.480  12.887  0.00  0.00    +0.000 A 
ATOM      5  N   UNL     1      46.038   8.577  12.726  0.00  0.00    +0.000 NA
ATOM      6  C   UNL     1      47.262   8.308  12.191  0.00  0.00    +0.000 A 
ATOM      7  C   UNL     1      47.654   7.030  11.842  0.00  0.00    +0.000 A 
ATOM      8  N   UNL     1      46.852   5.951  12.008  0.00  0.00    +0.000 NA
ATOM      9  H   UNL     1      44.444   5.082  13.708  0.00  0.00    +0.000 HD
BRANCH   6  10
ATOM     10  C   UNL     1      48.201   9.440  11.968  0.00  0.00    +0.000 C 
ATOM     11  N   UNL     1      49.513   9.191  12.252  0.00  0.00    +0.000 N 
ATOM     12  O   UNL     1      47.824  10.531  11.560  0.00  0.00    +0.000 OA
ATOM     13  H   UNL     1      49.799   8.285  12.601  0.00  0.00    +0.000 HD
ATOM     14  H   UNL     1      50.193   9.930  12.133  0.00  0.00    +0.000 HD
ENDBRANCH   6  10
ENDBRANCH   1   2
BRANCH   1  16
ATOM     15  C   UNL     1      43.379   2.354  11.456  0.00  0.00    +0.000 C 
ATOM     16  C   UNL     1      44.494   3.310  11.174  0.00  0.00    +0.000 C 
BRANCH  16  17
ATOM     17  C   UNL     1      45.081   3.409   9.831  0.00  0.00    +0.000 A 
ATOM     18  C   UNL     1      45.291   4.654   9.228  0.00  0.00    +0.000 A 
ATOM     19  C   UNL     1      45.978   4.751   8.017  0.00  0.00    +0.000 A 
ATOM     20  C   UNL     1      46.477   3.601   7.406  0.00  0.00    +0.000 A 
ATOM     21  C   UNL     1      46.264   2.344   7.986  0.00  0.00    +0.000 A 
ATOM     22  C   UNL     1      45.534   2.258   9.182  0.00  0.00    +0.000 A 
BRANCH  21  23
ATOM     23  C   UNL     1      46.843   1.086   7.390  0.00  0.00    +0.000 C 
ATOM     24  F   UNL     1      48.193   0.989   7.521  0.00  0.00    +0.000 F 
ATOM     25  F   UNL     1      46.331  -0.036   7.974  0.00  0.00    +0.000 F 
ATOM     26  F   UNL     1      46.578   0.967   6.061  0.00  0.00    +0.000 F 
ENDBRANCH  21  23
ENDBRANCH  16  17
ENDBRANCH   1  16
TORSDOF 5
ENDMDL
MODEL 8
REMARK VINA RESULT:    -6.857      4.895      7.405
REMARK INTER + INTRA:          -9.671
REMARK INTER:                  -9.222
REMARK INTRA:                  -0.449
REMARK UNBOUND:                -0.809
REMARK  Name = 
REMARK  6 active torsions:
REMARK  status: ('A' for Active; 'I' for Inactive)
REMARK    1  A    between atoms: C_1  and  C_2
REMARK    2  A    between atoms: C_2  and  C_3
REMARK    3  A    between atoms: C_2  and  C_14
REMARK    4  A    between atoms: C_3  and  N_4
REMARK    5  A    between atoms: C_8  and  C_9
REMARK    6  A    between atoms: C_18  and  C_19
REMARK                            x       y       z     vdW  Elec       q    Type
REMARK                         _______ _______ _______ _____ _____    ______ ____
ROOT
ATOM      1  C   UNL     1      47.856   6.978  12.027  0.00  0.00    +0.000 C 
ENDROOT
BRANCH   1   2
ATOM      2  N   UNL     1      48.333   7.373  13.351  0.00  0.00    +0.000 N 
ATOM      3  C   UNL     1      48.114   6.390  14.329  0.00  0.00    +0.000 A 
ATOM      4  C   UNL     1      48.516   6.609  15.655  0.00  0.00    +0.000 A 
ATOM      5  N   UNL     1      48.357   5.706  16.662  0.00  0.00    +0.000 NA
ATOM      6  C   UNL     1      47.771   4.538  16.276  0.00  0.00    +0.000 A 
ATOM      7  C   UNL     1      47.378   4.301  14.972  0.00  0.00    +0.000 A 
ATOM      8  N   UNL     1      47.546   5.211  13.983  0.00  0.00    +0.000 NA
ATOM      9  H   UNL     1      47.903   8.245  13.651  0.00  0.00    +0.000 HD
BRANCH   6  10
ATOM     10  C   UNL     1      47.556   3.481  17.300  0.00  0.00    +0.000 C 
ATOM     11  N   UNL     1      48.644   3.157  18.060  0.00  0.00    +0.000 N 
ATOM     12  O   UNL     1      46.474   2.930  17.453  0.00  0.00    +0.000 OA
ATOM     13  H   UNL     1      49.532   3.617  17.906  0.00  0.00    +0.000 HD
ATOM     14  H   UNL     1      48.558   2.434  18.763  0.00  0.00    +0.000 HD
ENDBRANCH   6  10
ENDBRANCH   1   2
BRANCH   1  16
ATOM     15  C   UNL     1      45.934   8.544  12.716  0.00  0.00    +0.000 C 
ATOM     16  C   UNL     1      46.407   7.360  11.934  0.00  0.00    +0.000 C 
BRANCH  16  17
ATOM     17  C   UNL     1      45.461   6.340  11.464  0.00  0.00    +0.000 A 
ATOM     18  C   UNL     1      44.157   6.284  11.969  0.00  0.00    +0.000 A 
ATOM     19  C   UNL     1      43.219   5.408  11.419  0.00  0.00    +0.000 A 
ATOM     20  C   UNL     1      43.574   4.593  10.344  0.00  0.00    +0.000 A 
ATOM     21  C   UNL     1      44.879   4.625   9.835  0.00  0.00    +0.000 A 
ATOM     22  C   UNL     1      45.823   5.479  10.426  0.00  0.00    +0.000 A 
BRANCH  21  23
ATOM     23  C   UNL     1      45.283   3.807   8.634  0.00  0.00    +0.000 C 
ATOM     24  F   UNL     1      44.314   3.712   7.685  0.00  0.00    +0.000 F 
ATOM     25  F   UNL     1      46.372   4.333   8.003  0.00  0.00    +0.000 F 
ATOM     26  F   UNL     1      45.623   2.531   8.961  0.00  0.00    +0.000 F 
ENDBRANCH  21  23
ENDBRANCH  16  17
ENDBRANCH   1  16
TORSDOF 5
ENDMDL
MODEL 9
REMARK VINA RESULT:    -6.794      5.436      8.088
REMARK INTER + INTRA:          -9.589
REMARK INTER:                  -9.016
REMARK INTRA:                  -0.573
REMARK UNBOUND:                -0.809
REMARK  Name = 
REMARK  6 active torsions:
REMARK  status: ('A' for Active; 'I' for Inactive)
REMARK    1  A    between atoms: C_1  and  C_2
REMARK    2  A    between atoms: C_2  and  C_3
REMARK    3  A    between atoms: C_2  and  C_14
REMARK    4  A    between atoms: C_3  and  N_4
REMARK    5  A    between atoms: C_8  and  C_9
REMARK    6  A    between atoms: C_18  and  C_19
REMARK                            x       y       z     vdW  Elec       q    Type
REMARK                         _______ _______ _______ _____ _____    ______ ____
ROOT
ATOM      1  C   UNL     1      47.486   6.201  13.508  0.00  0.00    +0.000 C 
ENDROOT
BRANCH   1   2
ATOM      2  N   UNL     1      46.904   5.119  14.301  0.00  0.00    +0.000 N 
ATOM      3  C   UNL     1      47.536   4.949  15.543  0.00  0.00    +0.000 A 
ATOM      4  C   UNL     1      47.099   3.953  16.429  0.00  0.00    +0.000 A 
ATOM      5  N   UNL     1      47.642   3.729  17.657  0.00  0.00    +0.000 NA
ATOM      6  C   UNL     1      48.665   4.570  17.976  0.00  0.00    +0.000 A 
ATOM      7  C   UNL     1      49.103   5.563  17.120  0.00  0.00    +0.000 A 
ATOM      8  N   UNL     1      48.548   5.773  15.902  0.00  0.00    +0.000 NA
ATOM      9  H   UNL     1      46.926   4.238  13.791  0.00  0.00    +0.000 HD
BRANCH   6  10
ATOM     10  C   UNL     1      49.325   4.413  19.299  0.00  0.00    +0.000 C 
ATOM     11  N   UNL     1      48.585   3.793  20.266  0.00  0.00    +0.000 N 
ATOM     12  O   UNL     1      50.460   4.816  19.515  0.00  0.00    +0.000 OA
ATOM     13  H   UNL     1      47.643   3.480  20.067  0.00  0.00    +0.000 HD
ATOM     14  H   UNL     1      48.979   3.673  21.189  0.00  0.00    +0.000 HD
ENDBRANCH   6  10
ENDBRANCH   1   2
BRANCH   1  16
ATOM     15  C   UNL     1      46.032   8.290  13.129  0.00  0.00    +0.000 C 
ATOM     16  C   UNL     1      46.366   6.877  12.772  0.00  0.00    +0.000 C 
BRANCH  16  17
ATOM     17  C   UNL     1      45.390   6.023  12.081  0.00  0.00    +0.000 A 
ATOM     18  C   UNL     1      44.058   5.968  12.505  0.00  0.00    +0.000 A 
ATOM     19  C   UNL     1      43.104   5.270  11.762  0.00  0.00    +0.000 A 
ATOM     20  C   UNL     1      43.473   4.634  10.577  0.00  0.00    +0.000 A 
ATOM     21  C   UNL     1      44.805   4.665  10.145  0.00  0.00    +0.000 A 
ATOM     22  C   UNL     1      45.761   5.334  10.924  0.00  0.00    +0.000 A 
BRANCH  21  23
ATOM     23  C   UNL     1      45.231   4.046   8.838  0.00  0.00    +0.000 C 
ATOM     24  F   UNL     1      44.249   4.024   7.896  0.00  0.00    +0.000 F 
ATOM     25  F   UNL     1      46.274   4.718   8.272  0.00  0.00    +0.000 F 
ATOM     26  F   UNL     1      45.651   2.760   8.981  0.00  0.00    +0.000 F 
ENDBRANCH  21  23
ENDBRANCH  16  17
ENDBRANCH   1  16
TORSDOF 5
ENDMDL
