MODEL 1
REMARK VINA RESULT:    -8.589      0.000      0.000
REMARK INTER + INTRA:         -12.158
REMARK INTER:                 -11.602
REMARK INTRA:                  -0.556
REMARK UNBOUND:                -0.556
REMARK  Name = 
REMARK  9 active torsions:
REMARK  status: ('A' for Active; 'I' for Inactive)
REMARK    1  A    between atoms: C_1  and  C_2
REMARK    2  A    between atoms: C_2  and  N_3
REMARK    3  A    between atoms: N_3  and  C_4
REMARK    4  A    between atoms: C_8  and  C_9
REMARK    5  A    between atoms: C_9  and  C_10
REMARK    6  A    between atoms: C_9  and  C_11
REMARK    7  A    between atoms: C_9  and  C_12
REMARK    8  A    between atoms: C_12  and  N_13
REMARK    9  A    between atoms: C_17  and  C_18
REMARK                            x       y       z     vdW  Elec       q    Type
REMARK                         _______ _______ _______ _____ _____    ______ ____
ROOT
ATOM      1  C   UNL     1      43.585   5.542  12.030  0.00  0.00    +0.000 C 
ATOM      2  C   UNL     1      42.718   5.177  13.260  0.00  0.00    +0.000 C 
ATOM      3  C   UNL     1      43.093   6.871  11.425  0.00  0.00    +0.000 C 
ENDROOT
BRANCH   1   8
ATOM      4  C   UNL     1      46.898   4.843  13.927  0.00  0.00    +0.000 A 
ATOM      5  C   UNL     1      47.777   5.699  13.268  0.00  0.00    +0.000 A 
ATOM      6  C   UNL     1      47.320   6.549  12.263  0.00  0.00    +0.000 A 
ATOM      7  C   UNL     1      45.974   6.546  11.896  0.00  0.00    +0.000 A 
ATOM      8  C   UNL     1      45.054   5.682  12.512  0.00  0.00    +0.000 A 
ATOM      9  C   UNL     1      45.540   4.873  13.560  0.00  0.00    +0.000 A 
BRANCH   4  10
ATOM     10  N   UNL     1      47.285   4.025  15.002  0.00  0.00    +0.000 N 
ATOM     11  H   UNL     1      47.277   3.033  14.781  0.00  0.00    +0.000 HD
BRANCH  10  13
ATOM     12  C   UNL     1      48.523   5.714  16.305  0.00  0.00    +0.000 C 
ATOM     13  C   UNL     1      47.829   4.367  16.297  0.00  0.00    +0.000 C 
ATOM     14  C   UNL     1      46.904   4.060  17.496  0.00  0.00    +0.000 C 
ATOM     15  O   UNL     1      47.534   2.767  17.705  0.00  0.00    +0.000 OA
ATOM     16  C   UNL     1      48.648   3.177  16.871  0.00  0.00    +0.000 C 
ENDBRANCH  10  13
ENDBRANCH   4  10
ENDBRANCH   1   8
BRANCH   1  17
ATOM     17  C   UNL     1      43.447   4.405  10.973  0.00  0.00    +0.000 C 
BRANCH  17  18
ATOM     18  N   UNL     1      43.851   4.772   9.620  0.00  0.00    +0.000 N 
ATOM     19  C   UNL     1      44.757   3.932   8.975  0.00  0.00    +0.000 A 
ATOM     20  C   UNL     1      44.835   2.552   9.174  0.00  0.00    +0.000 A 
ATOM     21  N   UNL     1      45.696   1.723   8.529  0.00  0.00    +0.000 NA
ATOM     22  C   UNL     1      46.482   2.347   7.619  0.00  0.00    +0.000 A 
ATOM     23  C   UNL     1      46.411   3.717   7.389  0.00  0.00    +0.000 A 
ATOM     24  N   UNL     1      45.557   4.531   8.070  0.00  0.00    +0.000 NA
ATOM     25  H   UNL     1      44.173   5.725   9.475  0.00  0.00    +0.000 HD
BRANCH  22  26
ATOM     26  C   UNL     1      47.437   1.502   6.850  0.00  0.00    +0.000 C 
ATOM     27  N   UNL     1      48.614   2.079   6.477  0.00  0.00    +0.000 N 
ATOM     28  O   UNL     1      47.175   0.337   6.565  0.00  0.00    +0.000 OA
ATOM     29  H   UNL     1      48.834   3.036   6.714  0.00  0.00    +0.000 HD
ATOM     30  H   UNL     1      49.284   1.513   5.959  0.00  0.00    +0.000 HD
ENDBRANCH  22  26
ENDBRANCH  17  18
ENDBRANCH   1  17
TORSDOF 6
ENDMDL
MODEL 2
REMARK VINA RESULT:    -8.140      2.244      3.286
REMARK INTER + INTRA:         -11.551
REMARK INTER:                 -10.572
REMARK INTRA:                  -0.979
REMARK UNBOUND:                -0.556
REMARK  Name = 
REMARK  9 active torsions:
REMARK  status: ('A' for Active; 'I' for Inactive)
REMARK    1  A    between atoms: C_1  and  C_2
REMARK    2  A    between atoms: C_2  and  N_3
REMARK    3  A    between atoms: N_3  and  C_4
REMARK    4  A    between atoms: C_8  and  C_9
REMARK    5  A    between atoms: C_9  and  C_10
REMARK    6  A    between atoms: C_9  and  C_11
REMARK    7  A    between atoms: C_9  and  C_12
REMARK    8  A    between atoms: C_12  and  N_13
REMARK    9  A    between atoms: C_17  and  C_18
REMARK                            x       y       z     vdW  Elec       q    Type
REMARK                         _______ _______ _______ _____ _____    ______ ____
ROOT
ATOM      1  C   UNL     1      43.591   5.469  12.036  0.00  0.00    +0.000 C 
ATOM      2  C   UNL     1      42.652   5.166  13.230  0.00  0.00    +0.000 C 
ATOM      3  C   UNL     1      43.221   6.831  11.418  0.00  0.00    +0.000 C 
ENDROOT
BRANCH   1   8
ATOM      4  C   UNL     1      46.976   6.833  13.356  0.00  0.00    +0.000 A 
ATOM      5  C   UNL     1      47.594   5.663  13.786  0.00  0.00    +0.000 A 
ATOM      6  C   UNL     1      46.977   4.427  13.605  0.00  0.00    +0.000 A 
ATOM      7  C   UNL     1      45.723   4.347  13.000  0.00  0.00    +0.000 A 
ATOM      8  C   UNL     1      45.046   5.502  12.574  0.00  0.00    +0.000 A 
ATOM      9  C   UNL     1      45.722   6.730  12.725  0.00  0.00    +0.000 A 
BRANCH   4  10
ATOM     10  N   UNL     1      47.584   8.097  13.437  0.00  0.00    +0.000 N 
ATOM     11  H   UNL     1      47.500   8.531  14.352  0.00  0.00    +0.000 HD
BRANCH  10  13
ATOM     12  C   UNL     1      47.754  10.019  11.900  0.00  0.00    +0.000 C 
ATOM     13  C   UNL     1      48.426   8.798  12.493  0.00  0.00    +0.000 C 
ATOM     14  C   UNL     1      49.899   8.964  12.930  0.00  0.00    +0.000 C 
ATOM     15  O   UNL     1      50.293   7.766  12.210  0.00  0.00    +0.000 OA
ATOM     16  C   UNL     1      49.043   7.799  11.473  0.00  0.00    +0.000 C 
ENDBRANCH  10  13
ENDBRANCH   4  10
ENDBRANCH   1   8
BRANCH   1  17
ATOM     17  C   UNL     1      43.412   4.347  10.969  0.00  0.00    +0.000 C 
BRANCH  17  18
ATOM     18  N   UNL     1      43.815   4.714   9.616  0.00  0.00    +0.000 N 
ATOM     19  C   UNL     1      44.735   3.884   8.977  0.00  0.00    +0.000 A 
ATOM     20  C   UNL     1      44.830   2.506   9.181  0.00  0.00    +0.000 A 
ATOM     21  N   UNL     1      45.704   1.687   8.541  0.00  0.00    +0.000 NA
ATOM     22  C   UNL     1      46.485   2.318   7.632  0.00  0.00    +0.000 A 
ATOM     23  C   UNL     1      46.397   3.686   7.397  0.00  0.00    +0.000 A 
ATOM     24  N   UNL     1      45.530   4.491   8.073  0.00  0.00    +0.000 NA
ATOM     25  H   UNL     1      44.126   5.671   9.470  0.00  0.00    +0.000 HD
BRANCH  22  26
ATOM     26  C   UNL     1      47.453   1.483   6.869  0.00  0.00    +0.000 C 
ATOM     27  N   UNL     1      48.638   2.064   6.527  0.00  0.00    +0.000 N 
ATOM     28  O   UNL     1      47.195   0.323   6.560  0.00  0.00    +0.000 OA
ATOM     29  H   UNL     1      48.855   3.017   6.783  0.00  0.00    +0.000 HD
ATOM     30  H   UNL     1      49.317   1.505   6.014  0.00  0.00    +0.000 HD
ENDBRANCH  22  26
ENDBRANCH  17  18
ENDBRANCH   1  17
TORSDOF 6
ENDMDL
MODEL 3
REMARK VINA RESULT:    -7.041      2.952      7.516
REMARK INTER + INTRA:         -10.067
REMARK INTER:                  -8.927
REMARK INTRA:                  -1.140
REMARK UNBOUND:                -0.556
REMARK  Name = 
REMARK  9 active torsions:
REMARK  status: ('A' for Active; 'I' for Inactive)
REMARK    1  A    between atoms: C_1  and  C_2
REMARK    2  A    between atoms: C_2  and  N_3
REMARK    3  A    between atoms: N_3  and  C_4
REMARK    4  A    between atoms: C_8  and  C_9
REMARK    5  A    between atoms: C_9  and  C_10
REMARK    6  A    between atoms: C_9  and  C_11
REMARK    7  A    between atoms: C_9  and  C_12
REMARK    8  A    between atoms: C_12  and  N_13
REMARK    9  A    between atoms: C_17  and  C_18
REMARK                            x       y       z     vdW  Elec       q    Type
REMARK                         _______ _______ _______ _____ _____    ______ ____
ROOT
ATOM      1  C   UNL     1      48.999   8.536  12.546  0.00  0.00    +0.000 C 
ATOM      2  C   UNL     1      49.850   7.364  11.995  0.00  0.00    +0.000 C 
ATOM      3  C   UNL     1      49.482   9.862  11.927  0.00  0.00    +0.000 C 
ENDROOT
BRANCH   1   8
ATOM      4  C   UNL     1      45.759   6.644  11.555  0.00  0.00    +0.000 A 
ATOM      5  C   UNL     1      44.804   7.649  11.687  0.00  0.00    +0.000 A 
ATOM      6  C   UNL     1      45.181   8.945  12.029  0.00  0.00    +0.000 A 
ATOM      7  C   UNL     1      46.523   9.253  12.253  0.00  0.00    +0.000 A 
ATOM      8  C   UNL     1      47.520   8.269  12.158  0.00  0.00    +0.000 A 
ATOM      9  C   UNL     1      47.110   6.980  11.761  0.00  0.00    +0.000 A 
BRANCH   4  10
ATOM     10  N   UNL     1      45.448   5.340  11.134  0.00  0.00    +0.000 N 
ATOM     11  H   UNL     1      45.737   5.141  10.180  0.00  0.00    +0.000 HD
BRANCH  10  13
ATOM     12  C   UNL     1      45.914   3.681  12.898  0.00  0.00    +0.000 C 
ATOM     13  C   UNL     1      44.932   4.211  11.874  0.00  0.00    +0.000 C 
ATOM     14  C   UNL     1      43.462   4.346  12.332  0.00  0.00    +0.000 C 
ATOM     15  O   UNL     1      42.986   3.641  11.155  0.00  0.00    +0.000 OA
ATOM     16  C   UNL     1      44.330   3.157  10.902  0.00  0.00    +0.000 C 
ENDBRANCH  10  13
ENDBRANCH   4  10
ENDBRANCH   1   8
BRANCH   1  17
ATOM     17  C   UNL     1      49.174   8.589  14.093  0.00  0.00    +0.000 C 
BRANCH  17  18
ATOM     18  N   UNL     1      50.021   7.541  14.653  0.00  0.00    +0.000 N 
ATOM     19  C   UNL     1      49.400   6.565  15.429  0.00  0.00    +0.000 A 
ATOM     20  C   UNL     1      48.093   6.113  15.233  0.00  0.00    +0.000 A 
ATOM     21  N   UNL     1      47.490   5.141  15.966  0.00  0.00    +0.000 NA
ATOM     22  C   UNL     1      48.287   4.597  16.917  0.00  0.00    +0.000 A 
ATOM     23  C   UNL     1      49.596   5.017  17.121  0.00  0.00    +0.000 A 
ATOM     24  N   UNL     1      50.169   6.013  16.389  0.00  0.00    +0.000 NA
ATOM     25  H   UNL     1      50.852   7.839  15.158  0.00  0.00    +0.000 HD
BRANCH  22  26
ATOM     26  C   UNL     1      47.707   3.507  17.749  0.00  0.00    +0.000 C 
ATOM     27  N   UNL     1      48.385   3.161  18.880  0.00  0.00    +0.000 N 
ATOM     28  O   UNL     1      46.664   2.943  17.429  0.00  0.00    +0.000 OA
ATOM     29  H   UNL     1      49.241   3.626  19.148  0.00  0.00    +0.000 HD
ATOM     30  H   UNL     1      47.998   2.424  19.466  0.00  0.00    +0.000 HD
ENDBRANCH  22  26
ENDBRANCH  17  18
ENDBRANCH   1  17
TORSDOF 6
ENDMDL
MODEL 4
REMARK VINA RESULT:    -6.953      2.942      4.705
REMARK INTER + INTRA:          -9.948
REMARK INTER:                  -9.009
REMARK INTRA:                  -0.939
REMARK UNBOUND:                -0.556
REMARK  Name = 
REMARK  9 active torsions:
REMARK  status: ('A' for Active; 'I' for Inactive)
REMARK    1  A    between atoms: C_1  and  C_2
REMARK    2  A    between atoms: C_2  and  N_3
REMARK    3  A    between atoms: N_3  and  C_4
REMARK    4  A    between atoms: C_8  and  C_9
REMARK    5  A    between atoms: C_9  and  C_10
REMARK    6  A    between atoms: C_9  and  C_11
REMARK    7  A    between atoms: C_9  and  C_12
REMARK    8  A    between atoms: C_12  and  N_13
REMARK    9  A    between atoms: C_17  and  C_18
REMARK                            x       y       z     vdW  Elec       q    Type
REMARK                         _______ _______ _______ _____ _____    ______ ____
ROOT
ATOM      1  C   UNL     1      48.168   8.529  12.877  0.00  0.00    +0.000 C 
ATOM      2  C   UNL     1      48.666   9.969  12.599  0.00  0.00    +0.000 C 
ATOM      3  C   UNL     1      49.024   7.523  12.084  0.00  0.00    +0.000 C 
ENDROOT
BRANCH   1   8
ATOM      4  C   UNL     1      48.867   6.701  16.228  0.00  0.00    +0.000 A 
ATOM      5  C   UNL     1      48.820   7.759  17.132  0.00  0.00    +0.000 A 
ATOM      6  C   UNL     1      48.504   9.046  16.702  0.00  0.00    +0.000 A 
ATOM      7  C   UNL     1      48.242   9.295  15.355  0.00  0.00    +0.000 A 
ATOM      8  C   UNL     1      48.304   8.267  14.400  0.00  0.00    +0.000 A 
ATOM      9  C   UNL     1      48.575   6.967  14.877  0.00  0.00    +0.000 A 
BRANCH   4  10
ATOM     10  N   UNL     1      49.099   5.371  16.615  0.00  0.00    +0.000 N 
ATOM     11  H   UNL     1      50.079   5.160  16.780  0.00  0.00    +0.000 HD
BRANCH  10  13
ATOM     12  C   UNL     1      47.213   4.713  18.062  0.00  0.00    +0.000 C 
ATOM     13  C   UNL     1      48.172   4.316  16.959  0.00  0.00    +0.000 C 
ATOM     14  C   UNL     1      47.565   3.562  15.754  0.00  0.00    +0.000 C 
ATOM     15  O   UNL     1      48.584   2.529  15.833  0.00  0.00    +0.000 OA
ATOM     16  C   UNL     1      48.932   2.976  17.169  0.00  0.00    +0.000 C 
ENDBRANCH  10  13
ENDBRANCH   4  10
ENDBRANCH   1   8
BRANCH   1  17
ATOM     17  C   UNL     1      46.682   8.423  12.420  0.00  0.00    +0.000 C 
BRANCH  17  18
ATOM     18  N   UNL     1      45.843   7.564  13.248  0.00  0.00    +0.000 N 
ATOM     19  C   UNL     1      45.345   6.401  12.662  0.00  0.00    +0.000 A 
ATOM     20  C   UNL     1      46.007   5.669  11.674  0.00  0.00    +0.000 A 
ATOM     21  N   UNL     1      45.542   4.520  11.119  0.00  0.00    +0.000 NA
ATOM     22  C   UNL     1      44.361   4.100  11.633  0.00  0.00    +0.000 A 
ATOM     23  C   UNL     1      43.691   4.802  12.628  0.00  0.00    +0.000 A 
ATOM     24  N   UNL     1      44.166   5.967  13.151  0.00  0.00    +0.000 NA
ATOM     25  H   UNL     1      45.069   8.006  13.738  0.00  0.00    +0.000 HD
BRANCH  22  26
ATOM     26  C   UNL     1      43.796   2.833  11.093  0.00  0.00    +0.000 C 
ATOM     27  N   UNL     1      44.339   2.354   9.938  0.00  0.00    +0.000 N 
ATOM     28  O   UNL     1      42.880   2.246  11.662  0.00  0.00    +0.000 OA
ATOM     29  H   UNL     1      45.096   2.832   9.469  0.00  0.00    +0.000 HD
ATOM     30  H   UNL     1      43.973   1.483   9.559  0.00  0.00    +0.000 HD
ENDBRANCH  22  26
ENDBRANCH  17  18
ENDBRANCH   1  17
TORSDOF 6
ENDMDL
MODEL 5
REMARK VINA RESULT:    -6.762      2.868      4.781
REMARK INTER + INTRA:          -9.689
REMARK INTER:                  -8.771
REMARK INTRA:                  -0.918
REMARK UNBOUND:                -0.556
REMARK  Name = 
REMARK  9 active torsions:
REMARK  status: ('A' for Active; 'I' for Inactive)
REMARK    1  A    between atoms: C_1  and  C_2
REMARK    2  A    between atoms: C_2  and  N_3
REMARK    3  A    between atoms: N_3  and  C_4
REMARK    4  A    between atoms: C_8  and  C_9
REMARK    5  A    between atoms: C_9  and  C_10
REMARK    6  A    between atoms: C_9  and  C_11
REMARK    7  A    between atoms: C_9  and  C_12
REMARK    8  A    between atoms: C_12  and  N_13
REMARK    9  A    between atoms: C_17  and  C_18
REMARK                            x       y       z     vdW  Elec       q    Type
REMARK                         _______ _______ _______ _____ _____    ______ ____
ROOT
ATOM      1  C   UNL     1      48.791   8.136  13.545  0.00  0.00    +0.000 C 
ATOM      2  C   UNL     1      48.877   9.679  13.648  0.00  0.00    +0.000 C 
ATOM      3  C   UNL     1      49.391   7.672  12.204  0.00  0.00    +0.000 C 
ENDROOT
BRANCH   1   8
ATOM      4  C   UNL     1      49.711   5.925  16.599  0.00  0.00    +0.000 A 
ATOM      5  C   UNL     1      51.066   6.213  16.747  0.00  0.00    +0.000 A 
ATOM      6  C   UNL     1      51.685   7.153  15.927  0.00  0.00    +0.000 A 
ATOM      7  C   UNL     1      50.958   7.812  14.936  0.00  0.00    +0.000 A 
ATOM      8  C   UNL     1      49.596   7.537  14.729  0.00  0.00    +0.000 A 
ATOM      9  C   UNL     1      48.989   6.619  15.611  0.00  0.00    +0.000 A 
BRANCH   4  10
ATOM     10  N   UNL     1      49.016   5.049  17.449  0.00  0.00    +0.000 N 
ATOM     11  H   UNL     1      48.536   5.518  18.212  0.00  0.00    +0.000 HD
BRANCH  10  13
ATOM     12  C   UNL     1      50.013   2.798  17.306  0.00  0.00    +0.000 C 
ATOM     13  C   UNL     1      48.750   3.634  17.326  0.00  0.00    +0.000 C 
ATOM     14  C   UNL     1      47.588   3.109  18.201  0.00  0.00    +0.000 C 
ATOM     15  O   UNL     1      46.642   3.260  17.109  0.00  0.00    +0.000 OA
ATOM     16  C   UNL     1      47.743   3.370  16.171  0.00  0.00    +0.000 C 
ENDBRANCH  10  13
ENDBRANCH   4  10
ENDBRANCH   1   8
BRANCH   1  17
ATOM     17  C   UNL     1      47.291   7.719  13.617  0.00  0.00    +0.000 C 
BRANCH  17  18
ATOM     18  N   UNL     1      46.611   7.644  12.329  0.00  0.00    +0.000 N 
ATOM     19  C   UNL     1      45.987   6.440  12.006  0.00  0.00    +0.000 A 
ATOM     20  C   UNL     1      45.411   5.574  12.938  0.00  0.00    +0.000 A 
ATOM     21  N   UNL     1      44.776   4.414  12.628  0.00  0.00    +0.000 NA
ATOM     22  C   UNL     1      44.708   4.162  11.299  0.00  0.00    +0.000 A 
ATOM     23  C   UNL     1      45.258   5.017  10.350  0.00  0.00    +0.000 A 
ATOM     24  N   UNL     1      45.914   6.163  10.688  0.00  0.00    +0.000 NA
ATOM     25  H   UNL     1      47.138   7.936  11.510  0.00  0.00    +0.000 HD
BRANCH  22  26
ATOM     26  C   UNL     1      44.005   2.920  10.876  0.00  0.00    +0.000 C 
ATOM     27  N   UNL     1      43.368   2.207  11.847  0.00  0.00    +0.000 N 
ATOM     28  O   UNL     1      44.001   2.553   9.704  0.00  0.00    +0.000 OA
ATOM     29  H   UNL     1      43.367   2.508  12.812  0.00  0.00    +0.000 HD
ATOM     30  H   UNL     1      42.873   1.360  11.575  0.00  0.00    +0.000 HD
ENDBRANCH  22  26
ENDBRANCH  17  18
ENDBRANCH   1  17
TORSDOF 6
ENDMDL
MODEL 6
REMARK VINA RESULT:    -6.544      2.137      8.245
REMARK INTER + INTRA:          -9.395
REMARK INTER:                  -8.948
REMARK INTRA:                  -0.447
REMARK UNBOUND:                -0.556
REMARK  Name = 
REMARK  9 active torsions:
REMARK  status: ('A' for Active; 'I' for Inactive)
REMARK    1  A    between atoms: C_1  and  C_2
REMARK    2  A    between atoms: C_2  and  N_3
REMARK    3  A    between atoms: N_3  and  C_4
REMARK    4  A    between atoms: C_8  and  C_9
REMARK    5  A    between atoms: C_9  and  C_10
REMARK    6  A    between atoms: C_9  and  C_11
REMARK    7  A    between atoms: C_9  and  C_12
REMARK    8  A    between atoms: C_12  and  N_13
REMARK    9  A    between atoms: C_17  and  C_18
REMARK                            x       y       z     vdW  Elec       q    Type
REMARK                         _______ _______ _______ _____ _____    ______ ____
ROOT
ATOM      1  C   UNL     1      46.577   6.614  12.489  0.00  0.00    +0.000 C 
ATOM      2  C   UNL     1      47.431   7.051  11.273  0.00  0.00    +0.000 C 
ATOM      3  C   UNL     1      46.028   7.861  13.210  0.00  0.00    +0.000 C 
ENDROOT
BRANCH   1   8
ATOM      4  C   UNL     1      44.663   3.667  10.843  0.00  0.00    +0.000 A 
ATOM      5  C   UNL     1      43.347   3.972  11.180  0.00  0.00    +0.000 A 
ATOM      6  C   UNL     1      43.046   5.142  11.874  0.00  0.00    +0.000 A 
ATOM      7  C   UNL     1      44.062   6.020  12.251  0.00  0.00    +0.000 A 
ATOM      8  C   UNL     1      45.408   5.743  11.958  0.00  0.00    +0.000 A 
ATOM      9  C   UNL     1      45.672   4.577  11.210  0.00  0.00    +0.000 A 
BRANCH   4  10
ATOM     10  N   UNL     1      45.017   2.545  10.075  0.00  0.00    +0.000 N 
ATOM     11  H   UNL     1      44.885   1.662  10.560  0.00  0.00    +0.000 HD
BRANCH  10  13
ATOM     12  C   UNL     1      45.837   1.043   8.299  0.00  0.00    +0.000 C 
ATOM     13  C   UNL     1      45.387   2.438   8.682  0.00  0.00    +0.000 C 
ATOM     14  C   UNL     1      44.434   3.152   7.696  0.00  0.00    +0.000 C 
ATOM     15  O   UNL     1      45.258   4.348   7.701  0.00  0.00    +0.000 OA
ATOM     16  C   UNL     1      46.350   3.594   8.288  0.00  0.00    +0.000 C 
ENDBRANCH  10  13
ENDBRANCH   4  10
ENDBRANCH   1   8
BRANCH   1  17
ATOM     17  C   UNL     1      47.483   5.805  13.465  0.00  0.00    +0.000 C 
BRANCH  17  18
ATOM     18  N   UNL     1      46.768   5.082  14.511  0.00  0.00    +0.000 N 
ATOM     19  C   UNL     1      47.424   4.907  15.728  0.00  0.00    +0.000 A 
ATOM     20  C   UNL     1      48.340   5.812  16.268  0.00  0.00    +0.000 A 
ATOM     21  N   UNL     1      48.961   5.663  17.467  0.00  0.00    +0.000 NA
ATOM     22  C   UNL     1      48.592   4.549  18.143  0.00  0.00    +0.000 A 
ATOM     23  C   UNL     1      47.669   3.642  17.635  0.00  0.00    +0.000 A 
ATOM     24  N   UNL     1      47.079   3.801  16.417  0.00  0.00    +0.000 NA
ATOM     25  H   UNL     1      46.364   4.183  14.259  0.00  0.00    +0.000 HD
BRANCH  22  26
ATOM     26  C   UNL     1      49.211   4.327  19.479  0.00  0.00    +0.000 C 
ATOM     27  N   UNL     1      48.465   3.660  20.405  0.00  0.00    +0.000 N 
ATOM     28  O   UNL     1      50.343   4.727  19.735  0.00  0.00    +0.000 OA
ATOM     29  H   UNL     1      47.535   3.326  20.196  0.00  0.00    +0.000 HD
ATOM     30  H   UNL     1      48.876   3.490  21.321  0.00  0.00    +0.000 HD
ENDBRANCH  22  26
ENDBRANCH  17  18
ENDBRANCH   1  17
TORSDOF 6
ENDMDL
MODEL 7
REMARK VINA RESULT:    -6.541      1.806      8.181
REMARK INTER + INTRA:          -9.391
REMARK INTER:                  -8.716
REMARK INTRA:                  -0.675
REMARK UNBOUND:                -0.556
REMARK  Name = 
REMARK  9 active torsions:
REMARK  status: ('A' for Active; 'I' for Inactive)
REMARK    1  A    between atoms: C_1  and  C_2
REMARK    2  A    between atoms: C_2  and  N_3
REMARK    3  A    between atoms: N_3  and  C_4
REMARK    4  A    between atoms: C_8  and  C_9
REMARK    5  A    between atoms: C_9  and  C_10
REMARK    6  A    between atoms: C_9  and  C_11
REMARK    7  A    between atoms: C_9  and  C_12
REMARK    8  A    between atoms: C_12  and  N_13
REMARK    9  A    between atoms: C_17  and  C_18
REMARK                            x       y       z     vdW  Elec       q    Type
REMARK                         _______ _______ _______ _____ _____    ______ ____
ROOT
ATOM      1  C   UNL     1      45.159   5.501  12.022  0.00  0.00    +0.000 C 
ATOM      2  C   UNL     1      45.517   6.688  11.094  0.00  0.00    +0.000 C 
ATOM      3  C   UNL     1      43.998   5.903  12.952  0.00  0.00    +0.000 C 
ENDROOT
BRANCH   1   8
ATOM      4  C   UNL     1      44.943   3.118   8.967  0.00  0.00    +0.000 A 
ATOM      5  C   UNL     1      44.234   2.047   9.505  0.00  0.00    +0.000 A 
ATOM      6  C   UNL     1      43.764   2.094  10.815  0.00  0.00    +0.000 A 
ATOM      7  C   UNL     1      44.007   3.213  11.612  0.00  0.00    +0.000 A 
ATOM      8  C   UNL     1      44.740   4.307  11.124  0.00  0.00    +0.000 A 
ATOM      9  C   UNL     1      45.157   4.248   9.778  0.00  0.00    +0.000 A 
BRANCH   4  10
ATOM     10  N   UNL     1      45.370   3.161   7.629  0.00  0.00    +0.000 N 
ATOM     11  H   UNL     1      44.626   3.376   6.972  0.00  0.00    +0.000 HD
BRANCH  10  13
ATOM     12  C   UNL     1      47.460   4.405   7.213  0.00  0.00    +0.000 C 
ATOM     13  C   UNL     1      46.699   3.103   7.064  0.00  0.00    +0.000 C 
ATOM     14  C   UNL     1      47.483   1.806   7.370  0.00  0.00    +0.000 C 
ATOM     15  O   UNL     1      47.053   1.201   6.121  0.00  0.00    +0.000 OA
ATOM     16  C   UNL     1      46.650   2.506   5.629  0.00  0.00    +0.000 C 
ENDBRANCH  10  13
ENDBRANCH   4  10
ENDBRANCH   1   8
BRANCH   1  17
ATOM     17  C   UNL     1      46.413   5.148  12.878  0.00  0.00    +0.000 C 
BRANCH  17  18
ATOM     18  N   UNL     1      46.129   4.445  14.124  0.00  0.00    +0.000 N 
ATOM     19  C   UNL     1      47.110   4.479  15.114  0.00  0.00    +0.000 A 
ATOM     20  C   UNL     1      47.988   5.545  15.318  0.00  0.00    +0.000 A 
ATOM     21  N   UNL     1      48.928   5.599  16.298  0.00  0.00    +0.000 NA
ATOM     22  C   UNL     1      48.931   4.518  17.116  0.00  0.00    +0.000 A 
ATOM     23  C   UNL     1      48.055   3.453  16.944  0.00  0.00    +0.000 A 
ATOM     24  N   UNL     1      47.139   3.411  15.936  0.00  0.00    +0.000 NA
ATOM     25  H   UNL     1      45.814   3.481  14.050  0.00  0.00    +0.000 HD
BRANCH  22  26
ATOM     26  C   UNL     1      49.916   4.512  18.232  0.00  0.00    +0.000 C 
ATOM     27  N   UNL     1      49.494   4.016  19.429  0.00  0.00    +0.000 N 
ATOM     28  O   UNL     1      51.058   4.937  18.080  0.00  0.00    +0.000 OA
ATOM     29  H   UNL     1      48.556   3.663  19.556  0.00  0.00    +0.000 HD
ATOM     30  H   UNL     1      50.157   3.995  20.201  0.00  0.00    +0.000 HD
ENDBRANCH  22  26
ENDBRANCH  17  18
ENDBRANCH   1  17
TORSDOF 6
ENDMDL
MODEL 8
REMARK VINA RESULT:    -6.398      4.015      6.154
REMARK INTER + INTRA:          -9.197
REMARK INTER:                  -7.948
REMARK INTRA:                  -1.250
REMARK UNBOUND:                -0.556
REMARK  Name = 
REMARK  9 active torsions:
REMARK  status: ('A' for Active; 'I' for Inactive)
REMARK    1  A    between atoms: C_1  and  C_2
REMARK    2  A    between atoms: C_2  and  N_3
REMARK    3  A    between atoms: N_3  and  C_4
REMARK    4  A    between atoms: C_8  and  C_9
REMARK    5  A    between atoms: C_9  and  C_10
REMARK    6  A    between atoms: C_9  and  C_11
REMARK    7  A    between atoms: C_9  and  C_12
REMARK    8  A    between atoms: C_12  and  N_13
REMARK    9  A    between atoms: C_17  and  C_18
REMARK                            x       y       z     vdW  Elec       q    Type
REMARK                         _______ _______ _______ _____ _____    ______ ____
ROOT
ATOM      1  C   UNL     1      49.946   8.881  14.199  0.00  0.00    +0.000 C 
ATOM      2  C   UNL     1      50.055  10.422  14.078  0.00  0.00    +0.000 C 
ATOM      3  C   UNL     1      51.351   8.254  14.104  0.00  0.00    +0.000 C 
ENDROOT
BRANCH   1   8
ATOM      4  C   UNL     1      49.264   7.144  17.601  0.00  0.00    +0.000 A 
ATOM      5  C   UNL     1      48.377   8.039  18.193  0.00  0.00    +0.000 A 
ATOM      6  C   UNL     1      47.937   9.165  17.500  0.00  0.00    +0.000 A 
ATOM      7  C   UNL     1      48.389   9.416  16.205  0.00  0.00    +0.000 A 
ATOM      8  C   UNL     1      49.306   8.558  15.575  0.00  0.00    +0.000 A 
ATOM      9  C   UNL     1      49.690   7.402  16.285  0.00  0.00    +0.000 A 
BRANCH   4  10
ATOM     10  N   UNL     1      49.678   5.952  18.219  0.00  0.00    +0.000 N 
ATOM     11  H   UNL     1      50.567   6.033  18.705  0.00  0.00    +0.000 HD
BRANCH  10  13
ATOM     12  C   UNL     1      48.722   4.377  19.859  0.00  0.00    +0.000 C 
ATOM     13  C   UNL     1      48.984   4.698  18.402  0.00  0.00    +0.000 C 
ATOM     14  C   UNL     1      47.818   4.447  17.419  0.00  0.00    +0.000 C 
ATOM     15  O   UNL     1      48.681   3.702  16.518  0.00  0.00    +0.000 OA
ATOM     16  C   UNL     1      49.670   3.575  17.573  0.00  0.00    +0.000 C 
ENDBRANCH  10  13
ENDBRANCH   4  10
ENDBRANCH   1   8
BRANCH   1  17
ATOM     17  C   UNL     1      49.060   8.355  13.030  0.00  0.00    +0.000 C 
BRANCH  17  18
ATOM     18  N   UNL     1      48.918   6.905  12.970  0.00  0.00    +0.000 N 
ATOM     19  C   UNL     1      47.627   6.386  13.047  0.00  0.00    +0.000 A 
ATOM     20  C   UNL     1      46.487   7.031  12.562  0.00  0.00    +0.000 A 
ATOM     21  N   UNL     1      45.229   6.519  12.608  0.00  0.00    +0.000 NA
ATOM     22  C   UNL     1      45.160   5.279  13.148  0.00  0.00    +0.000 A 
ATOM     23  C   UNL     1      46.282   4.609  13.621  0.00  0.00    +0.000 A 
ATOM     24  N   UNL     1      47.530   5.155  13.589  0.00  0.00    +0.000 NA
ATOM     25  H   UNL     1      49.498   6.357  13.601  0.00  0.00    +0.000 HD
BRANCH  22  26
ATOM     26  C   UNL     1      43.817   4.638  13.211  0.00  0.00    +0.000 C 
ATOM     27  N   UNL     1      42.733   5.456  13.095  0.00  0.00    +0.000 N 
ATOM     28  O   UNL     1      43.692   3.426  13.363  0.00  0.00    +0.000 OA
ATOM     29  H   UNL     1      42.833   6.454  12.967  0.00  0.00    +0.000 HD
ATOM     30  H   UNL     1      41.807   5.035  13.127  0.00  0.00    +0.000 HD
ENDBRANCH  22  26
ENDBRANCH  17  18
ENDBRANCH   1  17
TORSDOF 6
ENDMDL
MODEL 9
REMARK VINA RESULT:    -6.113      4.063      8.334
REMARK INTER + INTRA:          -8.814
REMARK INTER:                  -7.568
REMARK INTRA:                  -1.246
REMARK UNBOUND:                -0.556
REMARK  Name = 
REMARK  9 active torsions:
REMARK  status: ('A' for Active; 'I' for Inactive)
REMARK    1  A    between atoms: C_1  and  C_2
REMARK    2  A    between atoms: C_2  and  N_3
REMARK    3  A    between atoms: N_3  and  C_4
REMARK    4  A    between atoms: C_8  and  C_9
REMARK    5  A    between atoms: C_9  and  C_10
REMARK    6  A    between atoms: C_9  and  C_11
REMARK    7  A    between atoms: C_9  and  C_12
REMARK    8  A    between atoms: C_12  and  N_13
REMARK    9  A    between atoms: C_17  and  C_18
REMARK                            x       y       z     vdW  Elec       q    Type
REMARK                         _______ _______ _______ _____ _____    ______ ____
ROOT
ATOM      1  C   UNL     1      49.381   9.162  17.043  0.00  0.00    +0.000 C 
ATOM      2  C   UNL     1      49.909  10.601  16.818  0.00  0.00    +0.000 C 
ATOM      3  C   UNL     1      47.963   9.219  17.645  0.00  0.00    +0.000 C 
ENDROOT
BRANCH   1   8
ATOM      4  C   UNL     1      48.061   7.206  13.962  0.00  0.00    +0.000 A 
ATOM      5  C   UNL     1      49.126   7.342  13.074  0.00  0.00    +0.000 A 
ATOM      6  C   UNL     1      50.293   7.997  13.462  0.00  0.00    +0.000 A 
ATOM      7  C   UNL     1      50.407   8.535  14.743  0.00  0.00    +0.000 A 
ATOM      8  C   UNL     1      49.351   8.448  15.666  0.00  0.00    +0.000 A 
ATOM      9  C   UNL     1      48.205   7.734  15.258  0.00  0.00    +0.000 A 
BRANCH   4  10
ATOM     10  N   UNL     1      46.894   6.486  13.655  0.00  0.00    +0.000 N 
ATOM     11  H   UNL     1      46.707   5.722  14.298  0.00  0.00    +0.000 HD
BRANCH  10  13
ATOM     12  C   UNL     1      45.537   8.222  12.548  0.00  0.00    +0.000 C 
ATOM     13  C   UNL     1      45.856   6.748  12.685  0.00  0.00    +0.000 C 
ATOM     14  C   UNL     1      45.972   5.942  11.371  0.00  0.00    +0.000 C 
ATOM     15  O   UNL     1      45.078   4.913  11.874  0.00  0.00    +0.000 OA
ATOM     16  C   UNL     1      44.640   5.809  12.927  0.00  0.00    +0.000 C 
ENDBRANCH  10  13
ENDBRANCH   4  10
ENDBRANCH   1   8
BRANCH   1  17
ATOM     17  C   UNL     1      50.338   8.433  18.033  0.00  0.00    +0.000 C 
BRANCH  17  18
ATOM     18  N   UNL     1      49.722   7.364  18.811  0.00  0.00    +0.000 N 
ATOM     19  C   UNL     1      49.829   6.067  18.311  0.00  0.00    +0.000 A 
ATOM     20  C   UNL     1      50.910   5.596  17.564  0.00  0.00    +0.000 A 
ATOM     21  N   UNL     1      51.035   4.326  17.098  0.00  0.00    +0.000 NA
ATOM     22  C   UNL     1      50.014   3.508  17.450  0.00  0.00    +0.000 A 
ATOM     23  C   UNL     1      48.935   3.949  18.207  0.00  0.00    +0.000 A 
ATOM     24  N   UNL     1      48.820   5.236  18.640  0.00  0.00    +0.000 NA
ATOM     25  H   UNL     1      48.753   7.496  19.092  0.00  0.00    +0.000 HD
BRANCH  22  26
ATOM     26  C   UNL     1      50.089   2.092  16.997  0.00  0.00    +0.000 C 
ATOM     27  N   UNL     1      50.915   1.261  17.694  0.00  0.00    +0.000 N 
ATOM     28  O   UNL     1      49.437   1.691  16.038  0.00  0.00    +0.000 OA
ATOM     29  H   UNL     1      51.450   1.588  18.487  0.00  0.00    +0.000 HD
ATOM     30  H   UNL     1      50.972   0.287  17.406  0.00  0.00    +0.000 HD
ENDBRANCH  22  26
ENDBRANCH  17  18
ENDBRANCH   1  17
TORSDOF 6
ENDMDL
