MODEL 1
REMARK VINA RESULT:    -8.895      0.000      0.000
REMARK INTER + INTRA:         -12.538
REMARK INTER:                 -11.495
REMARK INTRA:                  -1.043
REMARK UNBOUND:                -1.043
REMARK  Name = 
REMARK  5 active torsions:
REMARK  status: ('A' for Active; 'I' for Inactive)
REMARK    1  A    between atoms: C_2  and  C_4
REMARK    2  A    between atoms: C_7  and  O_8
REMARK    3  A    between atoms: O_8  and  C_9
REMARK    4  A    between atoms: C_9  and  C_10
REMARK    5  A    between atoms: C_15  and  C_16
REMARK                            x       y       z     vdW  Elec       q    Type
REMARK                         _______ _______ _______ _____ _____    ______ ____
ROOT
ATOM      1  C   UNL     1      43.553   4.519  11.340  0.00  0.00    +0.000 C 
ENDROOT
BRANCH   1   2
ATOM      2  C   UNL     1      44.852   4.897  12.014  0.00  0.00    +0.000 A 
ATOM      3  C   UNL     1      45.471   4.000  12.887  0.00  0.00    +0.000 A 
ATOM      4  C   UNL     1      46.657   4.357  13.514  0.00  0.00    +0.000 A 
ATOM      5  F   UNL     1      47.250   3.484  14.340  0.00  0.00    +0.000 F 
ATOM      6  C   UNL     1      47.247   5.598  13.295  0.00  0.00    +0.000 A 
ATOM      7  C   UNL     1      46.656   6.530  12.427  0.00  0.00    +0.000 A 
ATOM      8  C   UNL     1      45.443   6.160  11.813  0.00  0.00    +0.000 A 
BRANCH   7   9
ATOM      9  C   UNL     1      47.291   7.834  12.137  0.00  0.00    +0.000 A 
ATOM     10  C   UNL     1      48.628   7.950  11.729  0.00  0.00    +0.000 A 
ATOM     11  C   UNL     1      49.202   9.202  11.505  0.00  0.00    +0.000 A 
ATOM     12  C   UNL     1      48.416  10.325  11.683  0.00  0.00    +0.000 A 
ATOM     13  N   UNL     1      47.125  10.276  12.063  0.00  0.00    +0.000 NA
ATOM     14  C   UNL     1      46.603   9.042  12.286  0.00  0.00    +0.000 A 
ENDBRANCH   7   9
ENDBRANCH   1   2
BRANCH   1  15
ATOM     15  O   UNL     1      43.674   4.671   9.925  0.00  0.00    +0.000 OA
BRANCH  15  19
ATOM     16  C   UNL     1      46.353   2.274   7.819  0.00  0.00    +0.000 A 
ATOM     17  C   UNL     1      45.467   1.659   8.711  0.00  0.00    +0.000 A 
ATOM     18  C   UNL     1      44.549   2.427   9.434  0.00  0.00    +0.000 A 
ATOM     19  C   UNL     1      44.517   3.813   9.277  0.00  0.00    +0.000 A 
ATOM     20  C   UNL     1      45.413   4.425   8.395  0.00  0.00    +0.000 A 
ATOM     21  C   UNL     1      46.332   3.663   7.673  0.00  0.00    +0.000 A 
BRANCH  16  23
ATOM     22  N   UNL     1      48.433   2.158   6.563  0.00  0.00    +0.000 N 
ATOM     23  C   UNL     1      47.338   1.487   7.034  0.00  0.00    +0.000 C 
ATOM     24  O   UNL     1      47.202   0.286   6.845  0.00  0.00    +0.000 OA
ATOM     25  H   UNL     1      49.149   1.590   6.126  0.00  0.00    +0.000 HD
ATOM     26  H   UNL     1      48.706   3.063   6.918  0.00  0.00    +0.000 HD
ENDBRANCH  16  23
ENDBRANCH  15  19
ENDBRANCH   1  15
TORSDOF 5
ENDMDL
MODEL 2
REMARK VINA RESULT:    -8.398      2.122      2.697
REMARK INTER + INTRA:         -11.896
REMARK INTER:                 -11.012
REMARK INTRA:                  -0.883
REMARK UNBOUND:                -1.043
REMARK  Name = 
REMARK  5 active torsions:
REMARK  status: ('A' for Active; 'I' for Inactive)
REMARK    1  A    between atoms: C_2  and  C_4
REMARK    2  A    between atoms: C_7  and  O_8
REMARK    3  A    between atoms: O_8  and  C_9
REMARK    4  A    between atoms: C_9  and  C_10
REMARK    5  A    between atoms: C_15  and  C_16
REMARK                            x       y       z     vdW  Elec       q    Type
REMARK                         _______ _______ _______ _____ _____    ______ ____
ROOT
ATOM      1  C   UNL     1      44.143   3.540  11.549  0.00  0.00    +0.000 C 
ENDROOT
BRANCH   1   2
ATOM      2  C   UNL     1      44.572   4.988  11.609  0.00  0.00    +0.000 A 
ATOM      3  C   UNL     1      43.660   5.998  11.293  0.00  0.00    +0.000 A 
ATOM      4  C   UNL     1      44.062   7.327  11.337  0.00  0.00    +0.000 A 
ATOM      5  F   UNL     1      43.177   8.289  11.044  0.00  0.00    +0.000 F 
ATOM      6  C   UNL     1      45.363   7.678  11.688  0.00  0.00    +0.000 A 
ATOM      7  C   UNL     1      46.310   6.693  12.010  0.00  0.00    +0.000 A 
ATOM      8  C   UNL     1      45.891   5.349  11.943  0.00  0.00    +0.000 A 
BRANCH   7   9
ATOM      9  C   UNL     1      47.682   7.044  12.437  0.00  0.00    +0.000 A 
ATOM     10  C   UNL     1      48.576   7.741  11.610  0.00  0.00    +0.000 A 
ATOM     11  C   UNL     1      49.876   8.016  12.034  0.00  0.00    +0.000 A 
ATOM     12  C   UNL     1      50.258   7.598  13.294  0.00  0.00    +0.000 A 
ATOM     13  N   UNL     1      49.441   6.935  14.136  0.00  0.00    +0.000 NA
ATOM     14  C   UNL     1      48.188   6.671  13.685  0.00  0.00    +0.000 A 
ENDBRANCH   7   9
ENDBRANCH   1   2
BRANCH   1  15
ATOM     15  O   UNL     1      43.679   3.222  10.236  0.00  0.00    +0.000 OA
BRANCH  15  19
ATOM     16  C   UNL     1      46.576   2.557   7.317  0.00  0.00    +0.000 A 
ATOM     17  C   UNL     1      46.047   3.846   7.450  0.00  0.00    +0.000 A 
ATOM     18  C   UNL     1      45.076   4.112   8.420  0.00  0.00    +0.000 A 
ATOM     19  C   UNL     1      44.622   3.091   9.256  0.00  0.00    +0.000 A 
ATOM     20  C   UNL     1      45.142   1.802   9.111  0.00  0.00    +0.000 A 
ATOM     21  C   UNL     1      46.110   1.531   8.143  0.00  0.00    +0.000 A 
BRANCH  16  23
ATOM     22  N   UNL     1      47.683   3.068   5.211  0.00  0.00    +0.000 N 
ATOM     23  C   UNL     1      47.611   2.241   6.299  0.00  0.00    +0.000 C 
ATOM     24  O   UNL     1      48.392   1.310   6.439  0.00  0.00    +0.000 OA
ATOM     25  H   UNL     1      48.462   2.910   4.583  0.00  0.00    +0.000 HD
ATOM     26  H   UNL     1      47.246   3.978   5.195  0.00  0.00    +0.000 HD
ENDBRANCH  16  23
ENDBRANCH  15  19
ENDBRANCH   1  15
TORSDOF 5
ENDMDL
MODEL 3
REMARK VINA RESULT:    -7.681      2.511      3.927
REMARK INTER + INTRA:         -10.970
REMARK INTER:                 -10.425
REMARK INTRA:                  -0.545
REMARK UNBOUND:                -1.043
REMARK  Name = 
REMARK  5 active torsions:
REMARK  status: ('A' for Active; 'I' for Inactive)
REMARK    1  A    between atoms: C_2  and  C_4
REMARK    2  A    between atoms: C_7  and  O_8
REMARK    3  A    between atoms: O_8  and  C_9
REMARK    4  A    between atoms: C_9  and  C_10
REMARK    5  A    between atoms: C_15  and  C_16
REMARK                            x       y       z     vdW  Elec       q    Type
REMARK                         _______ _______ _______ _____ _____    ______ ____
ROOT
ATOM      1  C   UNL     1      44.195   5.395  11.380  0.00  0.00    +0.000 C 
ENDROOT
BRANCH   1   2
ATOM      2  C   UNL     1      45.515   5.772  12.012  0.00  0.00    +0.000 A 
ATOM      3  C   UNL     1      46.366   6.671  11.364  0.00  0.00    +0.000 A 
ATOM      4  C   UNL     1      47.584   7.005  11.942  0.00  0.00    +0.000 A 
ATOM      5  F   UNL     1      48.387   7.878  11.319  0.00  0.00    +0.000 F 
ATOM      6  C   UNL     1      47.981   6.458  13.158  0.00  0.00    +0.000 A 
ATOM      7  C   UNL     1      47.157   5.549  13.841  0.00  0.00    +0.000 A 
ATOM      8  C   UNL     1      45.933   5.207  13.232  0.00  0.00    +0.000 A 
BRANCH   7   9
ATOM      9  C   UNL     1      47.534   4.995  15.159  0.00  0.00    +0.000 A 
ATOM     10  C   UNL     1      47.137   3.719  15.585  0.00  0.00    +0.000 A 
ATOM     11  C   UNL     1      47.478   3.250  16.853  0.00  0.00    +0.000 A 
ATOM     12  C   UNL     1      48.230   4.067  17.676  0.00  0.00    +0.000 A 
ATOM     13  N   UNL     1      48.649   5.297  17.318  0.00  0.00    +0.000 NA
ATOM     14  C   UNL     1      48.286   5.728  16.083  0.00  0.00    +0.000 A 
ENDBRANCH   7   9
ENDBRANCH   1   2
BRANCH   1  15
ATOM     15  O   UNL     1      44.213   4.020  10.993  0.00  0.00    +0.000 OA
BRANCH  15  19
ATOM     16  C   UNL     1      46.370   2.770   7.654  0.00  0.00    +0.000 A 
ATOM     17  C   UNL     1      46.156   4.142   7.835  0.00  0.00    +0.000 A 
ATOM     18  C   UNL     1      45.441   4.603   8.944  0.00  0.00    +0.000 A 
ATOM     19  C   UNL     1      44.929   3.698   9.875  0.00  0.00    +0.000 A 
ATOM     20  C   UNL     1      45.133   2.328   9.683  0.00  0.00    +0.000 A 
ATOM     21  C   UNL     1      45.844   1.862   8.577  0.00  0.00    +0.000 A 
BRANCH  16  23
ATOM     22  N   UNL     1      47.099   2.996   5.344  0.00  0.00    +0.000 N 
ATOM     23  C   UNL     1      47.128   2.248   6.489  0.00  0.00    +0.000 C 
ATOM     24  O   UNL     1      47.783   1.216   6.554  0.00  0.00    +0.000 OA
ATOM     25  H   UNL     1      47.708   2.688   4.595  0.00  0.00    +0.000 HD
ATOM     26  H   UNL     1      46.800   3.961   5.338  0.00  0.00    +0.000 HD
ENDBRANCH  16  23
ENDBRANCH  15  19
ENDBRANCH   1  15
TORSDOF 5
ENDMDL
MODEL 4
REMARK VINA RESULT:    -7.481      2.798      7.107
REMARK INTER + INTRA:         -10.711
REMARK INTER:                  -9.927
REMARK INTRA:                  -0.784
REMARK UNBOUND:                -1.043
REMARK  Name = 
REMARK  5 active torsions:
REMARK  status: ('A' for Active; 'I' for Inactive)
REMARK    1  A    between atoms: C_2  and  C_4
REMARK    2  A    between atoms: C_7  and  O_8
REMARK    3  A    between atoms: O_8  and  C_9
REMARK    4  A    between atoms: C_9  and  C_10
REMARK    5  A    between atoms: C_15  and  C_16
REMARK                            x       y       z     vdW  Elec       q    Type
REMARK                         _______ _______ _______ _____ _____    ______ ____
ROOT
ATOM      1  C   UNL     1      44.484   6.588  10.989  0.00  0.00    +0.000 C 
ENDROOT
BRANCH   1   2
ATOM      2  C   UNL     1      44.457   5.123  10.617  0.00  0.00    +0.000 A 
ATOM      3  C   UNL     1      43.673   4.232  11.353  0.00  0.00    +0.000 A 
ATOM      4  C   UNL     1      43.662   2.884  11.016  0.00  0.00    +0.000 A 
ATOM      5  F   UNL     1      42.896   2.040  11.720  0.00  0.00    +0.000 F 
ATOM      6  C   UNL     1      44.422   2.397   9.957  0.00  0.00    +0.000 A 
ATOM      7  C   UNL     1      45.226   3.259   9.194  0.00  0.00    +0.000 A 
ATOM      8  C   UNL     1      45.240   4.620   9.560  0.00  0.00    +0.000 A 
BRANCH   7   9
ATOM      9  C   UNL     1      46.001   2.773   8.032  0.00  0.00    +0.000 A 
ATOM     10  C   UNL     1      46.266   3.576   6.912  0.00  0.00    +0.000 A 
ATOM     11  C   UNL     1      46.966   3.067   5.817  0.00  0.00    +0.000 A 
ATOM     12  C   UNL     1      47.404   1.757   5.869  0.00  0.00    +0.000 A 
ATOM     13  N   UNL     1      47.188   0.943   6.920  0.00  0.00    +0.000 NA
ATOM     14  C   UNL     1      46.491   1.466   7.961  0.00  0.00    +0.000 A 
ENDBRANCH   7   9
ENDBRANCH   1   2
BRANCH   1  15
ATOM     15  O   UNL     1      44.583   6.730  12.407  0.00  0.00    +0.000 OA
BRANCH  15  19
ATOM     16  C   UNL     1      48.384   7.370  13.988  0.00  0.00    +0.000 A 
ATOM     17  C   UNL     1      47.610   8.484  13.642  0.00  0.00    +0.000 A 
ATOM     18  C   UNL     1      46.327   8.312  13.113  0.00  0.00    +0.000 A 
ATOM     19  C   UNL     1      45.815   7.029  12.917  0.00  0.00    +0.000 A 
ATOM     20  C   UNL     1      46.597   5.919  13.251  0.00  0.00    +0.000 A 
ATOM     21  C   UNL     1      47.878   6.085  13.778  0.00  0.00    +0.000 A 
BRANCH  16  23
ATOM     22  N   UNL     1      50.773   7.704  13.669  0.00  0.00    +0.000 N 
ATOM     23  C   UNL     1      49.749   7.517  14.556  0.00  0.00    +0.000 C 
ATOM     24  O   UNL     1      49.950   7.512  15.763  0.00  0.00    +0.000 OA
ATOM     25  H   UNL     1      51.678   7.914  14.071  0.00  0.00    +0.000 HD
ATOM     26  H   UNL     1      50.613   7.976  12.709  0.00  0.00    +0.000 HD
ENDBRANCH  16  23
ENDBRANCH  15  19
ENDBRANCH   1  15
TORSDOF 5
ENDMDL
MODEL 5
REMARK VINA RESULT:    -6.910      4.333      7.815
REMARK INTER + INTRA:          -9.973
REMARK INTER:                  -9.378
REMARK INTRA:                  -0.595
REMARK UNBOUND:                -1.043
REMARK  Name = 
REMARK  5 active torsions:
REMARK  status: ('A' for Active; 'I' for Inactive)
REMARK    1  A    between atoms: C_2  and  C_4
REMARK    2  A    between atoms: C_7  and  O_8
REMARK    3  A    between atoms: O_8  and  C_9
REMARK    4  A    between atoms: C_9  and  C_10
REMARK    5  A    between atoms: C_15  and  C_16
REMARK                            x       y       z     vdW  Elec       q    Type
REMARK                         _______ _______ _______ _____ _____    ______ ____
ROOT
ATOM      1  C   UNL     1      46.100   5.270  14.008  0.00  0.00    +0.000 C 
ENDROOT
BRANCH   1   2
ATOM      2  C   UNL     1      45.191   5.046  12.822  0.00  0.00    +0.000 A 
ATOM      3  C   UNL     1      43.847   5.423  12.892  0.00  0.00    +0.000 A 
ATOM      4  C   UNL     1      43.012   5.204  11.805  0.00  0.00    +0.000 A 
ATOM      5  F   UNL     1      41.729   5.581  11.877  0.00  0.00    +0.000 F 
ATOM      6  C   UNL     1      43.484   4.607  10.639  0.00  0.00    +0.000 A 
ATOM      7  C   UNL     1      44.826   4.210  10.528  0.00  0.00    +0.000 A 
ATOM      8  C   UNL     1      45.656   4.424  11.647  0.00  0.00    +0.000 A 
BRANCH   7   9
ATOM      9  C   UNL     1      45.363   3.624   9.281  0.00  0.00    +0.000 A 
ATOM     10  C   UNL     1      45.474   2.239   9.084  0.00  0.00    +0.000 A 
ATOM     11  C   UNL     1      46.024   1.726   7.909  0.00  0.00    +0.000 A 
ATOM     12  C   UNL     1      46.447   2.615   6.939  0.00  0.00    +0.000 A 
ATOM     13  N   UNL     1      46.357   3.953   7.068  0.00  0.00    +0.000 NA
ATOM     14  C   UNL     1      45.829   4.418   8.229  0.00  0.00    +0.000 A 
ENDBRANCH   7   9
ENDBRANCH   1   2
BRANCH   1  15
ATOM     15  O   UNL     1      46.446   4.018  14.602  0.00  0.00    +0.000 OA
BRANCH  15  19
ATOM     16  C   UNL     1      49.318   4.353  17.601  0.00  0.00    +0.000 A 
ATOM     17  C   UNL     1      48.786   3.089  17.326  0.00  0.00    +0.000 A 
ATOM     18  C   UNL     1      47.823   2.932  16.324  0.00  0.00    +0.000 A 
ATOM     19  C   UNL     1      47.381   4.038  15.598  0.00  0.00    +0.000 A 
ATOM     20  C   UNL     1      47.904   5.303  15.885  0.00  0.00    +0.000 A 
ATOM     21  C   UNL     1      48.864   5.464  16.885  0.00  0.00    +0.000 A 
BRANCH  16  23
ATOM     22  N   UNL     1      49.942   4.387  19.953  0.00  0.00    +0.000 N 
ATOM     23  C   UNL     1      50.345   4.554  18.656  0.00  0.00    +0.000 C 
ATOM     24  O   UNL     1      51.508   4.817  18.384  0.00  0.00    +0.000 OA
ATOM     25  H   UNL     1      50.672   4.416  20.653  0.00  0.00    +0.000 HD
ATOM     26  H   UNL     1      49.080   3.918  20.194  0.00  0.00    +0.000 HD
ENDBRANCH  16  23
ENDBRANCH  15  19
ENDBRANCH   1  15
TORSDOF 5
ENDMDL
MODEL 6
REMARK VINA RESULT:    -6.562      2.688      6.869
REMARK INTER + INTRA:          -9.524
REMARK INTER:                  -8.672
REMARK INTRA:                  -0.852
REMARK UNBOUND:                -1.043
REMARK  Name = 
REMARK  5 active torsions:
REMARK  status: ('A' for Active; 'I' for Inactive)
REMARK    1  A    between atoms: C_2  and  C_4
REMARK    2  A    between atoms: C_7  and  O_8
REMARK    3  A    between atoms: O_8  and  C_9
REMARK    4  A    between atoms: C_9  and  C_10
REMARK    5  A    between atoms: C_15  and  C_16
REMARK                            x       y       z     vdW  Elec       q    Type
REMARK                         _______ _______ _______ _____ _____    ______ ____
ROOT
ATOM      1  C   UNL     1      46.093   4.912  14.013  0.00  0.00    +0.000 C 
ENDROOT
BRANCH   1   2
ATOM      2  C   UNL     1      45.212   4.800  12.790  0.00  0.00    +0.000 A 
ATOM      3  C   UNL     1      43.895   5.263  12.835  0.00  0.00    +0.000 A 
ATOM      4  C   UNL     1      43.085   5.146  11.713  0.00  0.00    +0.000 A 
ATOM      5  F   UNL     1      41.827   5.605  11.762  0.00  0.00    +0.000 F 
ATOM      6  C   UNL     1      43.557   4.569  10.537  0.00  0.00    +0.000 A 
ATOM      7  C   UNL     1      44.873   4.088  10.451  0.00  0.00    +0.000 A 
ATOM      8  C   UNL     1      45.676   4.198  11.604  0.00  0.00    +0.000 A 
BRANCH   7   9
ATOM      9  C   UNL     1      45.412   3.520   9.197  0.00  0.00    +0.000 A 
ATOM     10  C   UNL     1      45.587   2.141   9.005  0.00  0.00    +0.000 A 
ATOM     11  C   UNL     1      46.138   1.648   7.823  0.00  0.00    +0.000 A 
ATOM     12  C   UNL     1      46.496   2.550   6.838  0.00  0.00    +0.000 A 
ATOM     13  N   UNL     1      46.343   3.883   6.961  0.00  0.00    +0.000 NA
ATOM     14  C   UNL     1      45.817   4.329   8.130  0.00  0.00    +0.000 A 
ENDBRANCH   7   9
ENDBRANCH   1   2
BRANCH   1  15
ATOM     15  O   UNL     1      47.415   5.296  13.629  0.00  0.00    +0.000 OA
BRANCH  15  19
ATOM     16  C   UNL     1      48.145   9.097  12.087  0.00  0.00    +0.000 A 
ATOM     17  C   UNL     1      47.097   8.938  13.002  0.00  0.00    +0.000 A 
ATOM     18  C   UNL     1      46.822   7.680  13.546  0.00  0.00    +0.000 A 
ATOM     19  C   UNL     1      47.585   6.573  13.174  0.00  0.00    +0.000 A 
ATOM     20  C   UNL     1      48.622   6.733  12.250  0.00  0.00    +0.000 A 
ATOM     21  C   UNL     1      48.900   7.986  11.702  0.00  0.00    +0.000 A 
BRANCH  16  23
ATOM     22  N   UNL     1      49.742  10.884  11.666  0.00  0.00    +0.000 N 
ATOM     23  C   UNL     1      48.466  10.420  11.494  0.00  0.00    +0.000 C 
ATOM     24  O   UNL     1      47.645  11.054  10.846  0.00  0.00    +0.000 OA
ATOM     25  H   UNL     1      49.979  11.730  11.163  0.00  0.00    +0.000 HD
ATOM     26  H   UNL     1      50.500  10.282  11.954  0.00  0.00    +0.000 HD
ENDBRANCH  16  23
ENDBRANCH  15  19
ENDBRANCH   1  15
TORSDOF 5
ENDMDL
MODEL 7
REMARK VINA RESULT:    -6.098      5.303      7.590
REMARK INTER + INTRA:          -8.924
REMARK INTER:                  -8.138
REMARK INTRA:                  -0.786
REMARK UNBOUND:                -1.043
REMARK  Name = 
REMARK  5 active torsions:
REMARK  status: ('A' for Active; 'I' for Inactive)
REMARK    1  A    between atoms: C_2  and  C_4
REMARK    2  A    between atoms: C_7  and  O_8
REMARK    3  A    between atoms: O_8  and  C_9
REMARK    4  A    between atoms: C_9  and  C_10
REMARK    5  A    between atoms: C_15  and  C_16
REMARK                            x       y       z     vdW  Elec       q    Type
REMARK                         _______ _______ _______ _____ _____    ______ ____
ROOT
ATOM      1  C   UNL     1      48.716   7.221  15.277  0.00  0.00    +0.000 C 
ENDROOT
BRANCH   1   2
ATOM      2  C   UNL     1      49.016   6.498  16.569  0.00  0.00    +0.000 A 
ATOM      3  C   UNL     1      48.493   6.975  17.773  0.00  0.00    +0.000 A 
ATOM      4  C   UNL     1      48.782   6.314  18.960  0.00  0.00    +0.000 A 
ATOM      5  F   UNL     1      48.265   6.773  20.108  0.00  0.00    +0.000 F 
ATOM      6  C   UNL     1      49.590   5.182  18.979  0.00  0.00    +0.000 A 
ATOM      7  C   UNL     1      50.138   4.670  17.792  0.00  0.00    +0.000 A 
ATOM      8  C   UNL     1      49.850   5.363  16.599  0.00  0.00    +0.000 A 
BRANCH   7   9
ATOM      9  C   UNL     1      50.956   3.438  17.780  0.00  0.00    +0.000 A 
ATOM     10  C   UNL     1      52.295   3.416  18.201  0.00  0.00    +0.000 A 
ATOM     11  C   UNL     1      53.045   2.241  18.135  0.00  0.00    +0.000 A 
ATOM     12  C   UNL     1      52.433   1.097  17.658  0.00  0.00    +0.000 A 
ATOM     13  N   UNL     1      51.150   1.056  17.249  0.00  0.00    +0.000 NA
ATOM     14  C   UNL     1      50.454   2.220  17.314  0.00  0.00    +0.000 A 
ENDBRANCH   7   9
ENDBRANCH   1   2
BRANCH   1  15
ATOM     15  O   UNL     1      48.595   6.282  14.207  0.00  0.00    +0.000 OA
BRANCH  15  19
ATOM     16  C   UNL     1      44.773   5.864  12.602  0.00  0.00    +0.000 A 
ATOM     17  C   UNL     1      45.343   4.769  13.263  0.00  0.00    +0.000 A 
ATOM     18  C   UNL     1      46.621   4.870  13.820  0.00  0.00    +0.000 A 
ATOM     19  C   UNL     1      47.342   6.060  13.712  0.00  0.00    +0.000 A 
ATOM     20  C   UNL     1      46.775   7.146  13.039  0.00  0.00    +0.000 A 
ATOM     21  C   UNL     1      45.500   7.051  12.480  0.00  0.00    +0.000 A 
BRANCH  16  23
ATOM     22  N   UNL     1      43.018   6.856  11.241  0.00  0.00    +0.000 N 
ATOM     23  C   UNL     1      43.416   5.791  12.003  0.00  0.00    +0.000 C 
ATOM     24  O   UNL     1      42.697   4.812  12.148  0.00  0.00    +0.000 OA
ATOM     25  H   UNL     1      42.139   6.746  10.749  0.00  0.00    +0.000 HD
ATOM     26  H   UNL     1      43.670   7.541  10.888  0.00  0.00    +0.000 HD
ENDBRANCH  16  23
ENDBRANCH  15  19
ENDBRANCH   1  15
TORSDOF 5
ENDMDL
MODEL 8
REMARK VINA RESULT:    -6.091      2.607      3.129
REMARK INTER + INTRA:          -8.915
REMARK INTER:                  -8.125
REMARK INTRA:                  -0.790
REMARK UNBOUND:                -1.043
REMARK  Name = 
REMARK  5 active torsions:
REMARK  status: ('A' for Active; 'I' for Inactive)
REMARK    1  A    between atoms: C_2  and  C_4
REMARK    2  A    between atoms: C_7  and  O_8
REMARK    3  A    between atoms: O_8  and  C_9
REMARK    4  A    between atoms: C_9  and  C_10
REMARK    5  A    between atoms: C_15  and  C_16
REMARK                            x       y       z     vdW  Elec       q    Type
REMARK                         _______ _______ _______ _____ _____    ______ ____
ROOT
ATOM      1  C   UNL     1      44.799   5.099  12.754  0.00  0.00    +0.000 C 
ENDROOT
BRANCH   1   2
ATOM      2  C   UNL     1      45.458   6.458  12.811  0.00  0.00    +0.000 A 
ATOM      3  C   UNL     1      44.827   7.563  12.233  0.00  0.00    +0.000 A 
ATOM      4  C   UNL     1      45.442   8.807  12.276  0.00  0.00    +0.000 A 
ATOM      5  F   UNL     1      44.824   9.863  11.731  0.00  0.00    +0.000 F 
ATOM      6  C   UNL     1      46.683   8.980  12.882  0.00  0.00    +0.000 A 
ATOM      7  C   UNL     1      47.352   7.896  13.472  0.00  0.00    +0.000 A 
ATOM      8  C   UNL     1      46.723   6.637  13.404  0.00  0.00    +0.000 A 
BRANCH   7   9
ATOM      9  C   UNL     1      48.646   8.065  14.168  0.00  0.00    +0.000 A 
ATOM     10  C   UNL     1      49.303   7.005  14.811  0.00  0.00    +0.000 A 
ATOM     11  C   UNL     1      50.502   7.215  15.492  0.00  0.00    +0.000 A 
ATOM     12  C   UNL     1      51.035   8.491  15.506  0.00  0.00    +0.000 A 
ATOM     13  N   UNL     1      50.455   9.545  14.899  0.00  0.00    +0.000 NA
ATOM     14  C   UNL     1      49.282   9.307  14.258  0.00  0.00    +0.000 A 
ENDBRANCH   7   9
ENDBRANCH   1   2
BRANCH   1  15
ATOM     15  O   UNL     1      44.034   4.977  11.553  0.00  0.00    +0.000 OA
BRANCH  15  19
ATOM     16  C   UNL     1      45.794   2.989   8.343  0.00  0.00    +0.000 A 
ATOM     17  C   UNL     1      45.143   2.229   9.322  0.00  0.00    +0.000 A 
ATOM     18  C   UNL     1      44.536   2.858  10.413  0.00  0.00    +0.000 A 
ATOM     19  C   UNL     1      44.583   4.247  10.537  0.00  0.00    +0.000 A 
ATOM     20  C   UNL     1      45.246   5.001   9.565  0.00  0.00    +0.000 A 
ATOM     21  C   UNL     1      45.856   4.378   8.475  0.00  0.00    +0.000 A 
BRANCH  16  23
ATOM     22  N   UNL     1      46.992   1.112   7.361  0.00  0.00    +0.000 N 
ATOM     23  C   UNL     1      46.446   2.353   7.170  0.00  0.00    +0.000 C 
ATOM     24  O   UNL     1      46.465   2.890   6.071  0.00  0.00    +0.000 OA
ATOM     25  H   UNL     1      47.333   0.644   6.530  0.00  0.00    +0.000 HD
ATOM     26  H   UNL     1      46.764   0.540   8.161  0.00  0.00    +0.000 HD
ENDBRANCH  16  23
ENDBRANCH  15  19
ENDBRANCH   1  15
TORSDOF 5
ENDMDL
