MODEL 1
REMARK VINA RESULT:    -7.214      0.000      0.000
REMARK INTER + INTRA:         -11.202
REMARK INTER:                 -10.377
REMARK INTRA:                  -0.825
REMARK UNBOUND:                -0.825
REMARK  Name = 
REMARK  8 active torsions:
REMARK  status: ('A' for Active; 'I' for Inactive)
REMARK    1  A    between atoms: N_1  and  C_2
REMARK    2  A    between atoms: C_2  and  C_3
REMARK    3  A    between atoms: C_3  and  C_4
REMARK    4  A    between atoms: C_4  and  N_5
REMARK    5  A    between atoms: N_5  and  C_6
REMARK    6  A    between atoms: C_9  and  C_10
REMARK    7  A    between atoms: C_10  and  N_11
REMARK    8  A    between atoms: C_17  and  C_18
REMARK                            x       y       z     vdW  Elec       q    Type
REMARK                         _______ _______ _______ _____ _____    ______ ____
ROOT
ATOM      1  C   UNL     1      45.177   6.250  12.575  0.00  0.00    +0.000 C 
ENDROOT
BRANCH   1   2
ATOM      2  N   UNL     1      46.526   6.588  13.032  0.00  0.00    +0.000 N 
ATOM      3  C   UNL     1      47.210   7.728  12.675  0.00  0.00    +0.000 A 
ATOM      4  C   UNL     1      48.309   7.844  13.502  0.00  0.00    +0.000 A 
ATOM      5  C   UNL     1      48.292   6.740  14.387  0.00  0.00    +0.000 A 
ATOM      6  N   UNL     1      49.124   6.463  15.421  0.00  0.00    +0.000 NA
ATOM      7  C   UNL     1      48.794   5.353  16.129  0.00  0.00    +0.000 A 
ATOM      8  C   UNL     1      47.732   4.494  15.859  0.00  0.00    +0.000 A 
ATOM      9  C   UNL     1      46.908   4.776  14.768  0.00  0.00    +0.000 A 
ATOM     10  C   UNL     1      47.196   5.945  14.053  0.00  0.00    +0.000 A 
BRANCH   8  11
ATOM     11  C   UNL     1      47.510   3.343  16.773  0.00  0.00    +0.000 C 
ATOM     12  N   UNL     1      48.538   2.452  16.958  0.00  0.00    +0.000 N 
ATOM     13  O   UNL     1      46.448   3.177  17.340  0.00  0.00    +0.000 OA
ATOM     14  H   UNL     1      49.417   2.462  16.472  0.00  0.00    +0.000 HD
ATOM     15  H   UNL     1      48.344   1.663  17.562  0.00  0.00    +0.000 HD
ENDBRANCH   8  11
ENDBRANCH   1   2
BRANCH   1  19
ATOM     16  C   UNL     1      45.142   3.455   9.232  0.00  0.00    +0.000 A 
ATOM     17  C   UNL     1      45.603   4.760   9.066  0.00  0.00    +0.000 A 
ATOM     18  C   UNL     1      45.631   5.664  10.136  0.00  0.00    +0.000 A 
ATOM     19  C   UNL     1      45.165   5.298  11.405  0.00  0.00    +0.000 A 
ATOM     20  C   UNL     1      44.689   3.993  11.573  0.00  0.00    +0.000 A 
ATOM     21  C   UNL     1      44.669   3.092  10.497  0.00  0.00    +0.000 A 
BRANCH  16  22
ATOM     22  N   UNL     1      45.183   2.492   8.229  0.00  0.00    +0.000 N 
ATOM     23  H   UNL     1      45.047   2.849   7.285  0.00  0.00    +0.000 HD
BRANCH  22  24
ATOM     24  C   UNL     1      46.014   1.308   8.386  0.00  0.00    +0.000 C 
BRANCH  24  25
ATOM     25  C   UNL     1      46.793   1.033   7.102  0.00  0.00    +0.000 C 
BRANCH  25  26
ATOM     26  C   UNL     1      47.733   2.200   6.803  0.00  0.00    +0.000 C 
BRANCH  26  27
ATOM     27  N   UNL     1      48.578   1.898   5.655  0.00  0.00    +0.000 NA
ATOM     28  H   UNL     1      48.035   1.392   4.956  0.00  0.00    +0.000 HD
ATOM     29  H   UNL     1      49.333   1.274   5.936  0.00  0.00    +0.000 HD
ENDBRANCH  26  27
ENDBRANCH  25  26
ENDBRANCH  24  25
ENDBRANCH  22  24
ENDBRANCH  16  22
ENDBRANCH   1  19
TORSDOF 8
ENDMDL
MODEL 2
REMARK VINA RESULT:    -6.597      3.297      4.078
REMARK INTER + INTRA:         -10.315
REMARK INTER:                  -9.658
REMARK INTRA:                  -0.657
REMARK UNBOUND:                -0.825
REMARK  Name = 
REMARK  8 active torsions:
REMARK  status: ('A' for Active; 'I' for Inactive)
REMARK    1  A    between atoms: N_1  and  C_2
REMARK    2  A    between atoms: C_2  and  C_3
REMARK    3  A    between atoms: C_3  and  C_4
REMARK    4  A    between atoms: C_4  and  N_5
REMARK    5  A    between atoms: N_5  and  C_6
REMARK    6  A    between atoms: C_9  and  C_10
REMARK    7  A    between atoms: C_10  and  N_11
REMARK    8  A    between atoms: C_17  and  C_18
REMARK                            x       y       z     vdW  Elec       q    Type
REMARK                         _______ _______ _______ _____ _____    ______ ____
ROOT
ATOM      1  C   UNL     1      45.826   6.567  12.934  0.00  0.00    +0.000 C 
ENDROOT
BRANCH   1   2
ATOM      2  N   UNL     1      46.114   7.906  12.416  0.00  0.00    +0.000 N 
ATOM      3  C   UNL     1      45.243   8.970  12.473  0.00  0.00    +0.000 A 
ATOM      4  C   UNL     1      45.946  10.114  12.155  0.00  0.00    +0.000 A 
ATOM      5  C   UNL     1      47.283   9.733  11.897  0.00  0.00    +0.000 A 
ATOM      6  N   UNL     1      48.354  10.516  11.618  0.00  0.00    +0.000 NA
ATOM      7  C   UNL     1      49.527   9.844  11.492  0.00  0.00    +0.000 A 
ATOM      8  C   UNL     1      49.696   8.464  11.586  0.00  0.00    +0.000 A 
ATOM      9  C   UNL     1      48.574   7.672  11.839  0.00  0.00    +0.000 A 
ATOM     10  C   UNL     1      47.362   8.347  12.025  0.00  0.00    +0.000 A 
BRANCH   8  11
ATOM     11  C   UNL     1      51.070   7.915  11.453  0.00  0.00    +0.000 C 
ATOM     12  N   UNL     1      51.921   8.024  12.525  0.00  0.00    +0.000 N 
ATOM     13  O   UNL     1      51.448   7.390  10.424  0.00  0.00    +0.000 OA
ATOM     14  H   UNL     1      51.725   8.512  13.381  0.00  0.00    +0.000 HD
ATOM     15  H   UNL     1      52.859   7.669  12.391  0.00  0.00    +0.000 HD
ENDBRANCH   8  11
ENDBRANCH   1   2
BRANCH   1  19
ATOM     16  C   UNL     1      44.898   3.634   9.847  0.00  0.00    +0.000 A 
ATOM     17  C   UNL     1      45.362   4.904   9.508  0.00  0.00    +0.000 A 
ATOM     18  C   UNL     1      45.675   5.852  10.491  0.00  0.00    +0.000 A 
ATOM     19  C   UNL     1      45.502   5.567  11.851  0.00  0.00    +0.000 A 
ATOM     20  C   UNL     1      45.023   4.297  12.196  0.00  0.00    +0.000 A 
ATOM     21  C   UNL     1      44.716   3.353  11.204  0.00  0.00    +0.000 A 
BRANCH  16  22
ATOM     22  N   UNL     1      44.663   2.628   8.916  0.00  0.00    +0.000 N 
ATOM     23  H   UNL     1      43.962   2.849   8.211  0.00  0.00    +0.000 HD
BRANCH  22  24
ATOM     24  C   UNL     1      45.736   1.723   8.533  0.00  0.00    +0.000 C 
BRANCH  24  25
ATOM     25  C   UNL     1      46.530   2.304   7.366  0.00  0.00    +0.000 C 
BRANCH  25  26
ATOM     26  C   UNL     1      47.640   1.336   6.958  0.00  0.00    +0.000 C 
BRANCH  26  27
ATOM     27  N   UNL     1      48.403   1.872   5.838  0.00  0.00    +0.000 NA
ATOM     28  H   UNL     1      48.382   2.890   5.868  0.00  0.00    +0.000 HD
ATOM     29  H   UNL     1      47.963   1.603   4.960  0.00  0.00    +0.000 HD
ENDBRANCH  26  27
ENDBRANCH  25  26
ENDBRANCH  24  25
ENDBRANCH  22  24
ENDBRANCH  16  22
ENDBRANCH   1  19
TORSDOF 8
ENDMDL
MODEL 3
REMARK VINA RESULT:    -6.585      3.080      4.607
REMARK INTER + INTRA:         -10.298
REMARK INTER:                  -9.270
REMARK INTRA:                  -1.028
REMARK UNBOUND:                -0.825
REMARK  Name = 
REMARK  8 active torsions:
REMARK  status: ('A' for Active; 'I' for Inactive)
REMARK    1  A    between atoms: N_1  and  C_2
REMARK    2  A    between atoms: C_2  and  C_3
REMARK    3  A    between atoms: C_3  and  C_4
REMARK    4  A    between atoms: C_4  and  N_5
REMARK    5  A    between atoms: N_5  and  C_6
REMARK    6  A    between atoms: C_9  and  C_10
REMARK    7  A    between atoms: C_10  and  N_11
REMARK    8  A    between atoms: C_17  and  C_18
REMARK                            x       y       z     vdW  Elec       q    Type
REMARK                         _______ _______ _______ _____ _____    ______ ____
ROOT
ATOM      1  C   UNL     1      45.492   5.629  13.319  0.00  0.00    +0.000 C 
ENDROOT
BRANCH   1   2
ATOM      2  N   UNL     1      46.554   6.636  13.277  0.00  0.00    +0.000 N 
ATOM      3  C   UNL     1      47.894   6.366  13.433  0.00  0.00    +0.000 A 
ATOM      4  C   UNL     1      48.602   7.490  13.058  0.00  0.00    +0.000 A 
ATOM      5  C   UNL     1      47.664   8.472  12.665  0.00  0.00    +0.000 A 
ATOM      6  N   UNL     1      47.885   9.707  12.153  0.00  0.00    +0.000 NA
ATOM      7  C   UNL     1      46.762  10.385  11.806  0.00  0.00    +0.000 A 
ATOM      8  C   UNL     1      45.452   9.938  11.966  0.00  0.00    +0.000 A 
ATOM      9  C   UNL     1      45.243   8.677  12.529  0.00  0.00    +0.000 A 
ATOM     10  C   UNL     1      46.388   7.937  12.846  0.00  0.00    +0.000 A 
BRANCH   8  11
ATOM     11  C   UNL     1      44.348  10.813  11.492  0.00  0.00    +0.000 C 
ATOM     12  N   UNL     1      43.166  10.804  12.189  0.00  0.00    +0.000 N 
ATOM     13  O   UNL     1      44.472  11.514  10.507  0.00  0.00    +0.000 OA
ATOM     14  H   UNL     1      42.945  10.199  12.960  0.00  0.00    +0.000 HD
ATOM     15  H   UNL     1      42.424  11.387  11.821  0.00  0.00    +0.000 HD
ENDBRANCH   8  11
ENDBRANCH   1   2
BRANCH   1  19
ATOM     16  C   UNL     1      44.939   3.507   9.553  0.00  0.00    +0.000 A 
ATOM     17  C   UNL     1      45.408   4.820   9.570  0.00  0.00    +0.000 A 
ATOM     18  C   UNL     1      45.601   5.509  10.774  0.00  0.00    +0.000 A 
ATOM     19  C   UNL     1      45.299   4.913  12.005  0.00  0.00    +0.000 A 
ATOM     20  C   UNL     1      44.815   3.599  11.992  0.00  0.00    +0.000 A 
ATOM     21  C   UNL     1      44.629   2.915  10.780  0.00  0.00    +0.000 A 
BRANCH  16  22
ATOM     22  N   UNL     1      44.820   2.749   8.393  0.00  0.00    +0.000 N 
ATOM     23  H   UNL     1      44.552   3.273   7.561  0.00  0.00    +0.000 HD
BRANCH  22  24
ATOM     24  C   UNL     1      45.650   1.569   8.203  0.00  0.00    +0.000 C 
BRANCH  24  25
ATOM     25  C   UNL     1      46.961   1.947   7.518  0.00  0.00    +0.000 C 
BRANCH  25  26
ATOM     26  C   UNL     1      46.671   2.670   6.203  0.00  0.00    +0.000 C 
BRANCH  26  27
ATOM     27  N   UNL     1      46.823   4.111   6.365  0.00  0.00    +0.000 NA
ATOM     28  H   UNL     1      45.959   4.505   6.734  0.00  0.00    +0.000 HD
ATOM     29  H   UNL     1      46.972   4.547   5.456  0.00  0.00    +0.000 HD
ENDBRANCH  26  27
ENDBRANCH  25  26
ENDBRANCH  24  25
ENDBRANCH  22  24
ENDBRANCH  16  22
ENDBRANCH   1  19
TORSDOF 8
ENDMDL
MODEL 4
REMARK VINA RESULT:    -6.564      2.851      7.589
REMARK INTER + INTRA:         -10.267
REMARK INTER:                  -9.251
REMARK INTRA:                  -1.016
REMARK UNBOUND:                -0.825
REMARK  Name = 
REMARK  8 active torsions:
REMARK  status: ('A' for Active; 'I' for Inactive)
REMARK    1  A    between atoms: N_1  and  C_2
REMARK    2  A    between atoms: C_2  and  C_3
REMARK    3  A    between atoms: C_3  and  C_4
REMARK    4  A    between atoms: C_4  and  N_5
REMARK    5  A    between atoms: N_5  and  C_6
REMARK    6  A    between atoms: C_9  and  C_10
REMARK    7  A    between atoms: C_10  and  N_11
REMARK    8  A    between atoms: C_17  and  C_18
REMARK                            x       y       z     vdW  Elec       q    Type
REMARK                         _______ _______ _______ _____ _____    ______ ____
ROOT
ATOM      1  C   UNL     1      44.746   6.842  11.054  0.00  0.00    +0.000 C 
ENDROOT
BRANCH   1   2
ATOM      2  N   UNL     1      44.387   5.430  11.204  0.00  0.00    +0.000 N 
ATOM      3  C   UNL     1      43.458   4.951  12.099  0.00  0.00    +0.000 A 
ATOM      4  C   UNL     1      43.181   3.641  11.768  0.00  0.00    +0.000 A 
ATOM      5  C   UNL     1      43.967   3.313  10.638  0.00  0.00    +0.000 A 
ATOM      6  N   UNL     1      43.983   2.169   9.913  0.00  0.00    +0.000 NA
ATOM      7  C   UNL     1      44.804   2.196   8.833  0.00  0.00    +0.000 A 
ATOM      8  C   UNL     1      45.625   3.256   8.453  0.00  0.00    +0.000 A 
ATOM      9  C   UNL     1      45.622   4.413   9.234  0.00  0.00    +0.000 A 
ATOM     10  C   UNL     1      44.743   4.429  10.324  0.00  0.00    +0.000 A 
BRANCH   8  11
ATOM     11  C   UNL     1      46.432   3.110   7.213  0.00  0.00    +0.000 C 
ATOM     12  N   UNL     1      47.187   1.974   7.059  0.00  0.00    +0.000 N 
ATOM     13  O   UNL     1      46.441   3.971   6.356  0.00  0.00    +0.000 OA
ATOM     14  H   UNL     1      47.306   1.251   7.747  0.00  0.00    +0.000 HD
ATOM     15  H   UNL     1      47.749   1.919   6.219  0.00  0.00    +0.000 HD
ENDBRANCH   8  11
ENDBRANCH   1   2
BRANCH   1  19
ATOM     16  C   UNL     1      48.153   7.976  13.523  0.00  0.00    +0.000 A 
ATOM     17  C   UNL     1      46.925   8.621  13.662  0.00  0.00    +0.000 A 
ATOM     18  C   UNL     1      45.819   8.257  12.883  0.00  0.00    +0.000 A 
ATOM     19  C   UNL     1      45.917   7.253  11.912  0.00  0.00    +0.000 A 
ATOM     20  C   UNL     1      47.152   6.612  11.759  0.00  0.00    +0.000 A 
ATOM     21  C   UNL     1      48.254   6.979  12.548  0.00  0.00    +0.000 A 
BRANCH  16  22
ATOM     22  N   UNL     1      49.252   8.233  14.335  0.00  0.00    +0.000 N 
ATOM     23  H   UNL     1      49.316   9.189  14.683  0.00  0.00    +0.000 HD
BRANCH  22  24
ATOM     24  C   UNL     1      49.809   7.177  15.167  0.00  0.00    +0.000 C 
BRANCH  24  25
ATOM     25  C   UNL     1      48.934   6.957  16.399  0.00  0.00    +0.000 C 
BRANCH  25  26
ATOM     26  C   UNL     1      48.630   5.468  16.562  0.00  0.00    +0.000 C 
BRANCH  26  27
ATOM     27  N   UNL     1      47.682   5.023  15.550  0.00  0.00    +0.000 NA
ATOM     28  H   UNL     1      47.295   4.119  15.820  0.00  0.00    +0.000 HD
ATOM     29  H   UNL     1      48.165   4.874  14.665  0.00  0.00    +0.000 HD
ENDBRANCH  26  27
ENDBRANCH  25  26
ENDBRANCH  24  25
ENDBRANCH  22  24
ENDBRANCH  16  22
ENDBRANCH   1  19
TORSDOF 8
ENDMDL
MODEL 5
REMARK VINA RESULT:    -6.185      2.979      8.031
REMARK INTER + INTRA:          -9.722
REMARK INTER:                  -8.691
REMARK INTRA:                  -1.031
REMARK UNBOUND:                -0.825
REMARK  Name = 
REMARK  8 active torsions:
REMARK  status: ('A' for Active; 'I' for Inactive)
REMARK    1  A    between atoms: N_1  and  C_2
REMARK    2  A    between atoms: C_2  and  C_3
REMARK    3  A    between atoms: C_3  and  C_4
REMARK    4  A    between atoms: C_4  and  N_5
REMARK    5  A    between atoms: N_5  and  C_6
REMARK    6  A    between atoms: C_9  and  C_10
REMARK    7  A    between atoms: C_10  and  N_11
REMARK    8  A    between atoms: C_17  and  C_18
REMARK                            x       y       z     vdW  Elec       q    Type
REMARK                         _______ _______ _______ _____ _____    ______ ____
ROOT
ATOM      1  C   UNL     1      47.856   5.929  13.387  0.00  0.00    +0.000 C 
ENDROOT
BRANCH   1   2
ATOM      2  N   UNL     1      46.592   6.558  13.003  0.00  0.00    +0.000 N 
ATOM      3  C   UNL     1      46.379   7.917  12.951  0.00  0.00    +0.000 A 
ATOM      4  C   UNL     1      45.188   8.138  12.290  0.00  0.00    +0.000 A 
ATOM      5  C   UNL     1      44.661   6.875  11.932  0.00  0.00    +0.000 A 
ATOM      6  N   UNL     1      43.551   6.588  11.209  0.00  0.00    +0.000 NA
ATOM      7  C   UNL     1      43.356   5.265  10.975  0.00  0.00    +0.000 A 
ATOM      8  C   UNL     1      44.158   4.224  11.436  0.00  0.00    +0.000 A 
ATOM      9  C   UNL     1      45.277   4.538  12.209  0.00  0.00    +0.000 A 
ATOM     10  C   UNL     1      45.529   5.899  12.420  0.00  0.00    +0.000 A 
BRANCH   8  11
ATOM     11  C   UNL     1      43.800   2.836  11.044  0.00  0.00    +0.000 C 
ATOM     12  N   UNL     1      44.450   2.274   9.974  0.00  0.00    +0.000 N 
ATOM     13  O   UNL     1      42.947   2.207  11.640  0.00  0.00    +0.000 OA
ATOM     14  H   UNL     1      45.106   2.742   9.374  0.00  0.00    +0.000 HD
ATOM     15  H   UNL     1      44.161   1.339   9.714  0.00  0.00    +0.000 HD
ENDBRANCH   8  11
ENDBRANCH   1   2
BRANCH   1  19
ATOM     16  C   UNL     1      47.941   4.734  17.578  0.00  0.00    +0.000 A 
ATOM     17  C   UNL     1      48.673   5.835  17.135  0.00  0.00    +0.000 A 
ATOM     18  C   UNL     1      48.645   6.236  15.793  0.00  0.00    +0.000 A 
ATOM     19  C   UNL     1      47.904   5.525  14.840  0.00  0.00    +0.000 A 
ATOM     20  C   UNL     1      47.178   4.411  15.278  0.00  0.00    +0.000 A 
ATOM     21  C   UNL     1      47.208   4.019  16.626  0.00  0.00    +0.000 A 
BRANCH  16  22
ATOM     22  N   UNL     1      47.860   4.352  18.912  0.00  0.00    +0.000 N 
ATOM     23  H   UNL     1      48.152   3.396  19.105  0.00  0.00    +0.000 HD
BRANCH  22  24
ATOM     24  C   UNL     1      48.051   5.337  19.966  0.00  0.00    +0.000 C 
BRANCH  24  25
ATOM     25  C   UNL     1      48.871   4.740  21.108  0.00  0.00    +0.000 C 
BRANCH  25  26
ATOM     26  C   UNL     1      50.350   5.070  20.915  0.00  0.00    +0.000 C 
BRANCH  26  27
ATOM     27  N   UNL     1      50.887   4.370  19.756  0.00  0.00    +0.000 NA
ATOM     28  H   UNL     1      51.844   4.676  19.587  0.00  0.00    +0.000 HD
ATOM     29  H   UNL     1      50.355   4.620  18.924  0.00  0.00    +0.000 HD
ENDBRANCH  26  27
ENDBRANCH  25  26
ENDBRANCH  24  25
ENDBRANCH  22  24
ENDBRANCH  16  22
ENDBRANCH   1  19
TORSDOF 8
ENDMDL
MODEL 6
REMARK VINA RESULT:    -6.152      3.366      7.541
REMARK INTER + INTRA:          -9.674
REMARK INTER:                  -8.623
REMARK INTRA:                  -1.050
REMARK UNBOUND:                -0.825
REMARK  Name = 
REMARK  8 active torsions:
REMARK  status: ('A' for Active; 'I' for Inactive)
REMARK    1  A    between atoms: N_1  and  C_2
REMARK    2  A    between atoms: C_2  and  C_3
REMARK    3  A    between atoms: C_3  and  C_4
REMARK    4  A    between atoms: C_4  and  N_5
REMARK    5  A    between atoms: N_5  and  C_6
REMARK    6  A    between atoms: C_9  and  C_10
REMARK    7  A    between atoms: C_10  and  N_11
REMARK    8  A    between atoms: C_17  and  C_18
REMARK                            x       y       z     vdW  Elec       q    Type
REMARK                         _______ _______ _______ _____ _____    ______ ____
ROOT
ATOM      1  C   UNL     1      44.852   7.053  11.340  0.00  0.00    +0.000 C 
ENDROOT
BRANCH   1   2
ATOM      2  N   UNL     1      44.433   5.659  11.495  0.00  0.00    +0.000 N 
ATOM      3  C   UNL     1      43.510   5.218  12.415  0.00  0.00    +0.000 A 
ATOM      4  C   UNL     1      43.164   3.923  12.086  0.00  0.00    +0.000 A 
ATOM      5  C   UNL     1      43.901   3.567  10.932  0.00  0.00    +0.000 A 
ATOM      6  N   UNL     1      43.843   2.427  10.202  0.00  0.00    +0.000 NA
ATOM      7  C   UNL     1      44.633   2.422   9.098  0.00  0.00    +0.000 A 
ATOM      8  C   UNL     1      45.491   3.445   8.700  0.00  0.00    +0.000 A 
ATOM      9  C   UNL     1      45.563   4.597   9.486  0.00  0.00    +0.000 A 
ATOM     10  C   UNL     1      44.718   4.647  10.600  0.00  0.00    +0.000 A 
BRANCH   8  11
ATOM     11  C   UNL     1      46.254   3.270   7.437  0.00  0.00    +0.000 C 
ATOM     12  N   UNL     1      46.764   2.027   7.153  0.00  0.00    +0.000 N 
ATOM     13  O   UNL     1      46.439   4.196   6.671  0.00  0.00    +0.000 OA
ATOM     14  H   UNL     1      46.733   1.228   7.761  0.00  0.00    +0.000 HD
ATOM     15  H   UNL     1      47.305   1.949   6.301  0.00  0.00    +0.000 HD
ENDBRANCH   8  11
ENDBRANCH   1   2
BRANCH   1  19
ATOM     16  C   UNL     1      48.369   8.016  13.727  0.00  0.00    +0.000 A 
ATOM     17  C   UNL     1      47.224   8.809  13.791  0.00  0.00    +0.000 A 
ATOM     18  C   UNL     1      46.083   8.503  13.038  0.00  0.00    +0.000 A 
ATOM     19  C   UNL     1      46.063   7.406  12.168  0.00  0.00    +0.000 A 
ATOM     20  C   UNL     1      47.215   6.615  12.090  0.00  0.00    +0.000 A 
ATOM     21  C   UNL     1      48.353   6.926  12.852  0.00  0.00    +0.000 A 
BRANCH  16  22
ATOM     22  N   UNL     1      49.491   8.222  14.523  0.00  0.00    +0.000 N 
ATOM     23  H   UNL     1      50.071   7.397  14.670  0.00  0.00    +0.000 HD
BRANCH  22  24
ATOM     24  C   UNL     1      50.153   9.517  14.531  0.00  0.00    +0.000 C 
BRANCH  24  25
ATOM     25  C   UNL     1      50.751   9.817  13.158  0.00  0.00    +0.000 C 
BRANCH  25  26
ATOM     26  C   UNL     1      51.998   8.962  12.937  0.00  0.00    +0.000 C 
BRANCH  26  27
ATOM     27  N   UNL     1      51.712   7.862  12.025  0.00  0.00    +0.000 NA
ATOM     28  H   UNL     1      50.879   8.080  11.479  0.00  0.00    +0.000 HD
ATOM     29  H   UNL     1      51.493   7.020  12.556  0.00  0.00    +0.000 HD
ENDBRANCH  26  27
ENDBRANCH  25  26
ENDBRANCH  24  25
ENDBRANCH  22  24
ENDBRANCH  16  22
ENDBRANCH   1  19
TORSDOF 8
ENDMDL
MODEL 7
REMARK VINA RESULT:    -6.135      2.963      4.170
REMARK INTER + INTRA:          -9.650
REMARK INTER:                  -8.714
REMARK INTRA:                  -0.936
REMARK UNBOUND:                -0.825
REMARK  Name = 
REMARK  8 active torsions:
REMARK  status: ('A' for Active; 'I' for Inactive)
REMARK    1  A    between atoms: N_1  and  C_2
REMARK    2  A    between atoms: C_2  and  C_3
REMARK    3  A    between atoms: C_3  and  C_4
REMARK    4  A    between atoms: C_4  and  N_5
REMARK    5  A    between atoms: N_5  and  C_6
REMARK    6  A    between atoms: C_9  and  C_10
REMARK    7  A    between atoms: C_10  and  N_11
REMARK    8  A    between atoms: C_17  and  C_18
REMARK                            x       y       z     vdW  Elec       q    Type
REMARK                         _______ _______ _______ _____ _____    ______ ____
ROOT
ATOM      1  C   UNL     1      48.628   6.956  13.771  0.00  0.00    +0.000 C 
ENDROOT
BRANCH   1   2
ATOM      2  N   UNL     1      48.785   7.576  15.088  0.00  0.00    +0.000 N 
ATOM      3  C   UNL     1      48.621   8.917  15.345  0.00  0.00    +0.000 A 
ATOM      4  C   UNL     1      48.569   9.087  16.713  0.00  0.00    +0.000 A 
ATOM      5  C   UNL     1      48.707   7.810  17.305  0.00  0.00    +0.000 A 
ATOM      6  N   UNL     1      48.644   7.465  18.614  0.00  0.00    +0.000 NA
ATOM      7  C   UNL     1      48.745   6.132  18.853  0.00  0.00    +0.000 A 
ATOM      8  C   UNL     1      48.936   5.140  17.894  0.00  0.00    +0.000 A 
ATOM      9  C   UNL     1      49.034   5.519  16.554  0.00  0.00    +0.000 A 
ATOM     10  C   UNL     1      48.881   6.882  16.277  0.00  0.00    +0.000 A 
BRANCH   8  11
ATOM     11  C   UNL     1      48.987   3.725  18.348  0.00  0.00    +0.000 C 
ATOM     12  N   UNL     1      48.389   3.405  19.542  0.00  0.00    +0.000 N 
ATOM     13  O   UNL     1      49.548   2.868  17.696  0.00  0.00    +0.000 OA
ATOM     14  H   UNL     1      47.975   4.057  20.184  0.00  0.00    +0.000 HD
ATOM     15  H   UNL     1      48.468   2.440  19.837  0.00  0.00    +0.000 HD
ENDBRANCH   8  11
ENDBRANCH   1   2
BRANCH   1  19
ATOM     16  C   UNL     1      44.521   5.756  12.940  0.00  0.00    +0.000 A 
ATOM     17  C   UNL     1      45.426   4.858  13.505  0.00  0.00    +0.000 A 
ATOM     18  C   UNL     1      46.745   5.235  13.788  0.00  0.00    +0.000 A 
ATOM     19  C   UNL     1      47.212   6.520  13.483  0.00  0.00    +0.000 A 
ATOM     20  C   UNL     1      46.310   7.421  12.903  0.00  0.00    +0.000 A 
ATOM     21  C   UNL     1      44.989   7.036  12.628  0.00  0.00    +0.000 A 
BRANCH  16  22
ATOM     22  N   UNL     1      43.179   5.461  12.728  0.00  0.00    +0.000 N 
ATOM     23  H   UNL     1      42.525   6.002  13.291  0.00  0.00    +0.000 HD
BRANCH  22  24
ATOM     24  C   UNL     1      42.727   5.017  11.418  0.00  0.00    +0.000 C 
BRANCH  24  25
ATOM     25  C   UNL     1      43.907   4.498  10.598  0.00  0.00    +0.000 C 
BRANCH  25  26
ATOM     26  C   UNL     1      43.919   2.970  10.614  0.00  0.00    +0.000 C 
BRANCH  26  27
ATOM     27  N   UNL     1      43.031   2.459  11.651  0.00  0.00    +0.000 NA
ATOM     28  H   UNL     1      42.328   1.854  11.229  0.00  0.00    +0.000 HD
ATOM     29  H   UNL     1      42.523   3.230  12.082  0.00  0.00    +0.000 HD
ENDBRANCH  26  27
ENDBRANCH  25  26
ENDBRANCH  24  25
ENDBRANCH  22  24
ENDBRANCH  16  22
ENDBRANCH   1  19
TORSDOF 8
ENDMDL
MODEL 8
REMARK VINA RESULT:    -6.107      3.150      4.708
REMARK INTER + INTRA:          -9.610
REMARK INTER:                  -8.341
REMARK INTRA:                  -1.269
REMARK UNBOUND:                -0.825
REMARK  Name = 
REMARK  8 active torsions:
REMARK  status: ('A' for Active; 'I' for Inactive)
REMARK    1  A    between atoms: N_1  and  C_2
REMARK    2  A    between atoms: C_2  and  C_3
REMARK    3  A    between atoms: C_3  and  C_4
REMARK    4  A    between atoms: C_4  and  N_5
REMARK    5  A    between atoms: N_5  and  C_6
REMARK    6  A    between atoms: C_9  and  C_10
REMARK    7  A    between atoms: C_10  and  N_11
REMARK    8  A    between atoms: C_17  and  C_18
REMARK                            x       y       z     vdW  Elec       q    Type
REMARK                         _______ _______ _______ _____ _____    ______ ____
ROOT
ATOM      1  C   UNL     1      49.352   8.047  14.532  0.00  0.00    +0.000 C 
ENDROOT
BRANCH   1   2
ATOM      2  N   UNL     1      49.097   8.016  15.974  0.00  0.00    +0.000 N 
ATOM      3  C   UNL     1      48.977   9.132  16.770  0.00  0.00    +0.000 A 
ATOM      4  C   UNL     1      48.468   8.733  17.989  0.00  0.00    +0.000 A 
ATOM      5  C   UNL     1      48.274   7.334  17.932  0.00  0.00    +0.000 A 
ATOM      6  N   UNL     1      47.729   6.509  18.859  0.00  0.00    +0.000 NA
ATOM      7  C   UNL     1      47.617   5.214  18.467  0.00  0.00    +0.000 A 
ATOM      8  C   UNL     1      48.039   4.687  17.249  0.00  0.00    +0.000 A 
ATOM      9  C   UNL     1      48.632   5.545  16.321  0.00  0.00    +0.000 A 
ATOM     10  C   UNL     1      48.710   6.896  16.681  0.00  0.00    +0.000 A 
BRANCH   8  11
ATOM     11  C   UNL     1      47.799   3.243  16.988  0.00  0.00    +0.000 C 
ATOM     12  N   UNL     1      46.876   2.588  17.764  0.00  0.00    +0.000 N 
ATOM     13  O   UNL     1      48.405   2.644  16.121  0.00  0.00    +0.000 OA
ATOM     14  H   UNL     1      46.390   2.977  18.552  0.00  0.00    +0.000 HD
ATOM     15  H   UNL     1      46.758   1.599  17.582  0.00  0.00    +0.000 HD
ENDBRANCH   8  11
ENDBRANCH   1   2
BRANCH   1  19
ATOM     16  C   UNL     1      45.868   7.064  12.106  0.00  0.00    +0.000 A 
ATOM     17  C   UNL     1      45.874   8.195  12.920  0.00  0.00    +0.000 A 
ATOM     18  C   UNL     1      46.992   8.529  13.695  0.00  0.00    +0.000 A 
ATOM     19  C   UNL     1      48.134   7.718  13.705  0.00  0.00    +0.000 A 
ATOM     20  C   UNL     1      48.127   6.573  12.900  0.00  0.00    +0.000 A 
ATOM     21  C   UNL     1      47.004   6.249  12.122  0.00  0.00    +0.000 A 
BRANCH  16  22
ATOM     22  N   UNL     1      44.822   6.741  11.248  0.00  0.00    +0.000 N 
ATOM     23  H   UNL     1      44.422   7.529  10.741  0.00  0.00    +0.000 HD
BRANCH  22  24
ATOM     24  C   UNL     1      44.785   5.438  10.600  0.00  0.00    +0.000 C 
BRANCH  24  25
ATOM     25  C   UNL     1      43.785   4.524  11.304  0.00  0.00    +0.000 C 
BRANCH  25  26
ATOM     26  C   UNL     1      42.605   5.345  11.822  0.00  0.00    +0.000 C 
BRANCH  26  27
ATOM     27  N   UNL     1      42.645   5.444  13.275  0.00  0.00    +0.000 NA
ATOM     28  H   UNL     1      43.396   4.856  13.635  0.00  0.00    +0.000 HD
ATOM     29  H   UNL     1      41.781   5.078  13.671  0.00  0.00    +0.000 HD
ENDBRANCH  26  27
ENDBRANCH  25  26
ENDBRANCH  24  25
ENDBRANCH  22  24
ENDBRANCH  16  22
ENDBRANCH   1  19
TORSDOF 8
ENDMDL
MODEL 9
REMARK VINA RESULT:    -6.030      2.435      3.080
REMARK INTER + INTRA:          -9.500
REMARK INTER:                  -8.804
REMARK INTRA:                  -0.696
REMARK UNBOUND:                -0.825
REMARK  Name = 
REMARK  8 active torsions:
REMARK  status: ('A' for Active; 'I' for Inactive)
REMARK    1  A    between atoms: N_1  and  C_2
REMARK    2  A    between atoms: C_2  and  C_3
REMARK    3  A    between atoms: C_3  and  C_4
REMARK    4  A    between atoms: C_4  and  N_5
REMARK    5  A    between atoms: N_5  and  C_6
REMARK    6  A    between atoms: C_9  and  C_10
REMARK    7  A    between atoms: C_10  and  N_11
REMARK    8  A    between atoms: C_17  and  C_18
REMARK                            x       y       z     vdW  Elec       q    Type
REMARK                         _______ _______ _______ _____ _____    ______ ____
ROOT
ATOM      1  C   UNL     1      44.828   6.615  12.747  0.00  0.00    +0.000 C 
ENDROOT
BRANCH   1   2
ATOM      2  N   UNL     1      45.571   7.840  12.443  0.00  0.00    +0.000 N 
ATOM      3  C   UNL     1      45.019   8.972  11.889  0.00  0.00    +0.000 A 
ATOM      4  C   UNL     1      45.936   9.997  12.009  0.00  0.00    +0.000 A 
ATOM      5  C   UNL     1      47.079   9.470  12.653  0.00  0.00    +0.000 A 
ATOM      6  N   UNL     1      48.205  10.111  13.052  0.00  0.00    +0.000 NA
ATOM      7  C   UNL     1      49.095   9.331  13.715  0.00  0.00    +0.000 A 
ATOM      8  C   UNL     1      48.959   7.968  13.971  0.00  0.00    +0.000 A 
ATOM      9  C   UNL     1      47.808   7.318  13.522  0.00  0.00    +0.000 A 
ATOM     10  C   UNL     1      46.851   8.113  12.882  0.00  0.00    +0.000 A 
BRANCH   8  11
ATOM     11  C   UNL     1      50.030   7.289  14.746  0.00  0.00    +0.000 C 
ATOM     12  N   UNL     1      51.329   7.690  14.549  0.00  0.00    +0.000 N 
ATOM     13  O   UNL     1      49.779   6.394  15.529  0.00  0.00    +0.000 OA
ATOM     14  H   UNL     1      51.638   8.360  13.867  0.00  0.00    +0.000 HD
ATOM     15  H   UNL     1      52.037   7.186  15.068  0.00  0.00    +0.000 HD
ENDBRANCH   8  11
ENDBRANCH   1   2
BRANCH   1  19
ATOM     16  C   UNL     1      44.795   3.815   9.408  0.00  0.00    +0.000 A 
ATOM     17  C   UNL     1      43.998   3.596  10.530  0.00  0.00    +0.000 A 
ATOM     18  C   UNL     1      43.990   4.495  11.605  0.00  0.00    +0.000 A 
ATOM     19  C   UNL     1      44.809   5.631  11.604  0.00  0.00    +0.000 A 
ATOM     20  C   UNL     1      45.622   5.848  10.484  0.00  0.00    +0.000 A 
ATOM     21  C   UNL     1      45.619   4.944   9.410  0.00  0.00    +0.000 A 
BRANCH  16  22
ATOM     22  N   UNL     1      44.768   3.006   8.277  0.00  0.00    +0.000 N 
ATOM     23  H   UNL     1      44.912   3.494   7.394  0.00  0.00    +0.000 HD
BRANCH  22  24
ATOM     24  C   UNL     1      45.212   1.622   8.359  0.00  0.00    +0.000 C 
BRANCH  24  25
ATOM     25  C   UNL     1      46.662   1.503   7.895  0.00  0.00    +0.000 C 
BRANCH  25  26
ATOM     26  C   UNL     1      46.924   2.478   6.749  0.00  0.00    +0.000 C 
BRANCH  26  27
ATOM     27  N   UNL     1      48.346   2.529   6.432  0.00  0.00    +0.000 NA
ATOM     28  H   UNL     1      48.511   3.245   5.724  0.00  0.00    +0.000 HD
ATOM     29  H   UNL     1      48.640   1.646   6.018  0.00  0.00    +0.000 HD
ENDBRANCH  26  27
ENDBRANCH  25  26
ENDBRANCH  24  25
ENDBRANCH  22  24
ENDBRANCH  16  22
ENDBRANCH   1  19
TORSDOF 8
ENDMDL
