MODEL 1
REMARK VINA RESULT:    -8.986      0.000      0.000
REMARK INTER + INTRA:         -12.223
REMARK INTER:                 -11.088
REMARK INTRA:                  -1.135
REMARK UNBOUND:                -1.135
REMARK  Name = 
REMARK  4 active torsions:
REMARK  status: ('A' for Active; 'I' for Inactive)
REMARK    1  A    between atoms: C_2  and  C_4
REMARK    2  A    between atoms: N_8  and  C_9
REMARK    3  A    between atoms: C_9  and  C_10
REMARK    4  A    between atoms: C_14  and  C_15
REMARK                            x       y       z     vdW  Elec       q    Type
REMARK                         _______ _______ _______ _____ _____    ______ ____
ROOT
ATOM      1  C   UNL     1      43.793   4.885  11.351  0.00  0.00    +0.000 C 
ATOM      2  C   UNL     1      42.449   5.124  12.027  0.00  0.00    +0.000 C 
ATOM      3  C   UNL     1      42.960   6.112  11.035  0.00  0.00    +0.000 C 
ENDROOT
BRANCH   1   8
ATOM      4  C   UNL     1      46.588   2.771   7.502  0.00  0.00    +0.000 A 
ATOM      5  C   UNL     1      46.234   4.105   7.679  0.00  0.00    +0.000 A 
ATOM      6  C   UNL     1      45.348   4.446   8.704  0.00  0.00    +0.000 A 
ATOM      7  C   UNL     1      44.826   3.452   9.521  0.00  0.00    +0.000 A 
ATOM      8  N   UNL     1      43.835   3.694  10.481  0.00  0.00    +0.000 N 
ATOM      9  N   UNL     1      45.170   2.156   9.365  0.00  0.00    +0.000 NA
ATOM     10  C   UNL     1      46.034   1.841   8.365  0.00  0.00    +0.000 A 
ATOM     11  H   UNL     1      43.710   2.803  10.959  0.00  0.00    +0.000 HD
BRANCH   4  13
ATOM     12  N   UNL     1      47.372   2.954   5.211  0.00  0.00    +0.000 N 
ATOM     13  C   UNL     1      47.470   2.308   6.409  0.00  0.00    +0.000 C 
ATOM     14  O   UNL     1      48.268   1.398   6.575  0.00  0.00    +0.000 OA
ATOM     15  H   UNL     1      48.035   2.679   4.492  0.00  0.00    +0.000 HD
ATOM     16  H   UNL     1      46.912   3.847   5.097  0.00  0.00    +0.000 HD
ENDBRANCH   4  13
ENDBRANCH   1   8
BRANCH   1  17
ATOM     17  C   UNL     1      45.067   5.060  12.171  0.00  0.00    +0.000 A 
ATOM     18  C   UNL     1      45.550   4.043  13.009  0.00  0.00    +0.000 A 
ATOM     19  C   UNL     1      46.777   4.162  13.658  0.00  0.00    +0.000 A 
ATOM     20  C   UNL     1      47.563   5.296  13.461  0.00  0.00    +0.000 A 
ATOM     21  C   UNL     1      47.138   6.339  12.621  0.00  0.00    +0.000 A 
ATOM     22  C   UNL     1      45.870   6.208  12.020  0.00  0.00    +0.000 A 
BRANCH  21  23
ATOM     23  C   UNL     1      48.022   7.479  12.301  0.00  0.00    +0.000 A 
ATOM     24  C   UNL     1      49.398   7.307  12.102  0.00  0.00    +0.000 A 
ATOM     25  C   UNL     1      50.209   8.380  11.738  0.00  0.00    +0.000 A 
ATOM     26  C   UNL     1      49.619   9.619  11.573  0.00  0.00    +0.000 A 
ATOM     27  N   UNL     1      48.302   9.847  11.757  0.00  0.00    +0.000 NA
ATOM     28  C   UNL     1      47.545   8.780  12.118  0.00  0.00    +0.000 A 
ENDBRANCH  21  23
ENDBRANCH   1  17
TORSDOF 4
ENDMDL
MODEL 2
REMARK VINA RESULT:    -8.750      2.008      3.341
REMARK INTER + INTRA:         -11.931
REMARK INTER:                 -11.294
REMARK INTRA:                  -0.638
REMARK UNBOUND:                -1.135
REMARK  Name = 
REMARK  4 active torsions:
REMARK  status: ('A' for Active; 'I' for Inactive)
REMARK    1  A    between atoms: C_2  and  C_4
REMARK    2  A    between atoms: N_8  and  C_9
REMARK    3  A    between atoms: C_9  and  C_10
REMARK    4  A    between atoms: C_14  and  C_15
REMARK                            x       y       z     vdW  Elec       q    Type
REMARK                         _______ _______ _______ _____ _____    ______ ____
ROOT
ATOM      1  C   UNL     1      43.872   4.949  11.453  0.00  0.00    +0.000 C 
ATOM      2  C   UNL     1      42.702   5.047  12.424  0.00  0.00    +0.000 C 
ATOM      3  C   UNL     1      42.799   6.009  11.290  0.00  0.00    +0.000 C 
ENDROOT
BRANCH   1   8
ATOM      4  C   UNL     1      46.436   2.719   7.511  0.00  0.00    +0.000 A 
ATOM      5  C   UNL     1      46.027   4.043   7.635  0.00  0.00    +0.000 A 
ATOM      6  C   UNL     1      45.215   4.409   8.711  0.00  0.00    +0.000 A 
ATOM      7  C   UNL     1      44.819   3.448   9.632  0.00  0.00    +0.000 A 
ATOM      8  N   UNL     1      43.903   3.706  10.659  0.00  0.00    +0.000 N 
ATOM      9  N   UNL     1      45.217   2.162   9.527  0.00  0.00    +0.000 NA
ATOM     10  C   UNL     1      46.009   1.823   8.476  0.00  0.00    +0.000 A 
ATOM     11  H   UNL     1      43.867   2.844  11.201  0.00  0.00    +0.000 HD
BRANCH   4  13
ATOM     12  N   UNL     1      47.274   2.996   5.248  0.00  0.00    +0.000 N 
ATOM     13  C   UNL     1      47.244   2.226   6.374  0.00  0.00    +0.000 C 
ATOM     14  O   UNL     1      47.877   1.184   6.447  0.00  0.00    +0.000 OA
ATOM     15  H   UNL     1      47.892   2.688   4.504  0.00  0.00    +0.000 HD
ATOM     16  H   UNL     1      46.972   3.961   5.226  0.00  0.00    +0.000 HD
ENDBRANCH   4  13
ENDBRANCH   1   8
BRANCH   1  17
ATOM     17  C   UNL     1      45.256   5.379  11.927  0.00  0.00    +0.000 A 
ATOM     18  C   UNL     1      45.968   6.407  11.289  0.00  0.00    +0.000 A 
ATOM     19  C   UNL     1      47.175   6.877  11.801  0.00  0.00    +0.000 A 
ATOM     20  C   UNL     1      47.685   6.344  12.984  0.00  0.00    +0.000 A 
ATOM     21  C   UNL     1      47.009   5.326  13.674  0.00  0.00    +0.000 A 
ATOM     22  C   UNL     1      45.816   4.839  13.102  0.00  0.00    +0.000 A 
BRANCH  21  23
ATOM     23  C   UNL     1      47.471   4.852  14.995  0.00  0.00    +0.000 A 
ATOM     24  C   UNL     1      48.254   5.659  15.832  0.00  0.00    +0.000 A 
ATOM     25  C   UNL     1      48.629   5.223  17.101  0.00  0.00    +0.000 A 
ATOM     26  C   UNL     1      48.205   3.975  17.515  0.00  0.00    +0.000 A 
ATOM     27  N   UNL     1      47.457   3.151  16.753  0.00  0.00    +0.000 NA
ATOM     28  C   UNL     1      47.116   3.605  15.520  0.00  0.00    +0.000 A 
ENDBRANCH  21  23
ENDBRANCH   1  17
TORSDOF 4
ENDMDL
MODEL 3
REMARK VINA RESULT:    -6.710      4.311      8.243
REMARK INTER + INTRA:          -9.414
REMARK INTER:                  -8.417
REMARK INTRA:                  -0.997
REMARK UNBOUND:                -1.135
REMARK  Name = 
REMARK  4 active torsions:
REMARK  status: ('A' for Active; 'I' for Inactive)
REMARK    1  A    between atoms: C_2  and  C_4
REMARK    2  A    between atoms: N_8  and  C_9
REMARK    3  A    between atoms: C_9  and  C_10
REMARK    4  A    between atoms: C_14  and  C_15
REMARK                            x       y       z     vdW  Elec       q    Type
REMARK                         _______ _______ _______ _____ _____    ______ ____
ROOT
ATOM      1  C   UNL     1      49.043   7.936  12.657  0.00  0.00    +0.000 C 
ATOM      2  C   UNL     1      49.994   8.134  11.482  0.00  0.00    +0.000 C 
ATOM      3  C   UNL     1      49.689   9.281  12.384  0.00  0.00    +0.000 C 
ENDROOT
BRANCH   1   8
ATOM      4  C   UNL     1      48.443   6.772  17.694  0.00  0.00    +0.000 A 
ATOM      5  C   UNL     1      48.503   8.029  17.100  0.00  0.00    +0.000 A 
ATOM      6  C   UNL     1      48.821   8.128  15.744  0.00  0.00    +0.000 A 
ATOM      7  C   UNL     1      49.082   6.977  15.011  0.00  0.00    +0.000 A 
ATOM      8  N   UNL     1      49.534   7.000  13.686  0.00  0.00    +0.000 N 
ATOM      9  N   UNL     1      49.017   5.752  15.575  0.00  0.00    +0.000 NA
ATOM     10  C   UNL     1      48.704   5.672  16.895  0.00  0.00    +0.000 A 
ATOM     11  H   UNL     1      49.568   6.022  13.404  0.00  0.00    +0.000 HD
BRANCH   4  13
ATOM     12  N   UNL     1      47.146   5.738  19.468  0.00  0.00    +0.000 N 
ATOM     13  C   UNL     1      48.174   6.571  19.135  0.00  0.00    +0.000 C 
ATOM     14  O   UNL     1      48.858   7.110  19.992  0.00  0.00    +0.000 OA
ATOM     15  H   UNL     1      47.020   5.547  20.458  0.00  0.00    +0.000 HD
ATOM     16  H   UNL     1      46.718   5.095  18.816  0.00  0.00    +0.000 HD
ENDBRANCH   4  13
ENDBRANCH   1   8
BRANCH   1  17
ATOM     17  C   UNL     1      47.554   7.771  12.375  0.00  0.00    +0.000 A 
ATOM     18  C   UNL     1      46.640   8.812  12.606  0.00  0.00    +0.000 A 
ATOM     19  C   UNL     1      45.303   8.698  12.231  0.00  0.00    +0.000 A 
ATOM     20  C   UNL     1      44.855   7.544  11.590  0.00  0.00    +0.000 A 
ATOM     21  C   UNL     1      45.727   6.477  11.319  0.00  0.00    +0.000 A 
ATOM     22  C   UNL     1      47.061   6.605  11.756  0.00  0.00    +0.000 A 
BRANCH  21  23
ATOM     23  C   UNL     1      45.294   5.311  10.521  0.00  0.00    +0.000 A 
ATOM     24  C   UNL     1      45.685   5.149   9.186  0.00  0.00    +0.000 A 
ATOM     25  C   UNL     1      45.321   4.013   8.465  0.00  0.00    +0.000 A 
ATOM     26  C   UNL     1      44.567   3.047   9.104  0.00  0.00    +0.000 A 
ATOM     27  N   UNL     1      44.154   3.151  10.384  0.00  0.00    +0.000 NA
ATOM     28  C   UNL     1      44.521   4.273  11.053  0.00  0.00    +0.000 A 
ENDBRANCH  21  23
ENDBRANCH   1  17
TORSDOF 4
ENDMDL
MODEL 4
REMARK VINA RESULT:    -6.645      3.661      7.503
REMARK INTER + INTRA:          -9.334
REMARK INTER:                  -9.299
REMARK INTRA:                  -0.035
REMARK UNBOUND:                -1.135
REMARK  Name = 
REMARK  4 active torsions:
REMARK  status: ('A' for Active; 'I' for Inactive)
REMARK    1  A    between atoms: C_2  and  C_4
REMARK    2  A    between atoms: N_8  and  C_9
REMARK    3  A    between atoms: C_9  and  C_10
REMARK    4  A    between atoms: C_14  and  C_15
REMARK                            x       y       z     vdW  Elec       q    Type
REMARK                         _______ _______ _______ _____ _____    ______ ____
ROOT
ATOM      1  C   UNL     1      48.364   7.705  12.775  0.00  0.00    +0.000 C 
ATOM      2  C   UNL     1      49.515   7.078  11.999  0.00  0.00    +0.000 C 
ATOM      3  C   UNL     1      49.292   8.550  11.923  0.00  0.00    +0.000 C 
ENDROOT
BRANCH   1   8
ATOM      4  C   UNL     1      47.967   4.241  16.639  0.00  0.00    +0.000 A 
ATOM      5  C   UNL     1      47.153   4.382  15.520  0.00  0.00    +0.000 A 
ATOM      6  C   UNL     1      47.340   5.476  14.673  0.00  0.00    +0.000 A 
ATOM      7  C   UNL     1      48.325   6.411  14.964  0.00  0.00    +0.000 A 
ATOM      8  N   UNL     1      48.488   7.600  14.241  0.00  0.00    +0.000 N 
ATOM      9  N   UNL     1      49.128   6.280  16.041  0.00  0.00    +0.000 NA
ATOM     10  C   UNL     1      48.934   5.208  16.854  0.00  0.00    +0.000 A 
ATOM     11  H   UNL     1      49.319   8.036  14.639  0.00  0.00    +0.000 HD
BRANCH   4  13
ATOM     12  N   UNL     1      48.861   2.890  18.448  0.00  0.00    +0.000 N 
ATOM     13  C   UNL     1      47.804   3.150  17.625  0.00  0.00    +0.000 C 
ATOM     14  O   UNL     1      46.760   2.522  17.714  0.00  0.00    +0.000 OA
ATOM     15  H   UNL     1      48.710   2.192  19.171  0.00  0.00    +0.000 HD
ATOM     16  H   UNL     1      49.637   3.525  18.575  0.00  0.00    +0.000 HD
ENDBRANCH   4  13
ENDBRANCH   1   8
BRANCH   1  17
ATOM     17  C   UNL     1      46.938   7.471  12.287  0.00  0.00    +0.000 A 
ATOM     18  C   UNL     1      45.961   8.477  12.355  0.00  0.00    +0.000 A 
ATOM     19  C   UNL     1      44.698   8.297  11.796  0.00  0.00    +0.000 A 
ATOM     20  C   UNL     1      44.391   7.111  11.132  0.00  0.00    +0.000 A 
ATOM     21  C   UNL     1      45.334   6.076  11.019  0.00  0.00    +0.000 A 
ATOM     22  C   UNL     1      46.585   6.271  11.639  0.00  0.00    +0.000 A 
BRANCH  21  23
ATOM     23  C   UNL     1      45.065   4.874  10.202  0.00  0.00    +0.000 A 
ATOM     24  C   UNL     1      45.604   4.725   8.917  0.00  0.00    +0.000 A 
ATOM     25  C   UNL     1      45.395   3.559   8.183  0.00  0.00    +0.000 A 
ATOM     26  C   UNL     1      44.644   2.551   8.759  0.00  0.00    +0.000 A 
ATOM     27  N   UNL     1      44.094   2.640   9.987  0.00  0.00    +0.000 NA
ATOM     28  C   UNL     1      44.313   3.792  10.670  0.00  0.00    +0.000 A 
ENDBRANCH  21  23
ENDBRANCH   1  17
TORSDOF 4
ENDMDL
MODEL 5
REMARK VINA RESULT:    -6.551      2.679      6.868
REMARK INTER + INTRA:          -9.219
REMARK INTER:                  -8.202
REMARK INTRA:                  -1.017
REMARK UNBOUND:                -1.135
REMARK  Name = 
REMARK  4 active torsions:
REMARK  status: ('A' for Active; 'I' for Inactive)
REMARK    1  A    between atoms: C_2  and  C_4
REMARK    2  A    between atoms: N_8  and  C_9
REMARK    3  A    between atoms: C_9  and  C_10
REMARK    4  A    between atoms: C_14  and  C_15
REMARK                            x       y       z     vdW  Elec       q    Type
REMARK                         _______ _______ _______ _____ _____    ______ ____
ROOT
ATOM      1  C   UNL     1      46.100   5.173  13.364  0.00  0.00    +0.000 C 
ATOM      2  C   UNL     1      46.021   4.292  14.605  0.00  0.00    +0.000 C 
ATOM      3  C   UNL     1      47.222   4.217  13.724  0.00  0.00    +0.000 C 
ENDROOT
BRANCH   1   8
ATOM      4  C   UNL     1      48.227   9.576  11.582  0.00  0.00    +0.000 A 
ATOM      5  C   UNL     1      48.812   8.319  11.691  0.00  0.00    +0.000 A 
ATOM      6  C   UNL     1      48.115   7.296  12.339  0.00  0.00    +0.000 A 
ATOM      7  C   UNL     1      46.858   7.550  12.872  0.00  0.00    +0.000 A 
ATOM      8  N   UNL     1      46.154   6.620  13.647  0.00  0.00    +0.000 N 
ATOM      9  N   UNL     1      46.276   8.763  12.763  0.00  0.00    +0.000 NA
ATOM     10  C   UNL     1      46.966   9.747  12.128  0.00  0.00    +0.000 A 
ATOM     11  H   UNL     1      45.253   7.060  13.831  0.00  0.00    +0.000 HD
BRANCH   4  13
ATOM     12  N   UNL     1      50.243  10.883  11.229  0.00  0.00    +0.000 N 
ATOM     13  C   UNL     1      48.912  10.735  10.968  0.00  0.00    +0.000 C 
ATOM     14  O   UNL     1      48.317  11.516  10.241  0.00  0.00    +0.000 OA
ATOM     15  H   UNL     1      50.719  11.637  10.741  0.00  0.00    +0.000 HD
ATOM     16  H   UNL     1      50.819  10.148  11.616  0.00  0.00    +0.000 HD
ENDBRANCH   4  13
ENDBRANCH   1   8
BRANCH   1  17
ATOM     17  C   UNL     1      45.213   4.839  12.170  0.00  0.00    +0.000 A 
ATOM     18  C   UNL     1      43.938   5.406  12.017  0.00  0.00    +0.000 A 
ATOM     19  C   UNL     1      43.185   5.193  10.865  0.00  0.00    +0.000 A 
ATOM     20  C   UNL     1      43.705   4.426   9.824  0.00  0.00    +0.000 A 
ATOM     21  C   UNL     1      44.981   3.846   9.914  0.00  0.00    +0.000 A 
ATOM     22  C   UNL     1      45.695   4.040  11.114  0.00  0.00    +0.000 A 
BRANCH  21  23
ATOM     23  C   UNL     1      45.593   3.147   8.766  0.00  0.00    +0.000 A 
ATOM     24  C   UNL     1      46.064   3.848   7.647  0.00  0.00    +0.000 A 
ATOM     25  C   UNL     1      46.696   3.181   6.598  0.00  0.00    +0.000 A 
ATOM     26  C   UNL     1      46.851   1.812   6.694  0.00  0.00    +0.000 A 
ATOM     27  N   UNL     1      46.412   1.083   7.741  0.00  0.00    +0.000 NA
ATOM     28  C   UNL     1      45.795   1.764   8.739  0.00  0.00    +0.000 A 
ENDBRANCH  21  23
ENDBRANCH   1  17
TORSDOF 4
ENDMDL
MODEL 6
REMARK VINA RESULT:    -6.216      3.331      5.834
REMARK INTER + INTRA:          -8.805
REMARK INTER:                  -8.388
REMARK INTRA:                  -0.417
REMARK UNBOUND:                -1.135
REMARK  Name = 
REMARK  4 active torsions:
REMARK  status: ('A' for Active; 'I' for Inactive)
REMARK    1  A    between atoms: C_2  and  C_4
REMARK    2  A    between atoms: N_8  and  C_9
REMARK    3  A    between atoms: C_9  and  C_10
REMARK    4  A    between atoms: C_14  and  C_15
REMARK                            x       y       z     vdW  Elec       q    Type
REMARK                         _______ _______ _______ _____ _____    ______ ____
ROOT
ATOM      1  C   UNL     1      47.403   8.488  13.063  0.00  0.00    +0.000 C 
ATOM      2  C   UNL     1      47.431   9.997  12.855  0.00  0.00    +0.000 C 
ATOM      3  C   UNL     1      47.938   9.096  11.781  0.00  0.00    +0.000 C 
ENDROOT
BRANCH   1   8
ATOM      4  C   UNL     1      44.527   4.507  11.339  0.00  0.00    +0.000 A 
ATOM      5  C   UNL     1      45.434   5.288  10.629  0.00  0.00    +0.000 A 
ATOM      6  C   UNL     1      45.995   6.410  11.242  0.00  0.00    +0.000 A 
ATOM      7  C   UNL     1      45.634   6.737  12.543  0.00  0.00    +0.000 A 
ATOM      8  N   UNL     1      46.049   7.914  13.179  0.00  0.00    +0.000 N 
ATOM      9  N   UNL     1      44.763   5.981  13.245  0.00  0.00    +0.000 NA
ATOM     10  C   UNL     1      44.228   4.891  12.635  0.00  0.00    +0.000 A 
ATOM     11  H   UNL     1      45.688   7.839  14.129  0.00  0.00    +0.000 HD
BRANCH   4  13
ATOM     12  N   UNL     1      44.147   3.008   9.467  0.00  0.00    +0.000 N 
ATOM     13  C   UNL     1      43.836   3.337  10.754  0.00  0.00    +0.000 C 
ATOM     14  O   UNL     1      43.037   2.679  11.402  0.00  0.00    +0.000 OA
ATOM     15  H   UNL     1      43.726   2.159   9.102  0.00  0.00    +0.000 HD
ATOM     16  H   UNL     1      44.960   3.364   8.983  0.00  0.00    +0.000 HD
ENDBRANCH   4  13
ENDBRANCH   1   8
BRANCH   1  17
ATOM     17  C   UNL     1      48.392   7.865  14.043  0.00  0.00    +0.000 A 
ATOM     18  C   UNL     1      49.580   8.518  14.407  0.00  0.00    +0.000 A 
ATOM     19  C   UNL     1      50.416   8.002  15.394  0.00  0.00    +0.000 A 
ATOM     20  C   UNL     1      50.067   6.828  16.060  0.00  0.00    +0.000 A 
ATOM     21  C   UNL     1      48.883   6.140  15.749  0.00  0.00    +0.000 A 
ATOM     22  C   UNL     1      48.085   6.663  14.711  0.00  0.00    +0.000 A 
BRANCH  21  23
ATOM     23  C   UNL     1      48.439   4.974  16.540  0.00  0.00    +0.000 A 
ATOM     24  C   UNL     1      49.170   4.514  17.643  0.00  0.00    +0.000 A 
ATOM     25  C   UNL     1      48.706   3.452  18.419  0.00  0.00    +0.000 A 
ATOM     26  C   UNL     1      47.502   2.868  18.073  0.00  0.00    +0.000 A 
ATOM     27  N   UNL     1      46.758   3.262  17.019  0.00  0.00    +0.000 NA
ATOM     28  C   UNL     1      47.244   4.293  16.283  0.00  0.00    +0.000 A 
ENDBRANCH  21  23
ENDBRANCH   1  17
TORSDOF 4
ENDMDL
MODEL 7
REMARK VINA RESULT:    -6.087      2.525      4.374
REMARK INTER + INTRA:          -8.646
REMARK INTER:                  -7.810
REMARK INTRA:                  -0.836
REMARK UNBOUND:                -1.135
REMARK  Name = 
REMARK  4 active torsions:
REMARK  status: ('A' for Active; 'I' for Inactive)
REMARK    1  A    between atoms: C_2  and  C_4
REMARK    2  A    between atoms: N_8  and  C_9
REMARK    3  A    between atoms: C_9  and  C_10
REMARK    4  A    between atoms: C_14  and  C_15
REMARK                            x       y       z     vdW  Elec       q    Type
REMARK                         _______ _______ _______ _____ _____    ______ ____
ROOT
ATOM      1  C   UNL     1      45.339   8.312  11.878  0.00  0.00    +0.000 C 
ATOM      2  C   UNL     1      44.711   9.552  12.505  0.00  0.00    +0.000 C 
ATOM      3  C   UNL     1      45.288   9.632  11.132  0.00  0.00    +0.000 C 
ENDROOT
BRANCH   1   8
ATOM      4  C   UNL     1      45.081   3.614   9.654  0.00  0.00    +0.000 A 
ATOM      5  C   UNL     1      45.732   4.753   9.191  0.00  0.00    +0.000 A 
ATOM      6  C   UNL     1      45.554   5.963   9.866  0.00  0.00    +0.000 A 
ATOM      7  C   UNL     1      44.724   6.015  10.979  0.00  0.00    +0.000 A 
ATOM      8  N   UNL     1      44.391   7.209  11.628  0.00  0.00    +0.000 N 
ATOM      9  N   UNL     1      44.095   4.914  11.443  0.00  0.00    +0.000 NA
ATOM     10  C   UNL     1      44.281   3.744  10.776  0.00  0.00    +0.000 A 
ATOM     11  H   UNL     1      43.835   6.924  12.434  0.00  0.00    +0.000 HD
BRANCH   4  13
ATOM     12  N   UNL     1      44.219   1.371   9.300  0.00  0.00    +0.000 N 
ATOM     13  C   UNL     1      45.160   2.304   8.971  0.00  0.00    +0.000 C 
ATOM     14  O   UNL     1      46.017   2.072   8.132  0.00  0.00    +0.000 OA
ATOM     15  H   UNL     1      44.237   0.505   8.770  0.00  0.00    +0.000 HD
ATOM     16  H   UNL     1      43.366   1.592   9.795  0.00  0.00    +0.000 HD
ENDBRANCH   4  13
ENDBRANCH   1   8
BRANCH   1  17
ATOM     17  C   UNL     1      46.684   7.824  12.406  0.00  0.00    +0.000 A 
ATOM     18  C   UNL     1      47.893   8.408  11.995  0.00  0.00    +0.000 A 
ATOM     19  C   UNL     1      49.106   8.041  12.573  0.00  0.00    +0.000 A 
ATOM     20  C   UNL     1      49.133   7.096  13.598  0.00  0.00    +0.000 A 
ATOM     21  C   UNL     1      47.953   6.491  14.061  0.00  0.00    +0.000 A 
ATOM     22  C   UNL     1      46.749   6.848  13.420  0.00  0.00    +0.000 A 
BRANCH  21  23
ATOM     23  C   UNL     1      47.956   5.593  15.234  0.00  0.00    +0.000 A 
ATOM     24  C   UNL     1      48.707   5.887  16.380  0.00  0.00    +0.000 A 
ATOM     25  C   UNL     1      48.651   5.064  17.504  0.00  0.00    +0.000 A 
ATOM     26  C   UNL     1      47.831   3.952  17.459  0.00  0.00    +0.000 A 
ATOM     27  N   UNL     1      47.092   3.614  16.383  0.00  0.00    +0.000 NA
ATOM     28  C   UNL     1      47.177   4.435  15.305  0.00  0.00    +0.000 A 
ENDBRANCH  21  23
ENDBRANCH   1  17
TORSDOF 4
ENDMDL
MODEL 8
REMARK VINA RESULT:    -6.084      3.728      6.111
REMARK INTER + INTRA:          -8.643
REMARK INTER:                  -8.136
REMARK INTRA:                  -0.506
REMARK UNBOUND:                -1.135
REMARK  Name = 
REMARK  4 active torsions:
REMARK  status: ('A' for Active; 'I' for Inactive)
REMARK    1  A    between atoms: C_2  and  C_4
REMARK    2  A    between atoms: N_8  and  C_9
REMARK    3  A    between atoms: C_9  and  C_10
REMARK    4  A    between atoms: C_14  and  C_15
REMARK                            x       y       z     vdW  Elec       q    Type
REMARK                         _______ _______ _______ _____ _____    ______ ____
ROOT
ATOM      1  C   UNL     1      47.953   8.667  13.342  0.00  0.00    +0.000 C 
ATOM      2  C   UNL     1      48.560   9.908  12.698  0.00  0.00    +0.000 C 
ATOM      3  C   UNL     1      49.026   8.556  12.275  0.00  0.00    +0.000 C 
ENDROOT
BRANCH   1   8
ATOM      4  C   UNL     1      44.678   5.335  11.049  0.00  0.00    +0.000 A 
ATOM      5  C   UNL     1      45.931   5.751  10.612  0.00  0.00    +0.000 A 
ATOM      6  C   UNL     1      46.591   6.772  11.300  0.00  0.00    +0.000 A 
ATOM      7  C   UNL     1      45.983   7.363  12.401  0.00  0.00    +0.000 A 
ATOM      8  N   UNL     1      46.517   8.475  13.063  0.00  0.00    +0.000 N 
ATOM      9  N   UNL     1      44.772   6.960  12.841  0.00  0.00    +0.000 NA
ATOM     10  C   UNL     1      44.145   5.965  12.161  0.00  0.00    +0.000 A 
ATOM     11  H   UNL     1      45.896   8.633  13.855  0.00  0.00    +0.000 HD
BRANCH   4  13
ATOM     12  N   UNL     1      43.918   4.305   8.985  0.00  0.00    +0.000 N 
ATOM     13  C   UNL     1      43.878   4.306  10.349  0.00  0.00    +0.000 C 
ATOM     14  O   UNL     1      43.226   3.476  10.965  0.00  0.00    +0.000 OA
ATOM     15  H   UNL     1      43.428   3.548   8.518  0.00  0.00    +0.000 HD
ATOM     16  H   UNL     1      44.615   4.803   8.449  0.00  0.00    +0.000 HD
ENDBRANCH   4  13
ENDBRANCH   1   8
BRANCH   1  17
ATOM     17  C   UNL     1      48.322   8.335  14.784  0.00  0.00    +0.000 A 
ATOM     18  C   UNL     1      48.208   9.284  15.811  0.00  0.00    +0.000 A 
ATOM     19  C   UNL     1      48.428   8.939  17.143  0.00  0.00    +0.000 A 
ATOM     20  C   UNL     1      48.743   7.624  17.480  0.00  0.00    +0.000 A 
ATOM     21  C   UNL     1      48.855   6.628  16.496  0.00  0.00    +0.000 A 
ATOM     22  C   UNL     1      48.675   7.022  15.154  0.00  0.00    +0.000 A 
BRANCH  21  23
ATOM     23  C   UNL     1      49.053   5.209  16.855  0.00  0.00    +0.000 A 
ATOM     24  C   UNL     1      48.063   4.246  16.615  0.00  0.00    +0.000 A 
ATOM     25  C   UNL     1      48.288   2.900  16.901  0.00  0.00    +0.000 A 
ATOM     26  C   UNL     1      49.516   2.540  17.423  0.00  0.00    +0.000 A 
ATOM     27  N   UNL     1      50.504   3.421  17.683  0.00  0.00    +0.000 NA
ATOM     28  C   UNL     1      50.246   4.723  17.399  0.00  0.00    +0.000 A 
ENDBRANCH  21  23
ENDBRANCH   1  17
TORSDOF 4
ENDMDL
