MODEL 1
REMARK VINA RESULT:    -6.931      0.000      0.000
REMARK INTER + INTRA:          -9.680
REMARK INTER:                  -9.361
REMARK INTRA:                  -0.318
REMARK UNBOUND:                -0.318
REMARK  Name = 
REMARK  7 active torsions:
REMARK  status: ('A' for Active; 'I' for Inactive)
REMARK    1  A    between atoms: C_1  and  N_2
REMARK    2  A    between atoms: C_4  and  N_5
REMARK    3  A    between atoms: C_4  and  C_16
REMARK    4  A    between atoms: N_5  and  C_6
REMARK    5  A    between atoms: C_9  and  C_10
REMARK    6  A    between atoms: C_19  and  O_20
REMARK    7  A    between atoms: O_20  and  C_21
REMARK                            x       y       z     vdW  Elec       q    Type
REMARK                         _______ _______ _______ _____ _____    ______ ____
ROOT
ATOM      1  C   UNL     1      43.904   9.429  10.869  0.00  0.00    +0.000 C 
ATOM      2  N   UNL     1      44.531   8.223  11.387  0.00  0.00    +0.000 NA
ATOM      3  C   UNL     1      45.198   7.450  10.303  0.00  0.00    +0.000 C 
ATOM      4  C   UNL     1      44.686   6.141  11.006  0.00  0.00    +0.000 C 
ATOM      5  C   UNL     1      43.552   7.115  11.522  0.00  0.00    +0.000 C 
ENDROOT
BRANCH   4   6
ATOM      6  C   UNL     1      45.577   5.410  12.127  0.00  0.00    +0.000 A 
ATOM      7  C   UNL     1      46.839   5.908  12.519  0.00  0.00    +0.000 A 
ATOM      8  C   UNL     1      47.628   5.280  13.494  0.00  0.00    +0.000 A 
ATOM      9  C   UNL     1      47.160   4.137  14.134  0.00  0.00    +0.000 A 
ATOM     10  C   UNL     1      45.937   3.598  13.751  0.00  0.00    +0.000 A 
ATOM     11  C   UNL     1      45.160   4.230  12.775  0.00  0.00    +0.000 A 
BRANCH   9  12
ATOM     12  O   UNL     1      47.814   3.457  15.122  0.00  0.00    +0.000 OA
BRANCH  12  13
ATOM     13  C   UNL     1      47.363   3.733  16.436  0.00  0.00    +0.000 C 
ATOM     14  F   UNL     1      47.774   2.710  17.229  0.00  0.00    +0.000 F 
ATOM     15  F   UNL     1      47.990   4.849  16.885  0.00  0.00    +0.000 F 
ENDBRANCH  12  13
ENDBRANCH   9  12
ENDBRANCH   4   6
BRANCH   4  16
ATOM     16  N   UNL     1      44.146   5.156  10.079  0.00  0.00    +0.000 N 
ATOM     17  H   UNL     1      43.371   5.507   9.525  0.00  0.00    +0.000 HD
BRANCH  16  18
ATOM     18  C   UNL     1      44.942   4.317   9.261  0.00  0.00    +0.000 A 
ATOM     19  N   UNL     1      45.771   4.879   8.354  0.00  0.00    +0.000 NA
ATOM     20  C   UNL     1      46.562   4.058   7.618  0.00  0.00    +0.000 A 
ATOM     21  C   UNL     1      46.593   2.677   7.757  0.00  0.00    +0.000 A 
ATOM     22  C   UNL     1      45.726   2.095   8.680  0.00  0.00    +0.000 A 
ATOM     23  C   UNL     1      44.893   2.921   9.436  0.00  0.00    +0.000 A 
ATOM     24 CL   UNL     1      43.800   2.185  10.554  0.00  0.00    +0.000 Cl
BRANCH  21  25
ATOM     25  C   UNL     1      47.499   1.890   6.899  0.00  0.00    +0.000 C 
ATOM     26  N   UNL     1      48.564   2.537   6.344  0.00  0.00    +0.000 N 
ATOM     27  O   UNL     1      47.285   0.707   6.671  0.00  0.00    +0.000 OA
ATOM     28  H   UNL     1      48.647   3.543   6.305  0.00  0.00    +0.000 HD
ATOM     29  H   UNL     1      49.119   2.003   5.682  0.00  0.00    +0.000 HD
ENDBRANCH  21  25
ENDBRANCH  16  18
ENDBRANCH   4  16
TORSDOF 6
ENDMDL
MODEL 2
REMARK VINA RESULT:    -6.383      4.377      6.909
REMARK INTER + INTRA:          -8.940
REMARK INTER:                  -8.728
REMARK INTRA:                  -0.211
REMARK UNBOUND:                -0.318
REMARK  Name = 
REMARK  7 active torsions:
REMARK  status: ('A' for Active; 'I' for Inactive)
REMARK    1  A    between atoms: C_1  and  N_2
REMARK    2  A    between atoms: C_4  and  N_5
REMARK    3  A    between atoms: C_4  and  C_16
REMARK    4  A    between atoms: N_5  and  C_6
REMARK    5  A    between atoms: C_9  and  C_10
REMARK    6  A    between atoms: C_19  and  O_20
REMARK    7  A    between atoms: O_20  and  C_21
REMARK                            x       y       z     vdW  Elec       q    Type
REMARK                         _______ _______ _______ _____ _____    ______ ____
ROOT
ATOM      1  C   UNL     1      47.877  11.093  12.192  0.00  0.00    +0.000 C 
ATOM      2  N   UNL     1      47.235   9.789  12.144  0.00  0.00    +0.000 NA
ATOM      3  C   UNL     1      47.202   9.152  13.491  0.00  0.00    +0.000 C 
ATOM      4  C   UNL     1      47.509   7.783  12.782  0.00  0.00    +0.000 C 
ATOM      5  C   UNL     1      48.182   8.731  11.710  0.00  0.00    +0.000 C 
ENDROOT
BRANCH   4   6
ATOM      6  C   UNL     1      46.313   6.841  12.266  0.00  0.00    +0.000 A 
ATOM      7  C   UNL     1      46.421   6.083  11.079  0.00  0.00    +0.000 A 
ATOM      8  C   UNL     1      45.386   5.257  10.616  0.00  0.00    +0.000 A 
ATOM      9  C   UNL     1      44.209   5.142  11.349  0.00  0.00    +0.000 A 
ATOM     10  C   UNL     1      44.054   5.900  12.505  0.00  0.00    +0.000 A 
ATOM     11  C   UNL     1      45.090   6.722  12.956  0.00  0.00    +0.000 A 
BRANCH   9  12
ATOM     12  O   UNL     1      43.147   4.348  11.025  0.00  0.00    +0.000 OA
BRANCH  12  13
ATOM     13  C   UNL     1      43.290   2.984  11.383  0.00  0.00    +0.000 C 
ATOM     14  F   UNL     1      43.879   2.350  10.336  0.00  0.00    +0.000 F 
ATOM     15  F   UNL     1      44.152   2.897  12.426  0.00  0.00    +0.000 F 
ENDBRANCH  12  13
ENDBRANCH   9  12
ENDBRANCH   4   6
BRANCH   4  16
ATOM     16  N   UNL     1      48.511   6.982  13.473  0.00  0.00    +0.000 N 
ATOM     17  H   UNL     1      49.368   7.490  13.667  0.00  0.00    +0.000 HD
BRANCH  16  18
ATOM     18  C   UNL     1      48.229   6.137  14.573  0.00  0.00    +0.000 A 
ATOM     19  N   UNL     1      47.598   4.962  14.355  0.00  0.00    +0.000 NA
ATOM     20  C   UNL     1      47.385   4.145  15.417  0.00  0.00    +0.000 A 
ATOM     21  C   UNL     1      47.800   4.427  16.712  0.00  0.00    +0.000 A 
ATOM     22  C   UNL     1      48.435   5.646  16.941  0.00  0.00    +0.000 A 
ATOM     23  C   UNL     1      48.649   6.508  15.865  0.00  0.00    +0.000 A 
ATOM     24 CL   UNL     1      49.409   8.029  16.168  0.00  0.00    +0.000 Cl
BRANCH  21  25
ATOM     25  C   UNL     1      47.511   3.457  17.784  0.00  0.00    +0.000 C 
ATOM     26  N   UNL     1      48.284   3.507  18.906  0.00  0.00    +0.000 N 
ATOM     27  O   UNL     1      46.629   2.618  17.657  0.00  0.00    +0.000 OA
ATOM     28  H   UNL     1      49.160   4.007  18.959  0.00  0.00    +0.000 HD
ATOM     29  H   UNL     1      48.133   2.771  19.590  0.00  0.00    +0.000 HD
ENDBRANCH  21  25
ENDBRANCH  16  18
ENDBRANCH   4  16
TORSDOF 6
ENDMDL
MODEL 3
REMARK VINA RESULT:    -6.134      2.733      3.719
REMARK INTER + INTRA:          -8.604
REMARK INTER:                  -9.706
REMARK INTRA:                   1.102
REMARK UNBOUND:                -0.318
REMARK  Name = 
REMARK  7 active torsions:
REMARK  status: ('A' for Active; 'I' for Inactive)
REMARK    1  A    between atoms: C_1  and  N_2
REMARK    2  A    between atoms: C_4  and  N_5
REMARK    3  A    between atoms: C_4  and  C_16
REMARK    4  A    between atoms: N_5  and  C_6
REMARK    5  A    between atoms: C_9  and  C_10
REMARK    6  A    between atoms: C_19  and  O_20
REMARK    7  A    between atoms: O_20  and  C_21
REMARK                            x       y       z     vdW  Elec       q    Type
REMARK                         _______ _______ _______ _____ _____    ______ ____
ROOT
ATOM      1  C   UNL     1      43.394   3.292  13.721  0.00  0.00    +0.000 C 
ATOM      2  N   UNL     1      44.125   4.436  13.200  0.00  0.00    +0.000 NA
ATOM      3  C   UNL     1      43.290   5.228  12.254  0.00  0.00    +0.000 C 
ATOM      4  C   UNL     1      44.579   5.421  11.376  0.00  0.00    +0.000 C 
ATOM      5  C   UNL     1      44.991   4.054  12.055  0.00  0.00    +0.000 C 
ENDROOT
BRANCH   4   6
ATOM      6  C   UNL     1      45.558   6.674  11.619  0.00  0.00    +0.000 A 
ATOM      7  C   UNL     1      45.061   7.978  11.833  0.00  0.00    +0.000 A 
ATOM      8  C   UNL     1      45.902   9.079  12.046  0.00  0.00    +0.000 A 
ATOM      9  C   UNL     1      47.282   8.904  12.078  0.00  0.00    +0.000 A 
ATOM     10  C   UNL     1      47.809   7.639  11.838  0.00  0.00    +0.000 A 
ATOM     11  C   UNL     1      46.961   6.548  11.623  0.00  0.00    +0.000 A 
BRANCH   9  12
ATOM     12  O   UNL     1      48.202   9.885  12.312  0.00  0.00    +0.000 OA
BRANCH  12  13
ATOM     13  C   UNL     1      48.747   9.894  13.620  0.00  0.00    +0.000 C 
ATOM     14  F   UNL     1      47.838   9.309  14.442  0.00  0.00    +0.000 F 
ATOM     15  F   UNL     1      49.850   9.107  13.636  0.00  0.00    +0.000 F 
ENDBRANCH  12  13
ENDBRANCH   9  12
ENDBRANCH   4   6
BRANCH   4  16
ATOM     16  N   UNL     1      44.343   5.245   9.949  0.00  0.00    +0.000 N 
ATOM     17  H   UNL     1      44.175   6.117   9.458  0.00  0.00    +0.000 HD
BRANCH  16  18
ATOM     18  C   UNL     1      45.117   4.401   9.116  0.00  0.00    +0.000 A 
ATOM     19  N   UNL     1      46.029   4.953   8.285  0.00  0.00    +0.000 NA
ATOM     20  C   UNL     1      46.795   4.122   7.535  0.00  0.00    +0.000 A 
ATOM     21  C   UNL     1      46.721   2.737   7.586  0.00  0.00    +0.000 A 
ATOM     22  C   UNL     1      45.769   2.166   8.430  0.00  0.00    +0.000 A 
ATOM     23  C   UNL     1      44.960   3.004   9.198  0.00  0.00    +0.000 A 
ATOM     24 CL   UNL     1      43.763   2.284  10.215  0.00  0.00    +0.000 Cl
BRANCH  21  25
ATOM     25  C   UNL     1      47.610   1.939   6.722  0.00  0.00    +0.000 C 
ATOM     26  N   UNL     1      48.696   2.564   6.184  0.00  0.00    +0.000 N 
ATOM     27  O   UNL     1      47.365   0.766   6.473  0.00  0.00    +0.000 OA
ATOM     28  H   UNL     1      48.808   3.569   6.161  0.00  0.00    +0.000 HD
ATOM     29  H   UNL     1      49.241   2.026   5.516  0.00  0.00    +0.000 HD
ENDBRANCH  21  25
ENDBRANCH  16  18
ENDBRANCH   4  16
TORSDOF 6
ENDMDL
MODEL 4
REMARK VINA RESULT:    -5.953      4.412      7.143
REMARK INTER + INTRA:          -8.359
REMARK INTER:                  -8.659
REMARK INTRA:                   0.299
REMARK UNBOUND:                -0.318
REMARK  Name = 
REMARK  7 active torsions:
REMARK  status: ('A' for Active; 'I' for Inactive)
REMARK    1  A    between atoms: C_1  and  N_2
REMARK    2  A    between atoms: C_4  and  N_5
REMARK    3  A    between atoms: C_4  and  C_16
REMARK    4  A    between atoms: N_5  and  C_6
REMARK    5  A    between atoms: C_9  and  C_10
REMARK    6  A    between atoms: C_19  and  O_20
REMARK    7  A    between atoms: O_20  and  C_21
REMARK                            x       y       z     vdW  Elec       q    Type
REMARK                         _______ _______ _______ _____ _____    ______ ____
ROOT
ATOM      1  C   UNL     1      42.840   4.358  13.629  0.00  0.00    +0.000 C 
ATOM      2  N   UNL     1      43.585   4.273  12.382  0.00  0.00    +0.000 NA
ATOM      3  C   UNL     1      44.959   4.830  12.533  0.00  0.00    +0.000 C 
ATOM      4  C   UNL     1      44.800   5.444  11.095  0.00  0.00    +0.000 C 
ATOM      5  C   UNL     1      43.266   5.408  11.479  0.00  0.00    +0.000 C 
ENDROOT
BRANCH   4   6
ATOM      6  C   UNL     1      45.241   4.610   9.793  0.00  0.00    +0.000 A 
ATOM      7  C   UNL     1      44.850   3.267   9.601  0.00  0.00    +0.000 A 
ATOM      8  C   UNL     1      45.228   2.527   8.472  0.00  0.00    +0.000 A 
ATOM      9  C   UNL     1      45.993   3.123   7.475  0.00  0.00    +0.000 A 
ATOM     10  C   UNL     1      46.425   4.434   7.645  0.00  0.00    +0.000 A 
ATOM     11  C   UNL     1      46.046   5.162   8.777  0.00  0.00    +0.000 A 
BRANCH   9  12
ATOM     12  O   UNL     1      46.393   2.523   6.315  0.00  0.00    +0.000 OA
BRANCH  12  13
ATOM     13  C   UNL     1      47.797   2.415   6.152  0.00  0.00    +0.000 C 
ATOM     14  F   UNL     1      48.215   1.375   6.918  0.00  0.00    +0.000 F 
ATOM     15  F   UNL     1      48.060   2.081   4.864  0.00  0.00    +0.000 F 
ENDBRANCH  12  13
ENDBRANCH   9  12
ENDBRANCH   4   6
BRANCH   4  16
ATOM     16  N   UNL     1      45.280   6.816  10.993  0.00  0.00    +0.000 N 
ATOM     17  H   UNL     1      44.537   7.507  11.043  0.00  0.00    +0.000 HD
BRANCH  16  18
ATOM     18  C   UNL     1      46.407   7.316  11.688  0.00  0.00    +0.000 A 
ATOM     19  N   UNL     1      47.553   6.599  11.683  0.00  0.00    +0.000 NA
ATOM     20  C   UNL     1      48.636   7.122  12.312  0.00  0.00    +0.000 A 
ATOM     21  C   UNL     1      48.650   8.362  12.937  0.00  0.00    +0.000 A 
ATOM     22  C   UNL     1      47.464   9.094  12.958  0.00  0.00    +0.000 A 
ATOM     23  C   UNL     1      46.335   8.566  12.331  0.00  0.00    +0.000 A 
ATOM     24 CL   UNL     1      44.863   9.470  12.391  0.00  0.00    +0.000 Cl
BRANCH  21  25
ATOM     25  C   UNL     1      49.891   8.824  13.586  0.00  0.00    +0.000 C 
ATOM     26  N   UNL     1      50.806   7.879  13.945  0.00  0.00    +0.000 N 
ATOM     27  O   UNL     1      50.079  10.011  13.818  0.00  0.00    +0.000 OA
ATOM     28  H   UNL     1      50.597   6.891  13.995  0.00  0.00    +0.000 HD
ATOM     29  H   UNL     1      51.607   8.207  14.475  0.00  0.00    +0.000 HD
ENDBRANCH  21  25
ENDBRANCH  16  18
ENDBRANCH   4  16
TORSDOF 6
ENDMDL
MODEL 5
REMARK VINA RESULT:    -5.833      4.739      7.254
REMARK INTER + INTRA:          -8.197
REMARK INTER:                  -8.026
REMARK INTRA:                  -0.171
REMARK UNBOUND:                -0.318
REMARK  Name = 
REMARK  7 active torsions:
REMARK  status: ('A' for Active; 'I' for Inactive)
REMARK    1  A    between atoms: C_1  and  N_2
REMARK    2  A    between atoms: C_4  and  N_5
REMARK    3  A    between atoms: C_4  and  C_16
REMARK    4  A    between atoms: N_5  and  C_6
REMARK    5  A    between atoms: C_9  and  C_10
REMARK    6  A    between atoms: C_19  and  O_20
REMARK    7  A    between atoms: O_20  and  C_21
REMARK                            x       y       z     vdW  Elec       q    Type
REMARK                         _______ _______ _______ _____ _____    ______ ____
ROOT
ATOM      1  C   UNL     1      50.339  10.951  11.598  0.00  0.00    +0.000 C 
ATOM      2  N   UNL     1      49.235  10.012  11.716  0.00  0.00    +0.000 NA
ATOM      3  C   UNL     1      49.060   9.555  13.123  0.00  0.00    +0.000 C 
ATOM      4  C   UNL     1      48.747   8.124  12.554  0.00  0.00    +0.000 C 
ATOM      5  C   UNL     1      49.652   8.632  11.360  0.00  0.00    +0.000 C 
ENDROOT
BRANCH   4   6
ATOM      6  C   UNL     1      47.241   7.697  12.189  0.00  0.00    +0.000 A 
ATOM      7  C   UNL     1      46.124   8.366  12.735  0.00  0.00    +0.000 A 
ATOM      8  C   UNL     1      44.804   8.005  12.427  0.00  0.00    +0.000 A 
ATOM      9  C   UNL     1      44.559   6.968  11.531  0.00  0.00    +0.000 A 
ATOM     10  C   UNL     1      45.635   6.265  11.000  0.00  0.00    +0.000 A 
ATOM     11  C   UNL     1      46.946   6.631  11.316  0.00  0.00    +0.000 A 
BRANCH   9  12
ATOM     12  O   UNL     1      43.327   6.546  11.123  0.00  0.00    +0.000 OA
BRANCH  12  13
ATOM     13  C   UNL     1      42.752   5.524  11.919  0.00  0.00    +0.000 C 
ATOM     14  F   UNL     1      42.937   4.348  11.264  0.00  0.00    +0.000 F 
ATOM     15  F   UNL     1      43.445   5.437  13.080  0.00  0.00    +0.000 F 
ENDBRANCH  12  13
ENDBRANCH   9  12
ENDBRANCH   4   6
BRANCH   4  16
ATOM     16  N   UNL     1      49.405   7.050  13.286  0.00  0.00    +0.000 N 
ATOM     17  H   UNL     1      50.378   7.245  13.499  0.00  0.00    +0.000 HD
BRANCH  16  18
ATOM     18  C   UNL     1      48.829   6.375  14.390  0.00  0.00    +0.000 A 
ATOM     19  N   UNL     1      47.900   5.420  14.165  0.00  0.00    +0.000 NA
ATOM     20  C   UNL     1      47.401   4.751  15.234  0.00  0.00    +0.000 A 
ATOM     21  C   UNL     1      47.805   4.966  16.545  0.00  0.00    +0.000 A 
ATOM     22  C   UNL     1      48.750   5.963  16.780  0.00  0.00    +0.000 A 
ATOM     23  C   UNL     1      49.264   6.674  15.695  0.00  0.00    +0.000 A 
ATOM     24 CL   UNL     1      50.411   7.928  16.004  0.00  0.00    +0.000 Cl
BRANCH  21  25
ATOM     25  C   UNL     1      47.188   4.172  17.624  0.00  0.00    +0.000 C 
ATOM     26  N   UNL     1      47.196   4.700  18.881  0.00  0.00    +0.000 N 
ATOM     27  O   UNL     1      46.714   3.065  17.403  0.00  0.00    +0.000 OA
ATOM     28  H   UNL     1      47.776   5.481  19.155  0.00  0.00    +0.000 HD
ATOM     29  H   UNL     1      46.854   4.098  19.624  0.00  0.00    +0.000 HD
ENDBRANCH  21  25
ENDBRANCH  16  18
ENDBRANCH   4  16
TORSDOF 6
ENDMDL
MODEL 6
REMARK VINA RESULT:    -5.653      4.734      7.522
REMARK INTER + INTRA:          -7.955
REMARK INTER:                  -8.392
REMARK INTRA:                   0.437
REMARK UNBOUND:                -0.318
REMARK  Name = 
REMARK  7 active torsions:
REMARK  status: ('A' for Active; 'I' for Inactive)
REMARK    1  A    between atoms: C_1  and  N_2
REMARK    2  A    between atoms: C_4  and  N_5
REMARK    3  A    between atoms: C_4  and  C_16
REMARK    4  A    between atoms: N_5  and  C_6
REMARK    5  A    between atoms: C_9  and  C_10
REMARK    6  A    between atoms: C_19  and  O_20
REMARK    7  A    between atoms: O_20  and  C_21
REMARK                            x       y       z     vdW  Elec       q    Type
REMARK                         _______ _______ _______ _____ _____    ______ ____
ROOT
ATOM      1  C   UNL     1      50.014   8.557  11.656  0.00  0.00    +0.000 C 
ATOM      2  N   UNL     1      48.870   7.658  11.664  0.00  0.00    +0.000 NA
ATOM      3  C   UNL     1      47.739   8.229  12.448  0.00  0.00    +0.000 C 
ATOM      4  C   UNL     1      47.464   6.778  12.988  0.00  0.00    +0.000 C 
ATOM      5  C   UNL     1      49.011   6.607  12.704  0.00  0.00    +0.000 C 
ENDROOT
BRANCH   4   6
ATOM      6  C   UNL     1      46.470   5.786  12.206  0.00  0.00    +0.000 A 
ATOM      7  C   UNL     1      45.986   6.083  10.913  0.00  0.00    +0.000 A 
ATOM      8  C   UNL     1      45.118   5.228  10.219  0.00  0.00    +0.000 A 
ATOM      9  C   UNL     1      44.726   4.022  10.792  0.00  0.00    +0.000 A 
ATOM     10  C   UNL     1      45.156   3.712  12.078  0.00  0.00    +0.000 A 
ATOM     11  C   UNL     1      46.018   4.573  12.762  0.00  0.00    +0.000 A 
BRANCH   9  12
ATOM     12  O   UNL     1      43.917   3.091  10.206  0.00  0.00    +0.000 OA
BRANCH  12  13
ATOM     13  C   UNL     1      44.486   2.421   9.094  0.00  0.00    +0.000 C 
ATOM     14  F   UNL     1      44.443   3.276   8.040  0.00  0.00    +0.000 F 
ATOM     15  F   UNL     1      45.796   2.186   9.352  0.00  0.00    +0.000 F 
ENDBRANCH  12  13
ENDBRANCH   9  12
ENDBRANCH   4   6
BRANCH   4  16
ATOM     16  N   UNL     1      47.189   6.732  14.418  0.00  0.00    +0.000 N 
ATOM     17  H   UNL     1      46.217   6.534  14.634  0.00  0.00    +0.000 HD
BRANCH  16  18
ATOM     18  C   UNL     1      48.006   6.064  15.361  0.00  0.00    +0.000 A 
ATOM     19  N   UNL     1      47.795   4.750  15.600  0.00  0.00    +0.000 NA
ATOM     20  C   UNL     1      48.623   4.119  16.470  0.00  0.00    +0.000 A 
ATOM     21  C   UNL     1      49.693   4.730  17.109  0.00  0.00    +0.000 A 
ATOM     22  C   UNL     1      49.901   6.088  16.877  0.00  0.00    +0.000 A 
ATOM     23  C   UNL     1      49.050   6.760  15.999  0.00  0.00    +0.000 A 
ATOM     24 CL   UNL     1      49.300   8.451  15.745  0.00  0.00    +0.000 Cl
BRANCH  21  25
ATOM     25  C   UNL     1      50.525   3.935  18.032  0.00  0.00    +0.000 C 
ATOM     26  N   UNL     1      50.439   4.218  19.363  0.00  0.00    +0.000 N 
ATOM     27  O   UNL     1      51.287   3.073  17.614  0.00  0.00    +0.000 OA
ATOM     28  H   UNL     1      50.020   5.062  19.728  0.00  0.00    +0.000 HD
ATOM     29  H   UNL     1      51.089   3.728  19.970  0.00  0.00    +0.000 HD
ENDBRANCH  21  25
ENDBRANCH  16  18
ENDBRANCH   4  16
TORSDOF 6
ENDMDL
MODEL 7
REMARK VINA RESULT:    -5.578      3.645      5.158
REMARK INTER + INTRA:          -7.853
REMARK INTER:                  -8.015
REMARK INTRA:                   0.161
REMARK UNBOUND:                -0.318
REMARK  Name = 
REMARK  7 active torsions:
REMARK  status: ('A' for Active; 'I' for Inactive)
REMARK    1  A    between atoms: C_1  and  N_2
REMARK    2  A    between atoms: C_4  and  N_5
REMARK    3  A    between atoms: C_4  and  C_16
REMARK    4  A    between atoms: N_5  and  C_6
REMARK    5  A    between atoms: C_9  and  C_10
REMARK    6  A    between atoms: C_19  and  O_20
REMARK    7  A    between atoms: O_20  and  C_21
REMARK                            x       y       z     vdW  Elec       q    Type
REMARK                         _______ _______ _______ _____ _____    ______ ____
ROOT
ATOM      1  C   UNL     1      49.855   9.045  11.571  0.00  0.00    +0.000 C 
ATOM      2  N   UNL     1      49.746   8.241  12.778  0.00  0.00    +0.000 NA
ATOM      3  C   UNL     1      48.963   6.998  12.533  0.00  0.00    +0.000 C 
ATOM      4  C   UNL     1      48.318   7.199  13.952  0.00  0.00    +0.000 C 
ATOM      5  C   UNL     1      48.644   8.717  13.652  0.00  0.00    +0.000 C 
ENDROOT
BRANCH   4   6
ATOM      6  C   UNL     1      48.997   6.557  15.260  0.00  0.00    +0.000 A 
ATOM      7  C   UNL     1      48.315   5.626  16.074  0.00  0.00    +0.000 A 
ATOM      8  C   UNL     1      48.894   5.058  17.218  0.00  0.00    +0.000 A 
ATOM      9  C   UNL     1      50.199   5.388  17.572  0.00  0.00    +0.000 A 
ATOM     10  C   UNL     1      50.889   6.327  16.813  0.00  0.00    +0.000 A 
ATOM     11  C   UNL     1      50.301   6.889  15.676  0.00  0.00    +0.000 A 
BRANCH   9  12
ATOM     12  O   UNL     1      50.885   4.879  18.637  0.00  0.00    +0.000 OA
BRANCH  12  13
ATOM     13  C   UNL     1      51.964   4.024  18.299  0.00  0.00    +0.000 C 
ATOM     14  F   UNL     1      52.510   3.582  19.461  0.00  0.00    +0.000 F 
ATOM     15  F   UNL     1      51.470   2.934  17.662  0.00  0.00    +0.000 F 
ENDBRANCH  12  13
ENDBRANCH   9  12
ENDBRANCH   4   6
BRANCH   4  16
ATOM     16  N   UNL     1      46.879   6.969  13.975  0.00  0.00    +0.000 N 
ATOM     17  H   UNL     1      46.334   7.825  13.950  0.00  0.00    +0.000 HD
BRANCH  16  18
ATOM     18  C   UNL     1      46.220   5.993  13.190  0.00  0.00    +0.000 A 
ATOM     19  N   UNL     1      46.342   4.688  13.523  0.00  0.00    +0.000 NA
ATOM     20  C   UNL     1      45.659   3.775  12.787  0.00  0.00    +0.000 A 
ATOM     21  C   UNL     1      44.819   4.098  11.730  0.00  0.00    +0.000 A 
ATOM     22  C   UNL     1      44.706   5.441  11.374  0.00  0.00    +0.000 A 
ATOM     23  C   UNL     1      45.413   6.394  12.108  0.00  0.00    +0.000 A 
ATOM     24 CL   UNL     1      45.288   8.052  11.637  0.00  0.00    +0.000 Cl
BRANCH  21  25
ATOM     25  C   UNL     1      44.128   3.014  11.007  0.00  0.00    +0.000 C 
ATOM     26  N   UNL     1      44.770   2.455   9.942  0.00  0.00    +0.000 N 
ATOM     27  O   UNL     1      43.006   2.651  11.334  0.00  0.00    +0.000 OA
ATOM     28  H   UNL     1      45.573   2.872   9.492  0.00  0.00    +0.000 HD
ATOM     29  H   UNL     1      44.239   1.779   9.401  0.00  0.00    +0.000 HD
ENDBRANCH  21  25
ENDBRANCH  16  18
ENDBRANCH   4  16
TORSDOF 6
ENDMDL
MODEL 8
REMARK VINA RESULT:    -5.463      4.885      7.470
REMARK INTER + INTRA:          -7.698
REMARK INTER:                  -7.456
REMARK INTRA:                  -0.241
REMARK UNBOUND:                -0.318
REMARK  Name = 
REMARK  7 active torsions:
REMARK  status: ('A' for Active; 'I' for Inactive)
REMARK    1  A    between atoms: C_1  and  N_2
REMARK    2  A    between atoms: C_4  and  N_5
REMARK    3  A    between atoms: C_4  and  C_16
REMARK    4  A    between atoms: N_5  and  C_6
REMARK    5  A    between atoms: C_9  and  C_10
REMARK    6  A    between atoms: C_19  and  O_20
REMARK    7  A    between atoms: O_20  and  C_21
REMARK                            x       y       z     vdW  Elec       q    Type
REMARK                         _______ _______ _______ _____ _____    ______ ____
ROOT
ATOM      1  C   UNL     1      44.364   3.016  11.995  0.00  0.00    +0.000 C 
ATOM      2  N   UNL     1      45.284   4.122  12.210  0.00  0.00    +0.000 NA
ATOM      3  C   UNL     1      46.453   3.702  13.033  0.00  0.00    +0.000 C 
ATOM      4  C   UNL     1      46.370   5.098  13.751  0.00  0.00    +0.000 C 
ATOM      5  C   UNL     1      44.847   4.982  13.339  0.00  0.00    +0.000 C 
ENDROOT
BRANCH   4   6
ATOM      6  C   UNL     1      47.180   6.364  13.179  0.00  0.00    +0.000 A 
ATOM      7  C   UNL     1      46.557   7.613  12.967  0.00  0.00    +0.000 A 
ATOM      8  C   UNL     1      47.250   8.725  12.468  0.00  0.00    +0.000 A 
ATOM      9  C   UNL     1      48.610   8.628  12.189  0.00  0.00    +0.000 A 
ATOM     10  C   UNL     1      49.250   7.404  12.355  0.00  0.00    +0.000 A 
ATOM     11  C   UNL     1      48.548   6.301  12.849  0.00  0.00    +0.000 A 
BRANCH   9  12
ATOM     12  O   UNL     1      49.402   9.644  11.736  0.00  0.00    +0.000 OA
BRANCH  12  13
ATOM     13  C   UNL     1      50.795   9.394  11.811  0.00  0.00    +0.000 C 
ATOM     14  F   UNL     1      51.275   9.388  10.541  0.00  0.00    +0.000 F 
ATOM     15  F   UNL     1      51.389  10.435  12.446  0.00  0.00    +0.000 F 
ENDBRANCH  12  13
ENDBRANCH   9  12
ENDBRANCH   4   6
BRANCH   4  16
ATOM     16  N   UNL     1      46.526   5.019  15.197  0.00  0.00    +0.000 N 
ATOM     17  H   UNL     1      45.667   4.781  15.683  0.00  0.00    +0.000 HD
BRANCH  16  18
ATOM     18  C   UNL     1      47.605   4.367  15.843  0.00  0.00    +0.000 A 
ATOM     19  N   UNL     1      47.656   3.017  15.837  0.00  0.00    +0.000 NA
ATOM     20  C   UNL     1      48.725   2.416  16.417  0.00  0.00    +0.000 A 
ATOM     21  C   UNL     1      49.786   3.101  16.992  0.00  0.00    +0.000 A 
ATOM     22  C   UNL     1      49.726   4.493  17.015  0.00  0.00    +0.000 A 
ATOM     23  C   UNL     1      48.627   5.130  16.438  0.00  0.00    +0.000 A 
ATOM     24 CL   UNL     1      48.551   6.856  16.501  0.00  0.00    +0.000 Cl
BRANCH  21  25
ATOM     25  C   UNL     1      50.895   2.334  17.590  0.00  0.00    +0.000 C 
ATOM     26  N   UNL     1      51.792   3.014  18.359  0.00  0.00    +0.000 N 
ATOM     27  O   UNL     1      51.020   1.135  17.379  0.00  0.00    +0.000 OA
ATOM     28  H   UNL     1      51.870   4.022  18.366  0.00  0.00    +0.000 HD
ATOM     29  H   UNL     1      52.599   2.488  18.681  0.00  0.00    +0.000 HD
ENDBRANCH  21  25
ENDBRANCH  16  18
ENDBRANCH   4  16
TORSDOF 6
ENDMDL
MODEL 9
REMARK VINA RESULT:    -5.226      5.073      8.400
REMARK INTER + INTRA:          -7.378
REMARK INTER:                  -7.319
REMARK INTRA:                  -0.059
REMARK UNBOUND:                -0.318
REMARK  Name = 
REMARK  7 active torsions:
REMARK  status: ('A' for Active; 'I' for Inactive)
REMARK    1  A    between atoms: C_1  and  N_2
REMARK    2  A    between atoms: C_4  and  N_5
REMARK    3  A    between atoms: C_4  and  C_16
REMARK    4  A    between atoms: N_5  and  C_6
REMARK    5  A    between atoms: C_9  and  C_10
REMARK    6  A    between atoms: C_19  and  O_20
REMARK    7  A    between atoms: O_20  and  C_21
REMARK                            x       y       z     vdW  Elec       q    Type
REMARK                         _______ _______ _______ _____ _____    ______ ____
ROOT
ATOM      1  C   UNL     1      49.295  10.014  11.321  0.00  0.00    +0.000 C 
ATOM      2  N   UNL     1      48.496   8.938  11.885  0.00  0.00    +0.000 NA
ATOM      3  C   UNL     1      48.172   9.197  13.316  0.00  0.00    +0.000 C 
ATOM      4  C   UNL     1      48.393   7.663  13.578  0.00  0.00    +0.000 C 
ATOM      5  C   UNL     1      49.344   7.801  12.322  0.00  0.00    +0.000 C 
ENDROOT
BRANCH   4   6
ATOM      6  C   UNL     1      47.171   6.625  13.451  0.00  0.00    +0.000 A 
ATOM      7  C   UNL     1      47.318   5.258  13.773  0.00  0.00    +0.000 A 
ATOM      8  C   UNL     1      46.263   4.341  13.666  0.00  0.00    +0.000 A 
ATOM      9  C   UNL     1      45.006   4.774  13.255  0.00  0.00    +0.000 A 
ATOM     10  C   UNL     1      44.832   6.107  12.898  0.00  0.00    +0.000 A 
ATOM     11  C   UNL     1      45.892   7.012  13.005  0.00  0.00    +0.000 A 
BRANCH   9  12
ATOM     12  O   UNL     1      43.892   3.991  13.146  0.00  0.00    +0.000 OA
BRANCH  12  13
ATOM     13  C   UNL     1      43.519   3.666  11.818  0.00  0.00    +0.000 C 
ATOM     14  F   UNL     1      43.054   2.390  11.828  0.00  0.00    +0.000 F 
ATOM     15  F   UNL     1      42.479   4.456  11.454  0.00  0.00    +0.000 F 
ENDBRANCH  12  13
ENDBRANCH   9  12
ENDBRANCH   4   6
BRANCH   4  16
ATOM     16  N   UNL     1      49.159   7.383  14.785  0.00  0.00    +0.000 N 
ATOM     17  H   UNL     1      50.147   7.598  14.693  0.00  0.00    +0.000 HD
BRANCH  16  18
ATOM     18  C   UNL     1      48.740   7.738  16.090  0.00  0.00    +0.000 A 
ATOM     19  N   UNL     1      48.378   9.015  16.340  0.00  0.00    +0.000 NA
ATOM     20  C   UNL     1      47.931   9.320  17.584  0.00  0.00    +0.000 A 
ATOM     21  C   UNL     1      47.794   8.396  18.611  0.00  0.00    +0.000 A 
ATOM     22  C   UNL     1      48.184   7.082  18.360  0.00  0.00    +0.000 A 
ATOM     23  C   UNL     1      48.662   6.751  17.092  0.00  0.00    +0.000 A 
ATOM     24 CL   UNL     1      49.171   5.125  16.803  0.00  0.00    +0.000 Cl
BRANCH  21  25
ATOM     25  C   UNL     1      47.294   8.849  19.922  0.00  0.00    +0.000 C 
ATOM     26  N   UNL     1      47.502   8.034  20.995  0.00  0.00    +0.000 N 
ATOM     27  O   UNL     1      46.687   9.907  20.036  0.00  0.00    +0.000 OA
ATOM     28  H   UNL     1      47.776   7.064  20.914  0.00  0.00    +0.000 HD
ATOM     29  H   UNL     1      47.067   8.319  21.867  0.00  0.00    +0.000 HD
ENDBRANCH  21  25
ENDBRANCH  16  18
ENDBRANCH   4  16
TORSDOF 6
ENDMDL
