MODEL 1
REMARK VINA RESULT:    -7.710      0.000      0.000
REMARK INTER + INTRA:         -11.471
REMARK INTER:                 -10.414
REMARK INTRA:                  -1.057
REMARK UNBOUND:                -1.057
REMARK  Name = 
REMARK  7 active torsions:
REMARK  status: ('A' for Active; 'I' for Inactive)
REMARK    1  A    between atoms: C_1  and  N_2
REMARK    2  A    between atoms: N_2  and  C_3
REMARK    3  A    between atoms: C_3  and  C_4
REMARK    4  A    between atoms: C_7  and  C_8
REMARK    5  A    between atoms: C_8  and  N_9
REMARK    6  A    between atoms: C_10  and  C_12
REMARK    7  A    between atoms: C_24  and  C_26
REMARK                            x       y       z     vdW  Elec       q    Type
REMARK                         _______ _______ _______ _____ _____    ______ ____
ROOT
ATOM      1  C   UNL     1      46.640   4.789  13.400  0.00  0.00    +0.000 A 
ATOM      2  C   UNL     1      46.770   4.314  14.714  0.00  0.00    +0.000 A 
ATOM      3  C   UNL     1      47.598   4.968  15.625  0.00  0.00    +0.000 A 
ATOM      4  C   UNL     1      48.302   6.117  15.243  0.00  0.00    +0.000 A 
ATOM      5  C   UNL     1      48.175   6.589  13.929  0.00  0.00    +0.000 A 
ATOM      6  C   UNL     1      47.344   5.937  13.017  0.00  0.00    +0.000 A 
ENDROOT
BRANCH   1   7
ATOM      7  C   UNL     1      45.779   4.048  12.412  0.00  0.00    +0.000 C 
BRANCH   7   9
ATOM      8  C   UNL     1      43.677   5.381  12.963  0.00  0.00    +0.000 C 
ATOM      9  N   UNL     1      44.504   4.650  12.013  0.00  0.00    +0.000 N 
ATOM     10  C   UNL     1      43.993   4.529  10.703  0.00  0.00    +0.000 C 
ATOM     11  O   UNL     1      42.973   5.140  10.378  0.00  0.00    +0.000 OA
BRANCH  10  12
ATOM     12  C   UNL     1      44.710   3.714   9.730  0.00  0.00    +0.000 A 
ATOM     13  C   UNL     1      45.449   4.088   8.621  0.00  0.00    +0.000 A 
ATOM     14  C   UNL     1      45.926   2.897   8.018  0.00  0.00    +0.000 A 
ATOM     15  C   UNL     1      45.417   1.863   8.763  0.00  0.00    +0.000 A 
ATOM     16  O   UNL     1      44.673   2.344   9.789  0.00  0.00    +0.000 OA
ENDBRANCH  10  12
ENDBRANCH   7   9
ENDBRANCH   1   7
BRANCH   4  17
ATOM     17  C   UNL     1      49.241   6.797  16.203  0.00  0.00    +0.000 C 
BRANCH  17  18
ATOM     18  N   UNL     1      50.278   5.892  16.626  0.00  0.00    +0.000 N 
ATOM     19  C   UNL     1      50.467   5.597  17.951  0.00  0.00    +0.000 C 
ATOM     20  O   UNL     1      49.741   6.057  18.828  0.00  0.00    +0.000 OA
ATOM     21  H   UNL     1      51.010   5.680  15.955  0.00  0.00    +0.000 HD
BRANCH  19  22
ATOM     22  C   UNL     1      51.543   4.648  18.265  0.00  0.00    +0.000 A 
ATOM     23  C   UNL     1      52.667   5.093  18.948  0.00  0.00    +0.000 A 
ATOM     24  S   UNL     1      53.795   3.860  19.285  0.00  0.00    +0.000 S 
ATOM     25  C   UNL     1      52.844   2.697  18.487  0.00  0.00    +0.000 A 
ATOM     26  N   UNL     1      53.257   1.404  18.391  0.00  0.00    +0.000 NA
ATOM     27  C   UNL     1      52.457   0.637  17.730  0.00  0.00    +0.000 A 
ATOM     28  N   UNL     1      51.278   1.041  17.161  0.00  0.00    +0.000 N 
ATOM     29  C   UNL     1      50.806   2.331  17.257  0.00  0.00    +0.000 A 
ATOM     30  O   UNL     1      49.727   2.651  16.768  0.00  0.00    +0.000 OA
ATOM     31  C   UNL     1      51.675   3.238  17.981  0.00  0.00    +0.000 A 
ATOM     32  H   UNL     1      50.693   0.388  16.661  0.00  0.00    +0.000 HD
ENDBRANCH  19  22
ENDBRANCH  17  18
ENDBRANCH   4  17
TORSDOF 6
ENDMDL
MODEL 2
REMARK VINA RESULT:    -7.608      2.605      3.080
REMARK INTER + INTRA:         -11.333
REMARK INTER:                 -10.501
REMARK INTRA:                  -0.832
REMARK UNBOUND:                -1.057
REMARK  Name = 
REMARK  7 active torsions:
REMARK  status: ('A' for Active; 'I' for Inactive)
REMARK    1  A    between atoms: C_1  and  N_2
REMARK    2  A    between atoms: N_2  and  C_3
REMARK    3  A    between atoms: C_3  and  C_4
REMARK    4  A    between atoms: C_7  and  C_8
REMARK    5  A    between atoms: C_8  and  N_9
REMARK    6  A    between atoms: C_10  and  C_12
REMARK    7  A    between atoms: C_24  and  C_26
REMARK                            x       y       z     vdW  Elec       q    Type
REMARK                         _______ _______ _______ _____ _____    ______ ____
ROOT
ATOM      1  C   UNL     1      45.361   6.640  11.657  0.00  0.00    +0.000 A 
ATOM      2  C   UNL     1      45.034   7.910  12.157  0.00  0.00    +0.000 A 
ATOM      3  C   UNL     1      45.931   8.605  12.967  0.00  0.00    +0.000 A 
ATOM      4  C   UNL     1      47.178   8.049  13.280  0.00  0.00    +0.000 A 
ATOM      5  C   UNL     1      47.503   6.780  12.782  0.00  0.00    +0.000 A 
ATOM      6  C   UNL     1      46.608   6.085  11.970  0.00  0.00    +0.000 A 
ENDROOT
BRANCH   1   7
ATOM      7  C   UNL     1      44.366   5.879  10.822  0.00  0.00    +0.000 C 
BRANCH   7   9
ATOM      8  C   UNL     1      42.979   4.826  12.683  0.00  0.00    +0.000 C 
ATOM      9  N   UNL     1      43.697   4.721  11.421  0.00  0.00    +0.000 N 
ATOM     10  C   UNL     1      43.737   3.441  10.829  0.00  0.00    +0.000 C 
ATOM     11  O   UNL     1      43.073   2.518  11.305  0.00  0.00    +0.000 OA
BRANCH  10  12
ATOM     12  C   UNL     1      44.534   3.236   9.625  0.00  0.00    +0.000 A 
ATOM     13  C   UNL     1      44.559   3.948   8.438  0.00  0.00    +0.000 A 
ATOM     14  C   UNL     1      45.511   3.318   7.597  0.00  0.00    +0.000 A 
ATOM     15  C   UNL     1      45.981   2.235   8.297  0.00  0.00    +0.000 A 
ATOM     16  O   UNL     1      45.389   2.169   9.514  0.00  0.00    +0.000 OA
ENDBRANCH  10  12
ENDBRANCH   7   9
ENDBRANCH   1   7
BRANCH   4  17
ATOM     17  C   UNL     1      48.131   8.768  14.198  0.00  0.00    +0.000 C 
BRANCH  17  18
ATOM     18  N   UNL     1      48.376   7.991  15.386  0.00  0.00    +0.000 N 
ATOM     19  C   UNL     1      49.597   7.419  15.621  0.00  0.00    +0.000 C 
ATOM     20  O   UNL     1      50.545   7.574  14.855  0.00  0.00    +0.000 OA
ATOM     21  H   UNL     1      47.563   7.675  15.907  0.00  0.00    +0.000 HD
BRANCH  19  22
ATOM     22  C   UNL     1      49.738   6.662  16.872  0.00  0.00    +0.000 A 
ATOM     23  C   UNL     1      50.569   7.147  17.873  0.00  0.00    +0.000 A 
ATOM     24  S   UNL     1      50.578   6.185  19.280  0.00  0.00    +0.000 S 
ATOM     25  C   UNL     1      49.508   5.060  18.583  0.00  0.00    +0.000 A 
ATOM     26  N   UNL     1      49.114   3.954  19.270  0.00  0.00    +0.000 NA
ATOM     27  C   UNL     1      48.330   3.169  18.611  0.00  0.00    +0.000 A 
ATOM     28  N   UNL     1      47.898   3.391  17.330  0.00  0.00    +0.000 N 
ATOM     29  C   UNL     1      48.247   4.509  16.607  0.00  0.00    +0.000 A 
ATOM     30  O   UNL     1      47.812   4.695  15.475  0.00  0.00    +0.000 OA
ATOM     31  C   UNL     1      49.138   5.420  17.299  0.00  0.00    +0.000 A 
ATOM     32  H   UNL     1      47.279   2.739  16.872  0.00  0.00    +0.000 HD
ENDBRANCH  19  22
ENDBRANCH  17  18
ENDBRANCH   4  17
TORSDOF 6
ENDMDL
MODEL 3
REMARK VINA RESULT:    -7.473      3.442      9.720
REMARK INTER + INTRA:         -11.151
REMARK INTER:                 -10.147
REMARK INTRA:                  -1.004
REMARK UNBOUND:                -1.057
REMARK  Name = 
REMARK  7 active torsions:
REMARK  status: ('A' for Active; 'I' for Inactive)
REMARK    1  A    between atoms: C_1  and  N_2
REMARK    2  A    between atoms: N_2  and  C_3
REMARK    3  A    between atoms: C_3  and  C_4
REMARK    4  A    between atoms: C_7  and  C_8
REMARK    5  A    between atoms: C_8  and  N_9
REMARK    6  A    between atoms: C_10  and  C_12
REMARK    7  A    between atoms: C_24  and  C_26
REMARK                            x       y       z     vdW  Elec       q    Type
REMARK                         _______ _______ _______ _____ _____    ______ ____
ROOT
ATOM      1  C   UNL     1      51.342   4.012  17.713  0.00  0.00    +0.000 A 
ATOM      2  C   UNL     1      50.442   5.088  17.725  0.00  0.00    +0.000 A 
ATOM      3  C   UNL     1      49.093   4.887  17.435  0.00  0.00    +0.000 A 
ATOM      4  C   UNL     1      48.616   3.603  17.141  0.00  0.00    +0.000 A 
ATOM      5  C   UNL     1      49.516   2.529  17.127  0.00  0.00    +0.000 A 
ATOM      6  C   UNL     1      50.865   2.728  17.419  0.00  0.00    +0.000 A 
ENDROOT
BRANCH   1   7
ATOM      7  C   UNL     1      52.804   4.248  17.982  0.00  0.00    +0.000 C 
BRANCH   7   9
ATOM      8  C   UNL     1      53.202   4.945  20.401  0.00  0.00    +0.000 C 
ATOM      9  N   UNL     1      53.317   3.970  19.326  0.00  0.00    +0.000 N 
ATOM     10  C   UNL     1      53.976   2.763  19.645  0.00  0.00    +0.000 C 
ATOM     11  O   UNL     1      54.296   2.522  20.810  0.00  0.00    +0.000 OA
BRANCH  10  12
ATOM     12  C   UNL     1      54.229   1.789  18.589  0.00  0.00    +0.000 A 
ATOM     13  C   UNL     1      55.111   1.835  17.523  0.00  0.00    +0.000 A 
ATOM     14  C   UNL     1      54.949   0.629  16.798  0.00  0.00    +0.000 A 
ATOM     15  C   UNL     1      53.949  -0.066  17.432  0.00  0.00    +0.000 A 
ATOM     16  O   UNL     1      53.500   0.630  18.505  0.00  0.00    +0.000 OA
ENDBRANCH  10  12
ENDBRANCH   7   9
ENDBRANCH   1   7
BRANCH   4  17
ATOM     17  C   UNL     1      47.173   3.386  16.774  0.00  0.00    +0.000 C 
BRANCH  17  18
ATOM     18  N   UNL     1      46.738   4.372  15.818  0.00  0.00    +0.000 N 
ATOM     19  C   UNL     1      46.807   4.135  14.471  0.00  0.00    +0.000 C 
ATOM     20  O   UNL     1      47.203   3.063  14.020  0.00  0.00    +0.000 OA
ATOM     21  H   UNL     1      46.618   5.322  16.157  0.00  0.00    +0.000 HD
BRANCH  19  22
ATOM     22  C   UNL     1      46.320   5.205  13.591  0.00  0.00    +0.000 A 
ATOM     23  C   UNL     1      47.129   6.306  13.343  0.00  0.00    +0.000 A 
ATOM     24  S   UNL     1      46.444   7.428  12.258  0.00  0.00    +0.000 S 
ATOM     25  C   UNL     1      45.021   6.506  12.118  0.00  0.00    +0.000 A 
ATOM     26  N   UNL     1      43.991   6.927  11.335  0.00  0.00    +0.000 NA
ATOM     27  C   UNL     1      42.960   6.150  11.348  0.00  0.00    +0.000 A 
ATOM     28  N   UNL     1      42.867   4.987  12.066  0.00  0.00    +0.000 N 
ATOM     29  C   UNL     1      43.893   4.507  12.848  0.00  0.00    +0.000 A 
ATOM     30  O   UNL     1      43.790   3.442  13.449  0.00  0.00    +0.000 OA
ATOM     31  C   UNL     1      45.072   5.350  12.878  0.00  0.00    +0.000 A 
ATOM     32  H   UNL     1      42.033   4.420  12.028  0.00  0.00    +0.000 HD
ENDBRANCH  19  22
ENDBRANCH  17  18
ENDBRANCH   4  17
TORSDOF 6
ENDMDL
MODEL 4
REMARK VINA RESULT:    -6.673      3.359      9.197
REMARK INTER + INTRA:         -10.071
REMARK INTER:                  -8.696
REMARK INTRA:                  -1.375
REMARK UNBOUND:                -1.057
REMARK  Name = 
REMARK  7 active torsions:
REMARK  status: ('A' for Active; 'I' for Inactive)
REMARK    1  A    between atoms: C_1  and  N_2
REMARK    2  A    between atoms: N_2  and  C_3
REMARK    3  A    between atoms: C_3  and  C_4
REMARK    4  A    between atoms: C_7  and  C_8
REMARK    5  A    between atoms: C_8  and  N_9
REMARK    6  A    between atoms: C_10  and  C_12
REMARK    7  A    between atoms: C_24  and  C_26
REMARK                            x       y       z     vdW  Elec       q    Type
REMARK                         _______ _______ _______ _____ _____    ______ ____
ROOT
ATOM      1  C   UNL     1      51.063   4.438  18.391  0.00  0.00    +0.000 A 
ATOM      2  C   UNL     1      49.989   5.319  18.589  0.00  0.00    +0.000 A 
ATOM      3  C   UNL     1      48.716   5.001  18.117  0.00  0.00    +0.000 A 
ATOM      4  C   UNL     1      48.491   3.790  17.450  0.00  0.00    +0.000 A 
ATOM      5  C   UNL     1      49.564   2.912  17.251  0.00  0.00    +0.000 A 
ATOM      6  C   UNL     1      50.837   3.227  17.724  0.00  0.00    +0.000 A 
ENDROOT
BRANCH   1   7
ATOM      7  C   UNL     1      52.443   4.811  18.864  0.00  0.00    +0.000 C 
BRANCH   7   9
ATOM      8  C   UNL     1      54.549   3.680  17.980  0.00  0.00    +0.000 C 
ATOM      9  N   UNL     1      53.550   4.736  17.906  0.00  0.00    +0.000 N 
ATOM     10  C   UNL     1      53.727   5.695  16.886  0.00  0.00    +0.000 C 
ATOM     11  O   UNL     1      54.605   5.538  16.036  0.00  0.00    +0.000 OA
BRANCH  10  12
ATOM     12  C   UNL     1      52.832   6.845  16.824  0.00  0.00    +0.000 A 
ATOM     13  C   UNL     1      51.789   7.120  15.956  0.00  0.00    +0.000 A 
ATOM     14  C   UNL     1      51.255   8.377  16.335  0.00  0.00    +0.000 A 
ATOM     15  C   UNL     1      52.026   8.820  17.380  0.00  0.00    +0.000 A 
ATOM     16  O   UNL     1      52.987   7.910  17.674  0.00  0.00    +0.000 OA
ENDBRANCH  10  12
ENDBRANCH   7   9
ENDBRANCH   1   7
BRANCH   4  17
ATOM     17  C   UNL     1      47.132   3.464  16.890  0.00  0.00    +0.000 C 
BRANCH  17  18
ATOM     18  N   UNL     1      46.756   4.421  15.880  0.00  0.00    +0.000 N 
ATOM     19  C   UNL     1      46.937   4.157  14.549  0.00  0.00    +0.000 C 
ATOM     20  O   UNL     1      47.389   3.084  14.155  0.00  0.00    +0.000 OA
ATOM     21  H   UNL     1      46.592   5.375  16.186  0.00  0.00    +0.000 HD
BRANCH  19  22
ATOM     22  C   UNL     1      46.503   5.198  13.609  0.00  0.00    +0.000 A 
ATOM     23  C   UNL     1      47.364   6.242  13.300  0.00  0.00    +0.000 A 
ATOM     24  S   UNL     1      46.733   7.334  12.152  0.00  0.00    +0.000 S 
ATOM     25  C   UNL     1      45.267   6.475  12.062  0.00  0.00    +0.000 A 
ATOM     26  N   UNL     1      44.258   6.900  11.254  0.00  0.00    +0.000 NA
ATOM     27  C   UNL     1      43.191   6.176  11.308  0.00  0.00    +0.000 A 
ATOM     28  N   UNL     1      43.042   5.061  12.091  0.00  0.00    +0.000 N 
ATOM     29  C   UNL     1      44.044   4.577  12.901  0.00  0.00    +0.000 A 
ATOM     30  O   UNL     1      43.890   3.554  13.561  0.00  0.00    +0.000 OA
ATOM     31  C   UNL     1      45.263   5.363  12.886  0.00  0.00    +0.000 A 
ATOM     32  H   UNL     1      42.181   4.534  12.083  0.00  0.00    +0.000 HD
ENDBRANCH  19  22
ENDBRANCH  17  18
ENDBRANCH   4  17
TORSDOF 6
ENDMDL
MODEL 5
REMARK VINA RESULT:    -6.493      4.139      5.311
REMARK INTER + INTRA:          -9.827
REMARK INTER:                  -8.610
REMARK INTRA:                  -1.217
REMARK UNBOUND:                -1.057
REMARK  Name = 
REMARK  7 active torsions:
REMARK  status: ('A' for Active; 'I' for Inactive)
REMARK    1  A    between atoms: C_1  and  N_2
REMARK    2  A    between atoms: N_2  and  C_3
REMARK    3  A    between atoms: C_3  and  C_4
REMARK    4  A    between atoms: C_7  and  C_8
REMARK    5  A    between atoms: C_8  and  N_9
REMARK    6  A    between atoms: C_10  and  C_12
REMARK    7  A    between atoms: C_24  and  C_26
REMARK                            x       y       z     vdW  Elec       q    Type
REMARK                         _______ _______ _______ _____ _____    ______ ____
ROOT
ATOM      1  C   UNL     1      46.481   4.928  13.245  0.00  0.00    +0.000 A 
ATOM      2  C   UNL     1      46.986   4.667  14.528  0.00  0.00    +0.000 A 
ATOM      3  C   UNL     1      47.938   5.511  15.099  0.00  0.00    +0.000 A 
ATOM      4  C   UNL     1      48.392   6.639  14.404  0.00  0.00    +0.000 A 
ATOM      5  C   UNL     1      47.888   6.897  13.122  0.00  0.00    +0.000 A 
ATOM      6  C   UNL     1      46.935   6.056  12.550  0.00  0.00    +0.000 A 
ENDROOT
BRANCH   1   7
ATOM      7  C   UNL     1      45.488   3.985  12.619  0.00  0.00    +0.000 C 
BRANCH   7   9
ATOM      8  C   UNL     1      43.265   5.096  13.187  0.00  0.00    +0.000 C 
ATOM      9  N   UNL     1      44.182   4.517  12.217  0.00  0.00    +0.000 N 
ATOM     10  C   UNL     1      43.731   4.469  10.880  0.00  0.00    +0.000 C 
ATOM     11  O   UNL     1      42.677   5.022  10.563  0.00  0.00    +0.000 OA
BRANCH  10  12
ATOM     12  C   UNL     1      44.548   3.798   9.875  0.00  0.00    +0.000 A 
ATOM     13  C   UNL     1      45.325   4.326   8.858  0.00  0.00    +0.000 A 
ATOM     14  C   UNL     1      45.903   3.231   8.167  0.00  0.00    +0.000 A 
ATOM     15  C   UNL     1      45.414   2.099   8.769  0.00  0.00    +0.000 A 
ATOM     16  O   UNL     1      44.586   2.430   9.791  0.00  0.00    +0.000 OA
ENDBRANCH  10  12
ENDBRANCH   7   9
ENDBRANCH   1   7
BRANCH   4  17
ATOM     17  C   UNL     1      49.458   7.524  14.991  0.00  0.00    +0.000 C 
BRANCH  17  18
ATOM     18  N   UNL     1      50.624   7.544  14.144  0.00  0.00    +0.000 N 
ATOM     19  C   UNL     1      51.303   8.708  13.897  0.00  0.00    +0.000 C 
ATOM     20  O   UNL     1      50.975   9.773  14.414  0.00  0.00    +0.000 OA
ATOM     21  H   UNL     1      50.775   6.737  13.548  0.00  0.00    +0.000 HD
BRANCH  19  22
ATOM     22  C   UNL     1      52.485   8.607  13.033  0.00  0.00    +0.000 A 
ATOM     23  C   UNL     1      53.719   9.025  13.513  0.00  0.00    +0.000 A 
ATOM     24  S   UNL     1      54.998   8.789  12.411  0.00  0.00    +0.000 S 
ATOM     25  C   UNL     1      53.940   8.163  11.234  0.00  0.00    +0.000 A 
ATOM     26  N   UNL     1      54.404   7.775  10.015  0.00  0.00    +0.000 NA
ATOM     27  C   UNL     1      53.489   7.352   9.208  0.00  0.00    +0.000 A 
ATOM     28  N   UNL     1      52.155   7.274   9.509  0.00  0.00    +0.000 N 
ATOM     29  C   UNL     1      51.645   7.627  10.738  0.00  0.00    +0.000 A 
ATOM     30  O   UNL     1      50.449   7.509  10.988  0.00  0.00    +0.000 OA
ATOM     31  C   UNL     1      52.631   8.122  11.680  0.00  0.00    +0.000 A 
ATOM     32  H   UNL     1      51.491   6.928   8.834  0.00  0.00    +0.000 HD
ENDBRANCH  19  22
ENDBRANCH  17  18
ENDBRANCH   4  17
TORSDOF 6
ENDMDL
MODEL 6
REMARK VINA RESULT:    -6.366      1.774      2.294
REMARK INTER + INTRA:          -9.656
REMARK INTER:                  -8.626
REMARK INTRA:                  -1.030
REMARK UNBOUND:                -1.057
REMARK  Name = 
REMARK  7 active torsions:
REMARK  status: ('A' for Active; 'I' for Inactive)
REMARK    1  A    between atoms: C_1  and  N_2
REMARK    2  A    between atoms: N_2  and  C_3
REMARK    3  A    between atoms: C_3  and  C_4
REMARK    4  A    between atoms: C_7  and  C_8
REMARK    5  A    between atoms: C_8  and  N_9
REMARK    6  A    between atoms: C_10  and  C_12
REMARK    7  A    between atoms: C_24  and  C_26
REMARK                            x       y       z     vdW  Elec       q    Type
REMARK                         _______ _______ _______ _____ _____    ______ ____
ROOT
ATOM      1  C   UNL     1      46.448   4.826  13.356  0.00  0.00    +0.000 A 
ATOM      2  C   UNL     1      46.805   4.428  14.653  0.00  0.00    +0.000 A 
ATOM      3  C   UNL     1      47.681   5.200  15.415  0.00  0.00    +0.000 A 
ATOM      4  C   UNL     1      48.207   6.391  14.899  0.00  0.00    +0.000 A 
ATOM      5  C   UNL     1      47.853   6.787  13.601  0.00  0.00    +0.000 A 
ATOM      6  C   UNL     1      46.974   6.017  12.839  0.00  0.00    +0.000 A 
ENDROOT
BRANCH   1   7
ATOM      7  C   UNL     1      45.538   3.962  12.525  0.00  0.00    +0.000 C 
BRANCH   7   9
ATOM      8  C   UNL     1      43.322   5.086  13.090  0.00  0.00    +0.000 C 
ATOM      9  N   UNL     1      44.240   4.508  12.120  0.00  0.00    +0.000 N 
ATOM     10  C   UNL     1      43.796   4.475  10.781  0.00  0.00    +0.000 C 
ATOM     11  O   UNL     1      42.748   5.040  10.463  0.00  0.00    +0.000 OA
BRANCH  10  12
ATOM     12  C   UNL     1      44.612   3.806   9.775  0.00  0.00    +0.000 A 
ATOM     13  C   UNL     1      45.377   4.335   8.748  0.00  0.00    +0.000 A 
ATOM     14  C   UNL     1      45.961   3.242   8.061  0.00  0.00    +0.000 A 
ATOM     15  C   UNL     1      45.489   2.108   8.675  0.00  0.00    +0.000 A 
ATOM     16  O   UNL     1      44.665   2.438   9.700  0.00  0.00    +0.000 OA
ENDBRANCH  10  12
ENDBRANCH   7   9
ENDBRANCH   1   7
BRANCH   4  17
ATOM     17  C   UNL     1      49.196   7.202  15.693  0.00  0.00    +0.000 C 
BRANCH  17  18
ATOM     18  N   UNL     1      50.322   6.391  16.081  0.00  0.00    +0.000 N 
ATOM     19  C   UNL     1      50.542   6.062  17.392  0.00  0.00    +0.000 C 
ATOM     20  O   UNL     1      49.774   6.407  18.286  0.00  0.00    +0.000 OA
ATOM     21  H   UNL     1      51.070   6.285  15.402  0.00  0.00    +0.000 HD
BRANCH  19  22
ATOM     22  C   UNL     1      51.711   5.217  17.668  0.00  0.00    +0.000 A 
ATOM     23  C   UNL     1      51.591   4.152  18.550  0.00  0.00    +0.000 A 
ATOM     24  S   UNL     1      53.019   3.237  18.719  0.00  0.00    +0.000 S 
ATOM     25  C   UNL     1      53.864   4.261  17.655  0.00  0.00    +0.000 A 
ATOM     26  N   UNL     1      55.177   4.043  17.372  0.00  0.00    +0.000 NA
ATOM     27  C   UNL     1      55.703   4.914  16.578  0.00  0.00    +0.000 A 
ATOM     28  N   UNL     1      55.036   5.981  16.036  0.00  0.00    +0.000 N 
ATOM     29  C   UNL     1      53.701   6.225  16.270  0.00  0.00    +0.000 A 
ATOM     30  O   UNL     1      53.125   7.168  15.738  0.00  0.00    +0.000 OA
ATOM     31  C   UNL     1      53.065   5.280  17.167  0.00  0.00    +0.000 A 
ATOM     32  H   UNL     1      55.504   6.624  15.416  0.00  0.00    +0.000 HD
ENDBRANCH  19  22
ENDBRANCH  17  18
ENDBRANCH   4  17
TORSDOF 6
ENDMDL
MODEL 7
REMARK VINA RESULT:    -6.343      2.149      2.688
REMARK INTER + INTRA:          -9.625
REMARK INTER:                  -8.384
REMARK INTRA:                  -1.240
REMARK UNBOUND:                -1.057
REMARK  Name = 
REMARK  7 active torsions:
REMARK  status: ('A' for Active; 'I' for Inactive)
REMARK    1  A    between atoms: C_1  and  N_2
REMARK    2  A    between atoms: N_2  and  C_3
REMARK    3  A    between atoms: C_3  and  C_4
REMARK    4  A    between atoms: C_7  and  C_8
REMARK    5  A    between atoms: C_8  and  N_9
REMARK    6  A    between atoms: C_10  and  C_12
REMARK    7  A    between atoms: C_24  and  C_26
REMARK                            x       y       z     vdW  Elec       q    Type
REMARK                         _______ _______ _______ _____ _____    ______ ____
ROOT
ATOM      1  C   UNL     1      46.522   5.111  12.983  0.00  0.00    +0.000 A 
ATOM      2  C   UNL     1      47.054   5.037  14.280  0.00  0.00    +0.000 A 
ATOM      3  C   UNL     1      48.070   5.904  14.679  0.00  0.00    +0.000 A 
ATOM      4  C   UNL     1      48.565   6.870  13.793  0.00  0.00    +0.000 A 
ATOM      5  C   UNL     1      48.036   6.941  12.497  0.00  0.00    +0.000 A 
ATOM      6  C   UNL     1      47.017   6.077  12.097  0.00  0.00    +0.000 A 
ENDROOT
BRANCH   1   7
ATOM      7  C   UNL     1      45.457   4.141  12.548  0.00  0.00    +0.000 C 
BRANCH   7   9
ATOM      8  C   UNL     1      43.264   5.296  13.142  0.00  0.00    +0.000 C 
ATOM      9  N   UNL     1      44.146   4.673  12.166  0.00  0.00    +0.000 N 
ATOM     10  C   UNL     1      43.654   4.584  10.846  0.00  0.00    +0.000 C 
ATOM     11  O   UNL     1      42.597   5.138  10.541  0.00  0.00    +0.000 OA
BRANCH  10  12
ATOM     12  C   UNL     1      44.433   3.870   9.841  0.00  0.00    +0.000 A 
ATOM     13  C   UNL     1      45.215   4.354   8.807  0.00  0.00    +0.000 A 
ATOM     14  C   UNL     1      45.745   3.229   8.126  0.00  0.00    +0.000 A 
ATOM     15  C   UNL     1      45.224   2.124   8.751  0.00  0.00    +0.000 A 
ATOM     16  O   UNL     1      44.422   2.499   9.778  0.00  0.00    +0.000 OA
ENDBRANCH  10  12
ENDBRANCH   7   9
ENDBRANCH   1   7
BRANCH   4  17
ATOM     17  C   UNL     1      49.700   7.772  14.198  0.00  0.00    +0.000 C 
BRANCH  17  18
ATOM     18  N   UNL     1      49.971   7.647  15.608  0.00  0.00    +0.000 N 
ATOM     19  C   UNL     1      51.253   7.659  16.088  0.00  0.00    +0.000 C 
ATOM     20  O   UNL     1      52.222   7.816  15.350  0.00  0.00    +0.000 OA
ATOM     21  H   UNL     1      49.217   7.303  16.194  0.00  0.00    +0.000 HD
BRANCH  19  22
ATOM     22  C   UNL     1      51.409   7.541  17.544  0.00  0.00    +0.000 A 
ATOM     23  C   UNL     1      51.966   8.592  18.258  0.00  0.00    +0.000 A 
ATOM     24  S   UNL     1      52.025   8.322  19.941  0.00  0.00    +0.000 S 
ATOM     25  C   UNL     1      51.352   6.769  19.769  0.00  0.00    +0.000 A 
ATOM     26  N   UNL     1      51.149   5.972  20.853  0.00  0.00    +0.000 NA
ATOM     27  C   UNL     1      50.665   4.808  20.576  0.00  0.00    +0.000 A 
ATOM     28  N   UNL     1      50.359   4.369  19.315  0.00  0.00    +0.000 N 
ATOM     29  C   UNL     1      50.521   5.149  18.192  0.00  0.00    +0.000 A 
ATOM     30  O   UNL     1      50.202   4.737  17.081  0.00  0.00    +0.000 OA
ATOM     31  C   UNL     1      51.073   6.465  18.447  0.00  0.00    +0.000 A 
ATOM     32  H   UNL     1      49.977   3.447  19.166  0.00  0.00    +0.000 HD
ENDBRANCH  19  22
ENDBRANCH  17  18
ENDBRANCH   4  17
TORSDOF 6
ENDMDL
MODEL 8
REMARK VINA RESULT:    -5.786      3.364      4.242
REMARK INTER + INTRA:          -8.873
REMARK INTER:                  -8.012
REMARK INTRA:                  -0.861
REMARK UNBOUND:                -1.057
REMARK  Name = 
REMARK  7 active torsions:
REMARK  status: ('A' for Active; 'I' for Inactive)
REMARK    1  A    between atoms: C_1  and  N_2
REMARK    2  A    between atoms: N_2  and  C_3
REMARK    3  A    between atoms: C_3  and  C_4
REMARK    4  A    between atoms: C_7  and  C_8
REMARK    5  A    between atoms: C_8  and  N_9
REMARK    6  A    between atoms: C_10  and  C_12
REMARK    7  A    between atoms: C_24  and  C_26
REMARK                            x       y       z     vdW  Elec       q    Type
REMARK                         _______ _______ _______ _____ _____    ______ ____
ROOT
ATOM      1  C   UNL     1      46.632   4.831  13.482  0.00  0.00    +0.000 A 
ATOM      2  C   UNL     1      46.778   4.272  14.761  0.00  0.00    +0.000 A 
ATOM      3  C   UNL     1      47.596   4.882  15.711  0.00  0.00    +0.000 A 
ATOM      4  C   UNL     1      48.273   6.069  15.404  0.00  0.00    +0.000 A 
ATOM      5  C   UNL     1      48.130   6.625  14.126  0.00  0.00    +0.000 A 
ATOM      6  C   UNL     1      47.310   6.018  13.175  0.00  0.00    +0.000 A 
ENDROOT
BRANCH   1   7
ATOM      7  C   UNL     1      45.783   4.140  12.449  0.00  0.00    +0.000 C 
BRANCH   7   9
ATOM      8  C   UNL     1      43.687   5.445  13.081  0.00  0.00    +0.000 C 
ATOM      9  N   UNL     1      44.493   4.738  12.096  0.00  0.00    +0.000 N 
ATOM     10  C   UNL     1      43.947   4.636  10.798  0.00  0.00    +0.000 C 
ATOM     11  O   UNL     1      42.914   5.244  10.512  0.00  0.00    +0.000 OA
BRANCH  10  12
ATOM     12  C   UNL     1      44.644   3.844   9.792  0.00  0.00    +0.000 A 
ATOM     13  C   UNL     1      45.368   4.246   8.682  0.00  0.00    +0.000 A 
ATOM     14  C   UNL     1      45.828   3.069   8.039  0.00  0.00    +0.000 A 
ATOM     15  C   UNL     1      45.324   2.017   8.762  0.00  0.00    +0.000 A 
ATOM     16  O   UNL     1      44.598   2.473   9.812  0.00  0.00    +0.000 OA
ENDBRANCH  10  12
ENDBRANCH   7   9
ENDBRANCH   1   7
BRANCH   4  17
ATOM     17  C   UNL     1      49.201   6.705  16.406  0.00  0.00    +0.000 C 
BRANCH  17  18
ATOM     18  N   UNL     1      50.571   6.583  15.977  0.00  0.00    +0.000 N 
ATOM     19  C   UNL     1      51.383   7.681  15.872  0.00  0.00    +0.000 C 
ATOM     20  O   UNL     1      50.995   8.807  16.176  0.00  0.00    +0.000 OA
ATOM     21  H   UNL     1      50.837   5.715  15.522  0.00  0.00    +0.000 HD
BRANCH  19  22
ATOM     22  C   UNL     1      52.765   7.436  15.442  0.00  0.00    +0.000 A 
ATOM     23  C   UNL     1      53.624   6.730  16.273  0.00  0.00    +0.000 A 
ATOM     24  S   UNL     1      55.173   6.481  15.605  0.00  0.00    +0.000 S 
ATOM     25  C   UNL     1      54.765   7.351  14.200  0.00  0.00    +0.000 A 
ATOM     26  N   UNL     1      55.675   7.535  13.205  0.00  0.00    +0.000 NA
ATOM     27  C   UNL     1      55.245   8.242  12.214  0.00  0.00    +0.000 A 
ATOM     28  N   UNL     1      53.987   8.776  12.123  0.00  0.00    +0.000 N 
ATOM     29  C   UNL     1      53.025   8.593  13.091  0.00  0.00    +0.000 A 
ATOM     30  O   UNL     1      51.896   9.054  12.961  0.00  0.00    +0.000 OA
ATOM     31  C   UNL     1      53.461   7.814  14.234  0.00  0.00    +0.000 A 
ATOM     32  H   UNL     1      53.710   9.316  11.317  0.00  0.00    +0.000 HD
ENDBRANCH  19  22
ENDBRANCH  17  18
ENDBRANCH   4  17
TORSDOF 6
ENDMDL
MODEL 9
REMARK VINA RESULT:    -5.718      2.041      2.426
REMARK INTER + INTRA:          -8.780
REMARK INTER:                  -8.049
REMARK INTRA:                  -0.732
REMARK UNBOUND:                -1.057
REMARK  Name = 
REMARK  7 active torsions:
REMARK  status: ('A' for Active; 'I' for Inactive)
REMARK    1  A    between atoms: C_1  and  N_2
REMARK    2  A    between atoms: N_2  and  C_3
REMARK    3  A    between atoms: C_3  and  C_4
REMARK    4  A    between atoms: C_7  and  C_8
REMARK    5  A    between atoms: C_8  and  N_9
REMARK    6  A    between atoms: C_10  and  C_12
REMARK    7  A    between atoms: C_24  and  C_26
REMARK                            x       y       z     vdW  Elec       q    Type
REMARK                         _______ _______ _______ _____ _____    ______ ____
ROOT
ATOM      1  C   UNL     1      46.884   5.377  13.105  0.00  0.00    +0.000 A 
ATOM      2  C   UNL     1      47.715   6.452  13.458  0.00  0.00    +0.000 A 
ATOM      3  C   UNL     1      48.308   6.505  14.718  0.00  0.00    +0.000 A 
ATOM      4  C   UNL     1      48.092   5.477  15.645  0.00  0.00    +0.000 A 
ATOM      5  C   UNL     1      47.260   4.405  15.294  0.00  0.00    +0.000 A 
ATOM      6  C   UNL     1      46.668   4.350  14.032  0.00  0.00    +0.000 A 
ENDROOT
BRANCH   1   7
ATOM      7  C   UNL     1      46.212   5.353  11.759  0.00  0.00    +0.000 C 
BRANCH   7   9
ATOM      8  C   UNL     1      43.963   5.990  12.774  0.00  0.00    +0.000 C 
ATOM      9  N   UNL     1      44.747   5.378  11.712  0.00  0.00    +0.000 N 
ATOM     10  C   UNL     1      44.019   4.787  10.658  0.00  0.00    +0.000 C 
ATOM     11  O   UNL     1      42.795   4.923  10.599  0.00  0.00    +0.000 OA
BRANCH  10  12
ATOM     12  C   UNL     1      44.734   4.055   9.619  0.00  0.00    +0.000 A 
ATOM     13  C   UNL     1      44.980   2.699   9.488  0.00  0.00    +0.000 A 
ATOM     14  C   UNL     1      45.727   2.526   8.296  0.00  0.00    +0.000 A 
ATOM     15  C   UNL     1      45.935   3.785   7.789  0.00  0.00    +0.000 A 
ATOM     16  O   UNL     1      45.352   4.714   8.586  0.00  0.00    +0.000 OA
ENDBRANCH  10  12
ENDBRANCH   7   9
ENDBRANCH   1   7
BRANCH   4  17
ATOM     17  C   UNL     1      48.685   5.553  17.027  0.00  0.00    +0.000 C 
BRANCH  17  18
ATOM     18  N   UNL     1      50.101   5.290  16.988  0.00  0.00    +0.000 N 
ATOM     19  C   UNL     1      51.010   6.235  17.381  0.00  0.00    +0.000 C 
ATOM     20  O   UNL     1      50.662   7.329  17.819  0.00  0.00    +0.000 OA
ATOM     21  H   UNL     1      50.408   4.496  16.435  0.00  0.00    +0.000 HD
BRANCH  19  22
ATOM     22  C   UNL     1      52.426   5.851  17.314  0.00  0.00    +0.000 A 
ATOM     23  C   UNL     1      53.198   6.272  16.240  0.00  0.00    +0.000 A 
ATOM     24  S   UNL     1      54.830   5.792  16.339  0.00  0.00    +0.000 S 
ATOM     25  C   UNL     1      54.553   4.963  17.799  0.00  0.00    +0.000 A 
ATOM     26  N   UNL     1      55.561   4.296  18.425  0.00  0.00    +0.000 NA
ATOM     27  C   UNL     1      55.204   3.683  19.503  0.00  0.00    +0.000 A 
ATOM     28  N   UNL     1      53.935   3.680  20.018  0.00  0.00    +0.000 N 
ATOM     29  C   UNL     1      52.891   4.364  19.436  0.00  0.00    +0.000 A 
ATOM     30  O   UNL     1      51.774   4.372  19.944  0.00  0.00    +0.000 OA
ATOM     31  C   UNL     1      53.236   5.062  18.213  0.00  0.00    +0.000 A 
ATOM     32  H   UNL     1      53.722   3.185  20.871  0.00  0.00    +0.000 HD
ENDBRANCH  19  22
ENDBRANCH  17  18
ENDBRANCH   4  17
TORSDOF 6
ENDMDL
