MODEL 1
REMARK VINA RESULT:    -7.943      0.000      0.000
REMARK INTER + INTRA:         -11.684
REMARK INTER:                 -10.729
REMARK INTRA:                  -0.956
REMARK UNBOUND:                -0.956
REMARK  Name = 
REMARK  8 active torsions:
REMARK  status: ('A' for Active; 'I' for Inactive)
REMARK    1  A    between atoms: C_1  and  C_2
REMARK    2  A    between atoms: C_2  and  N_3
REMARK    3  A    between atoms: C_2  and  C_18
REMARK    4  A    between atoms: N_3  and  C_4
REMARK    5  A    between atoms: C_7  and  C_8
REMARK    6  A    between atoms: C_8  and  N_9
REMARK    7  A    between atoms: N_9  and  C_10
REMARK    8  A    between atoms: N_13  and  C_14
REMARK                            x       y       z     vdW  Elec       q    Type
REMARK                         _______ _______ _______ _____ _____    ______ ____
ROOT
ATOM      1  N   UNL     1      47.102   6.832  14.097  0.00  0.00    +0.000 N 
ATOM      2  H   UNL     1      46.921   7.832  14.143  0.00  0.00    +0.000 HD
ENDROOT
BRANCH   1   3
ATOM      3  C   UNL     1      46.450   6.297  12.993  0.00  0.00    +0.000 A 
ATOM      4  C   UNL     1      45.358   5.466  13.266  0.00  0.00    +0.000 A 
ATOM      5  C   UNL     1      44.608   4.883  12.247  0.00  0.00    +0.000 A 
ATOM      6  C   UNL     1      44.898   5.154  10.907  0.00  0.00    +0.000 A 
ATOM      7  C   UNL     1      45.973   6.009  10.622  0.00  0.00    +0.000 A 
ATOM      8  C   UNL     1      46.745   6.572  11.656  0.00  0.00    +0.000 A 
BRANCH   6   9
ATOM      9  C   UNL     1      44.058   4.504   9.822  0.00  0.00    +0.000 C 
BRANCH   9  10
ATOM     10  N   UNL     1      44.770   4.525   8.545  0.00  0.00    +0.000 NA
ATOM     11  H   UNL     1      45.720   4.865   8.700  0.00  0.00    +0.000 HD
BRANCH  10  12
ATOM     12  C   UNL     1      44.826   3.242   7.847  0.00  0.00    +0.000 C 
ATOM     13  C   UNL     1      45.181   2.051   8.749  0.00  0.00    +0.000 C 
ATOM     14  C   UNL     1      46.398   1.400   8.105  0.00  0.00    +0.000 C 
ATOM     15  N   UNL     1      47.051   2.527   7.448  0.00  0.00    +0.000 NA
ATOM     16  C   UNL     1      48.094   2.112   6.518  0.00  0.00    +0.000 C 
ATOM     17  C   UNL     1      45.954   3.249   6.787  0.00  0.00    +0.000 C 
ENDBRANCH  10  12
ENDBRANCH   9  10
ENDBRANCH   6   9
ENDBRANCH   1   3
BRANCH   1  19
ATOM     18  C   UNL     1      49.365   7.627  14.006  0.00  0.00    +0.000 C 
ATOM     19  C   UNL     1      48.460   6.476  14.522  0.00  0.00    +0.000 C 
BRANCH  19  20
ATOM     20  C   UNL     1      48.681   6.386  16.025  0.00  0.00    +0.000 A 
ATOM     21  C   UNL     1      49.348   7.340  16.779  0.00  0.00    +0.000 A 
ATOM     22  S   UNL     1      49.735   6.796  18.353  0.00  0.00    +0.000 S 
ATOM     23  C   UNL     1      49.008   5.281  18.066  0.00  0.00    +0.000 A 
ATOM     24  N   UNL     1      49.092   4.264  18.967  0.00  0.00    +0.000 NA
ATOM     25  C   UNL     1      48.484   3.184  18.602  0.00  0.00    +0.000 A 
ATOM     26  N   UNL     1      47.751   3.045  17.448  0.00  0.00    +0.000 N 
ATOM     27  C   UNL     1      47.591   4.066  16.538  0.00  0.00    +0.000 A 
ATOM     28  O   UNL     1      46.838   3.965  15.574  0.00  0.00    +0.000 OA
ATOM     29  C   UNL     1      48.359   5.256  16.849  0.00  0.00    +0.000 A 
ATOM     30  H   UNL     1      47.237   2.198  17.261  0.00  0.00    +0.000 HD
ENDBRANCH  19  20
ENDBRANCH   1  19
TORSDOF 6
ENDMDL
MODEL 2
REMARK VINA RESULT:    -6.933      1.695      1.899
REMARK INTER + INTRA:         -10.321
REMARK INTER:                  -9.664
REMARK INTRA:                  -0.657
REMARK UNBOUND:                -0.956
REMARK  Name = 
REMARK  8 active torsions:
REMARK  status: ('A' for Active; 'I' for Inactive)
REMARK    1  A    between atoms: C_1  and  C_2
REMARK    2  A    between atoms: C_2  and  N_3
REMARK    3  A    between atoms: C_2  and  C_18
REMARK    4  A    between atoms: N_3  and  C_4
REMARK    5  A    between atoms: C_7  and  C_8
REMARK    6  A    between atoms: C_8  and  N_9
REMARK    7  A    between atoms: N_9  and  C_10
REMARK    8  A    between atoms: N_13  and  C_14
REMARK                            x       y       z     vdW  Elec       q    Type
REMARK                         _______ _______ _______ _____ _____    ______ ____
ROOT
ATOM      1  N   UNL     1      48.064   6.337  14.768  0.00  0.00    +0.000 N 
ATOM      2  H   UNL     1      47.488   6.205  15.597  0.00  0.00    +0.000 HD
ENDROOT
BRANCH   1   3
ATOM      3  C   UNL     1      47.301   6.095  13.634  0.00  0.00    +0.000 A 
ATOM      4  C   UNL     1      46.463   4.975  13.683  0.00  0.00    +0.000 A 
ATOM      5  C   UNL     1      45.633   4.634  12.617  0.00  0.00    +0.000 A 
ATOM      6  C   UNL     1      45.576   5.437  11.475  0.00  0.00    +0.000 A 
ATOM      7  C   UNL     1      46.391   6.578  11.427  0.00  0.00    +0.000 A 
ATOM      8  C   UNL     1      47.249   6.901  12.495  0.00  0.00    +0.000 A 
BRANCH   6   9
ATOM      9  C   UNL     1      44.658   5.038  10.335  0.00  0.00    +0.000 C 
BRANCH   9  10
ATOM     10  N   UNL     1      45.418   4.890   9.095  0.00  0.00    +0.000 NA
ATOM     11  H   UNL     1      46.414   4.872   9.317  0.00  0.00    +0.000 HD
BRANCH  10  12
ATOM     12  C   UNL     1      45.082   3.711   8.299  0.00  0.00    +0.000 C 
ATOM     13  C   UNL     1      45.214   2.382   9.058  0.00  0.00    +0.000 C 
ATOM     14  C   UNL     1      46.160   1.528   8.224  0.00  0.00    +0.000 C 
ATOM     15  N   UNL     1      47.006   2.527   7.581  0.00  0.00    +0.000 NA
ATOM     16  C   UNL     1      47.815   1.973   6.502  0.00  0.00    +0.000 C 
ATOM     17  C   UNL     1      46.066   3.556   7.114  0.00  0.00    +0.000 C 
ENDBRANCH  10  12
ENDBRANCH   9  10
ENDBRANCH   6   9
ENDBRANCH   1   3
BRANCH   1  19
ATOM     18  C   UNL     1      48.297   8.514  15.752  0.00  0.00    +0.000 C 
ATOM     19  C   UNL     1      49.029   7.433  14.912  0.00  0.00    +0.000 C 
BRANCH  19  20
ATOM     20  C   UNL     1      50.311   7.093  15.658  0.00  0.00    +0.000 A 
ATOM     21  C   UNL     1      51.561   7.605  15.344  0.00  0.00    +0.000 A 
ATOM     22  S   UNL     1      52.836   6.778  16.127  0.00  0.00    +0.000 S 
ATOM     23  C   UNL     1      51.746   5.730  16.913  0.00  0.00    +0.000 A 
ATOM     24  N   UNL     1      52.177   4.673  17.654  0.00  0.00    +0.000 NA
ATOM     25  C   UNL     1      51.227   3.979  18.187  0.00  0.00    +0.000 A 
ATOM     26  N   UNL     1      49.888   4.279  18.097  0.00  0.00    +0.000 N 
ATOM     27  C   UNL     1      49.412   5.372  17.409  0.00  0.00    +0.000 A 
ATOM     28  O   UNL     1      48.228   5.693  17.437  0.00  0.00    +0.000 OA
ATOM     29  C   UNL     1      50.438   6.107  16.692  0.00  0.00    +0.000 A 
ATOM     30  H   UNL     1      49.203   3.740  18.604  0.00  0.00    +0.000 HD
ENDBRANCH  19  20
ENDBRANCH   1  19
TORSDOF 6
ENDMDL
MODEL 3
REMARK VINA RESULT:    -6.714      3.082      7.948
REMARK INTER + INTRA:         -10.025
REMARK INTER:                  -8.811
REMARK INTRA:                  -1.214
REMARK UNBOUND:                -0.956
REMARK  Name = 
REMARK  8 active torsions:
REMARK  status: ('A' for Active; 'I' for Inactive)
REMARK    1  A    between atoms: C_1  and  C_2
REMARK    2  A    between atoms: C_2  and  N_3
REMARK    3  A    between atoms: C_2  and  C_18
REMARK    4  A    between atoms: N_3  and  C_4
REMARK    5  A    between atoms: C_7  and  C_8
REMARK    6  A    between atoms: C_8  and  N_9
REMARK    7  A    between atoms: N_9  and  C_10
REMARK    8  A    between atoms: N_13  and  C_14
REMARK                            x       y       z     vdW  Elec       q    Type
REMARK                         _______ _______ _______ _____ _____    ______ ____
ROOT
ATOM      1  N   UNL     1      47.295   7.365  11.799  0.00  0.00    +0.000 N 
ATOM      2  H   UNL     1      47.334   8.255  11.307  0.00  0.00    +0.000 HD
ENDROOT
BRANCH   1   3
ATOM      3  C   UNL     1      48.213   7.375  12.841  0.00  0.00    +0.000 A 
ATOM      4  C   UNL     1      47.828   6.700  14.006  0.00  0.00    +0.000 A 
ATOM      5  C   UNL     1      48.666   6.619  15.116  0.00  0.00    +0.000 A 
ATOM      6  C   UNL     1      49.948   7.174  15.081  0.00  0.00    +0.000 A 
ATOM      7  C   UNL     1      50.355   7.827  13.908  0.00  0.00    +0.000 A 
ATOM      8  C   UNL     1      49.493   7.931  12.800  0.00  0.00    +0.000 A 
BRANCH   6   9
ATOM      9  C   UNL     1      50.835   7.064  16.307  0.00  0.00    +0.000 C 
BRANCH   9  10
ATOM     10  N   UNL     1      50.025   6.860  17.506  0.00  0.00    +0.000 NA
ATOM     11  H   UNL     1      49.037   6.884  17.248  0.00  0.00    +0.000 HD
BRANCH  10  12
ATOM     12  C   UNL     1      50.300   5.624  18.237  0.00  0.00    +0.000 C 
ATOM     13  C   UNL     1      51.507   4.835  17.705  0.00  0.00    +0.000 C 
ATOM     14  C   UNL     1      50.979   3.440  17.396  0.00  0.00    +0.000 C 
ATOM     15  N   UNL     1      49.584   3.697  17.054  0.00  0.00    +0.000 NA
ATOM     16  C   UNL     1      48.784   2.480  16.994  0.00  0.00    +0.000 C 
ATOM     17  C   UNL     1      49.120   4.631  18.090  0.00  0.00    +0.000 C 
ENDBRANCH  10  12
ENDBRANCH   9  10
ENDBRANCH   6   9
ENDBRANCH   1   3
BRANCH   1  19
ATOM     18  C   UNL     1      45.004   7.966  11.410  0.00  0.00    +0.000 C 
ATOM     19  C   UNL     1      45.936   6.819  11.883  0.00  0.00    +0.000 C 
BRANCH  19  20
ATOM     20  C   UNL     1      45.646   5.623  10.987  0.00  0.00    +0.000 A 
ATOM     21  C   UNL     1      45.814   5.614   9.611  0.00  0.00    +0.000 A 
ATOM     22  S   UNL     1      45.083   4.264   8.859  0.00  0.00    +0.000 S 
ATOM     23  C   UNL     1      44.540   3.655  10.355  0.00  0.00    +0.000 A 
ATOM     24  N   UNL     1      43.721   2.572  10.433  0.00  0.00    +0.000 NA
ATOM     25  C   UNL     1      43.404   2.235  11.640  0.00  0.00    +0.000 A 
ATOM     26  N   UNL     1      43.877   2.845  12.777  0.00  0.00    +0.000 N 
ATOM     27  C   UNL     1      44.754   3.906  12.745  0.00  0.00    +0.000 A 
ATOM     28  O   UNL     1      45.259   4.362  13.766  0.00  0.00    +0.000 OA
ATOM     29  C   UNL     1      45.037   4.394  11.409  0.00  0.00    +0.000 A 
ATOM     30  H   UNL     1      43.651   2.482  13.690  0.00  0.00    +0.000 HD
ENDBRANCH  19  20
ENDBRANCH   1  19
TORSDOF 6
ENDMDL
MODEL 4
REMARK VINA RESULT:    -6.697      1.888      2.720
REMARK INTER + INTRA:         -10.001
REMARK INTER:                  -9.353
REMARK INTRA:                  -0.648
REMARK UNBOUND:                -0.956
REMARK  Name = 
REMARK  8 active torsions:
REMARK  status: ('A' for Active; 'I' for Inactive)
REMARK    1  A    between atoms: C_1  and  C_2
REMARK    2  A    between atoms: C_2  and  N_3
REMARK    3  A    between atoms: C_2  and  C_18
REMARK    4  A    between atoms: N_3  and  C_4
REMARK    5  A    between atoms: C_7  and  C_8
REMARK    6  A    between atoms: C_8  and  N_9
REMARK    7  A    between atoms: N_9  and  C_10
REMARK    8  A    between atoms: N_13  and  C_14
REMARK                            x       y       z     vdW  Elec       q    Type
REMARK                         _______ _______ _______ _____ _____    ______ ____
ROOT
ATOM      1  N   UNL     1      47.952   5.283  15.285  0.00  0.00    +0.000 N 
ATOM      2  H   UNL     1      48.910   5.022  15.062  0.00  0.00    +0.000 HD
ENDROOT
BRANCH   1   3
ATOM      3  C   UNL     1      47.222   5.405  14.110  0.00  0.00    +0.000 A 
ATOM      4  C   UNL     1      46.371   4.338  13.800  0.00  0.00    +0.000 A 
ATOM      5  C   UNL     1      45.571   4.346  12.660  0.00  0.00    +0.000 A 
ATOM      6  C   UNL     1      45.558   5.454  11.809  0.00  0.00    +0.000 A 
ATOM      7  C   UNL     1      46.385   6.542  12.126  0.00  0.00    +0.000 A 
ATOM      8  C   UNL     1      47.213   6.515  13.263  0.00  0.00    +0.000 A 
BRANCH   6   9
ATOM      9  C   UNL     1      44.671   5.431  10.577  0.00  0.00    +0.000 C 
BRANCH   9  10
ATOM     10  N   UNL     1      45.452   5.076   9.394  0.00  0.00    +0.000 NA
ATOM     11  H   UNL     1      46.399   4.829   9.682  0.00  0.00    +0.000 HD
BRANCH  10  12
ATOM     12  C   UNL     1      44.897   3.989   8.589  0.00  0.00    +0.000 C 
ATOM     13  C   UNL     1      44.592   2.711   9.384  0.00  0.00    +0.000 C 
ATOM     14  C   UNL     1      45.356   1.599   8.677  0.00  0.00    +0.000 C 
ATOM     15  N   UNL     1      46.499   2.308   8.113  0.00  0.00    +0.000 NA
ATOM     16  C   UNL     1      47.237   1.509   7.142  0.00  0.00    +0.000 C 
ATOM     17  C   UNL     1      45.920   3.524   7.524  0.00  0.00    +0.000 C 
ENDBRANCH  10  12
ENDBRANCH   9  10
ENDBRANCH   6   9
ENDBRANCH   1   3
BRANCH   1  19
ATOM     18  C   UNL     1      48.187   3.284  16.592  0.00  0.00    +0.000 C 
ATOM     19  C   UNL     1      47.461   4.653  16.516  0.00  0.00    +0.000 C 
BRANCH  19  20
ATOM     20  C   UNL     1      47.779   5.389  17.809  0.00  0.00    +0.000 A 
ATOM     21  C   UNL     1      46.910   5.499  18.884  0.00  0.00    +0.000 A 
ATOM     22  S   UNL     1      47.411   6.664  20.031  0.00  0.00    +0.000 S 
ATOM     23  C   UNL     1      48.806   7.035  19.125  0.00  0.00    +0.000 A 
ATOM     24  N   UNL     1      49.634   8.058  19.471  0.00  0.00    +0.000 NA
ATOM     25  C   UNL     1      50.649   8.206  18.685  0.00  0.00    +0.000 A 
ATOM     26  N   UNL     1      50.944   7.388  17.620  0.00  0.00    +0.000 N 
ATOM     27  C   UNL     1      50.168   6.307  17.270  0.00  0.00    +0.000 A 
ATOM     28  O   UNL     1      50.507   5.519  16.394  0.00  0.00    +0.000 OA
ATOM     29  C   UNL     1      48.951   6.180  18.052  0.00  0.00    +0.000 A 
ATOM     30  H   UNL     1      51.796   7.513  17.094  0.00  0.00    +0.000 HD
ENDBRANCH  19  20
ENDBRANCH   1  19
TORSDOF 6
ENDMDL
MODEL 5
REMARK VINA RESULT:    -6.552      2.270      3.365
REMARK INTER + INTRA:          -9.806
REMARK INTER:                  -8.513
REMARK INTRA:                  -1.293
REMARK UNBOUND:                -0.956
REMARK  Name = 
REMARK  8 active torsions:
REMARK  status: ('A' for Active; 'I' for Inactive)
REMARK    1  A    between atoms: C_1  and  C_2
REMARK    2  A    between atoms: C_2  and  N_3
REMARK    3  A    between atoms: C_2  and  C_18
REMARK    4  A    between atoms: N_3  and  C_4
REMARK    5  A    between atoms: C_7  and  C_8
REMARK    6  A    between atoms: C_8  and  N_9
REMARK    7  A    between atoms: N_9  and  C_10
REMARK    8  A    between atoms: N_13  and  C_14
REMARK                            x       y       z     vdW  Elec       q    Type
REMARK                         _______ _______ _______ _____ _____    ______ ____
ROOT
ATOM      1  N   UNL     1      49.966   7.363  13.841  0.00  0.00    +0.000 N 
ATOM      2  H   UNL     1      50.668   7.035  13.181  0.00  0.00    +0.000 HD
ENDROOT
BRANCH   1   3
ATOM      3  C   UNL     1      48.700   7.139  13.315  0.00  0.00    +0.000 A 
ATOM      4  C   UNL     1      48.100   8.227  12.671  0.00  0.00    +0.000 A 
ATOM      5  C   UNL     1      46.840   8.128  12.085  0.00  0.00    +0.000 A 
ATOM      6  C   UNL     1      46.152   6.911  12.081  0.00  0.00    +0.000 A 
ATOM      7  C   UNL     1      46.758   5.806  12.698  0.00  0.00    +0.000 A 
ATOM      8  C   UNL     1      48.018   5.921  13.314  0.00  0.00    +0.000 A 
BRANCH   6   9
ATOM      9  C   UNL     1      44.783   6.838  11.430  0.00  0.00    +0.000 C 
BRANCH   9  10
ATOM     10  N   UNL     1      43.765   6.495  12.421  0.00  0.00    +0.000 NA
ATOM     11  H   UNL     1      43.123   7.282  12.525  0.00  0.00    +0.000 HD
BRANCH  10  12
ATOM     12  C   UNL     1      42.997   5.286  12.127  0.00  0.00    +0.000 C 
ATOM     13  C   UNL     1      43.274   4.117  13.085  0.00  0.00    +0.000 C 
ATOM     14  C   UNL     1      43.688   2.951  12.198  0.00  0.00    +0.000 C 
ATOM     15  N   UNL     1      44.306   3.622  11.060  0.00  0.00    +0.000 NA
ATOM     16  C   UNL     1      44.532   2.727   9.931  0.00  0.00    +0.000 C 
ATOM     17  C   UNL     1      43.384   4.720  10.739  0.00  0.00    +0.000 C 
ENDBRANCH  10  12
ENDBRANCH   9  10
ENDBRANCH   6   9
ENDBRANCH   1   3
BRANCH   1  19
ATOM     18  C   UNL     1      51.658   7.938  15.442  0.00  0.00    +0.000 C 
ATOM     19  C   UNL     1      50.345   7.136  15.239  0.00  0.00    +0.000 C 
BRANCH  19  20
ATOM     20  C   UNL     1      49.359   7.638  16.284  0.00  0.00    +0.000 A 
ATOM     21  C   UNL     1      49.078   8.975  16.519  0.00  0.00    +0.000 A 
ATOM     22  S   UNL     1      48.207   9.229  17.968  0.00  0.00    +0.000 S 
ATOM     23  C   UNL     1      48.175   7.559  18.306  0.00  0.00    +0.000 A 
ATOM     24  N   UNL     1      47.689   7.074  19.480  0.00  0.00    +0.000 NA
ATOM     25  C   UNL     1      47.731   5.787  19.579  0.00  0.00    +0.000 A 
ATOM     26  N   UNL     1      48.160   4.936  18.588  0.00  0.00    +0.000 N 
ATOM     27  C   UNL     1      48.604   5.379  17.363  0.00  0.00    +0.000 A 
ATOM     28  O   UNL     1      48.870   4.606  16.449  0.00  0.00    +0.000 OA
ATOM     29  C   UNL     1      48.689   6.824  17.257  0.00  0.00    +0.000 A 
ATOM     30  H   UNL     1      48.093   3.936  18.701  0.00  0.00    +0.000 HD
ENDBRANCH  19  20
ENDBRANCH   1  19
TORSDOF 6
ENDMDL
MODEL 6
REMARK VINA RESULT:    -6.286      3.106      8.405
REMARK INTER + INTRA:          -9.447
REMARK INTER:                  -8.923
REMARK INTRA:                  -0.524
REMARK UNBOUND:                -0.956
REMARK  Name = 
REMARK  8 active torsions:
REMARK  status: ('A' for Active; 'I' for Inactive)
REMARK    1  A    between atoms: C_1  and  C_2
REMARK    2  A    between atoms: C_2  and  N_3
REMARK    3  A    between atoms: C_2  and  C_18
REMARK    4  A    between atoms: N_3  and  C_4
REMARK    5  A    between atoms: C_7  and  C_8
REMARK    6  A    between atoms: C_8  and  N_9
REMARK    7  A    between atoms: N_9  and  C_10
REMARK    8  A    between atoms: N_13  and  C_14
REMARK                            x       y       z     vdW  Elec       q    Type
REMARK                         _______ _______ _______ _____ _____    ______ ____
ROOT
ATOM      1  N   UNL     1      46.646   6.373  11.506  0.00  0.00    +0.000 N 
ATOM      2  H   UNL     1      46.754   6.792  10.585  0.00  0.00    +0.000 HD
ENDROOT
BRANCH   1   3
ATOM      3  C   UNL     1      47.677   6.803  12.331  0.00  0.00    +0.000 A 
ATOM      4  C   UNL     1      47.628   6.362  13.659  0.00  0.00    +0.000 A 
ATOM      5  C   UNL     1      48.612   6.707  14.582  0.00  0.00    +0.000 A 
ATOM      6  C   UNL     1      49.716   7.471  14.193  0.00  0.00    +0.000 A 
ATOM      7  C   UNL     1      49.791   7.893  12.857  0.00  0.00    +0.000 A 
ATOM      8  C   UNL     1      48.778   7.566  11.936  0.00  0.00    +0.000 A 
BRANCH   6   9
ATOM      9  C   UNL     1      50.771   7.825  15.225  0.00  0.00    +0.000 C 
BRANCH   9  10
ATOM     10  N   UNL     1      51.588   6.655  15.540  0.00  0.00    +0.000 NA
ATOM     11  H   UNL     1      52.554   6.840  15.263  0.00  0.00    +0.000 HD
BRANCH  10  12
ATOM     12  C   UNL     1      51.562   6.242  16.943  0.00  0.00    +0.000 C 
ATOM     13  C   UNL     1      52.681   5.264  17.330  0.00  0.00    +0.000 C 
ATOM     14  C   UNL     1      51.976   4.052  17.925  0.00  0.00    +0.000 C 
ATOM     15  N   UNL     1      50.697   4.052  17.223  0.00  0.00    +0.000 NA
ATOM     16  C   UNL     1      49.723   3.149  17.823  0.00  0.00    +0.000 C 
ATOM     17  C   UNL     1      50.265   5.457  17.254  0.00  0.00    +0.000 C 
ENDBRANCH  10  12
ENDBRANCH   9  10
ENDBRANCH   6   9
ENDBRANCH   1   3
BRANCH   1  19
ATOM     18  C   UNL     1      44.509   7.428  11.230  0.00  0.00    +0.000 C 
ATOM     19  C   UNL     1      45.243   6.245  11.915  0.00  0.00    +0.000 C 
BRANCH  19  20
ATOM     20  C   UNL     1      44.536   4.973  11.467  0.00  0.00    +0.000 A 
ATOM     21  C   UNL     1      43.626   4.268  12.240  0.00  0.00    +0.000 A 
ATOM     22  S   UNL     1      43.276   2.718  11.610  0.00  0.00    +0.000 S 
ATOM     23  C   UNL     1      44.320   2.961  10.285  0.00  0.00    +0.000 A 
ATOM     24  N   UNL     1      44.600   1.966   9.401  0.00  0.00    +0.000 NA
ATOM     25  C   UNL     1      45.405   2.312   8.451  0.00  0.00    +0.000 A 
ATOM     26  N   UNL     1      45.908   3.579   8.271  0.00  0.00    +0.000 N 
ATOM     27  C   UNL     1      45.605   4.629   9.106  0.00  0.00    +0.000 A 
ATOM     28  O   UNL     1      45.966   5.777   8.865  0.00  0.00    +0.000 OA
ATOM     29  C   UNL     1      44.804   4.253  10.256  0.00  0.00    +0.000 A 
ATOM     30  H   UNL     1      46.470   3.800   7.463  0.00  0.00    +0.000 HD
ENDBRANCH  19  20
ENDBRANCH   1  19
TORSDOF 6
ENDMDL
MODEL 7
REMARK VINA RESULT:    -6.123      2.085      2.742
REMARK INTER + INTRA:          -9.227
REMARK INTER:                  -8.349
REMARK INTRA:                  -0.878
REMARK UNBOUND:                -0.956
REMARK  Name = 
REMARK  8 active torsions:
REMARK  status: ('A' for Active; 'I' for Inactive)
REMARK    1  A    between atoms: C_1  and  C_2
REMARK    2  A    between atoms: C_2  and  N_3
REMARK    3  A    between atoms: C_2  and  C_18
REMARK    4  A    between atoms: N_3  and  C_4
REMARK    5  A    between atoms: C_7  and  C_8
REMARK    6  A    between atoms: C_8  and  N_9
REMARK    7  A    between atoms: N_9  and  C_10
REMARK    8  A    between atoms: N_13  and  C_14
REMARK                            x       y       z     vdW  Elec       q    Type
REMARK                         _______ _______ _______ _____ _____    ______ ____
ROOT
ATOM      1  N   UNL     1      46.804   7.376  13.648  0.00  0.00    +0.000 N 
ATOM      2  H   UNL     1      46.153   8.139  13.821  0.00  0.00    +0.000 HD
ENDROOT
BRANCH   1   3
ATOM      3  C   UNL     1      46.143   6.347  12.990  0.00  0.00    +0.000 A 
ATOM      4  C   UNL     1      45.504   6.693  11.793  0.00  0.00    +0.000 A 
ATOM      5  C   UNL     1      44.823   5.749  11.028  0.00  0.00    +0.000 A 
ATOM      6  C   UNL     1      44.799   4.405  11.411  0.00  0.00    +0.000 A 
ATOM      7  C   UNL     1      45.462   4.043  12.593  0.00  0.00    +0.000 A 
ATOM      8  C   UNL     1      46.124   5.006  13.378  0.00  0.00    +0.000 A 
BRANCH   6   9
ATOM      9  C   UNL     1      44.050   3.404  10.552  0.00  0.00    +0.000 C 
BRANCH   9  10
ATOM     10  N   UNL     1      44.928   2.297  10.177  0.00  0.00    +0.000 NA
ATOM     11  H   UNL     1      44.679   1.474  10.728  0.00  0.00    +0.000 HD
BRANCH  10  12
ATOM     12  C   UNL     1      44.911   1.946   8.758  0.00  0.00    +0.000 C 
ATOM     13  C   UNL     1      46.018   0.968   8.338  0.00  0.00    +0.000 C 
ATOM     14  C   UNL     1      46.765   1.659   7.205  0.00  0.00    +0.000 C 
ATOM     15  N   UNL     1      46.597   3.071   7.528  0.00  0.00    +0.000 NA
ATOM     16  C   UNL     1      46.983   3.952   6.433  0.00  0.00    +0.000 C 
ATOM     17  C   UNL     1      45.177   3.198   7.885  0.00  0.00    +0.000 C 
ENDBRANCH  10  12
ENDBRANCH   9  10
ENDBRANCH   6   9
ENDBRANCH   1   3
BRANCH   1  19
ATOM     18  C   UNL     1      47.976   8.884  12.195  0.00  0.00    +0.000 C 
ATOM     19  C   UNL     1      48.158   7.842  13.330  0.00  0.00    +0.000 C 
BRANCH  19  20
ATOM     20  C   UNL     1      48.899   8.547  14.457  0.00  0.00    +0.000 A 
ATOM     21  C   UNL     1      49.166   9.907  14.491  0.00  0.00    +0.000 A 
ATOM     22  S   UNL     1      50.301  10.334  15.696  0.00  0.00    +0.000 S 
ATOM     23  C   UNL     1      50.448   8.715  16.208  0.00  0.00    +0.000 A 
ATOM     24  N   UNL     1      51.367   8.339  17.138  0.00  0.00    +0.000 NA
ATOM     25  C   UNL     1      51.349   7.078  17.420  0.00  0.00    +0.000 A 
ATOM     26  N   UNL     1      50.456   6.170  16.901  0.00  0.00    +0.000 N 
ATOM     27  C   UNL     1      49.473   6.518  16.003  0.00  0.00    +0.000 A 
ATOM     28  O   UNL     1      48.611   5.722  15.642  0.00  0.00    +0.000 OA
ATOM     29  C   UNL     1      49.539   7.900  15.566  0.00  0.00    +0.000 A 
ATOM     30  H   UNL     1      50.447   5.214  17.223  0.00  0.00    +0.000 HD
ENDBRANCH  19  20
ENDBRANCH   1  19
TORSDOF 6
ENDMDL
MODEL 8
REMARK VINA RESULT:    -5.976      1.771      2.518
REMARK INTER + INTRA:          -9.028
REMARK INTER:                  -8.178
REMARK INTRA:                  -0.850
REMARK UNBOUND:                -0.956
REMARK  Name = 
REMARK  8 active torsions:
REMARK  status: ('A' for Active; 'I' for Inactive)
REMARK    1  A    between atoms: C_1  and  C_2
REMARK    2  A    between atoms: C_2  and  N_3
REMARK    3  A    between atoms: C_2  and  C_18
REMARK    4  A    between atoms: N_3  and  C_4
REMARK    5  A    between atoms: C_7  and  C_8
REMARK    6  A    between atoms: C_8  and  N_9
REMARK    7  A    between atoms: N_9  and  C_10
REMARK    8  A    between atoms: N_13  and  C_14
REMARK                            x       y       z     vdW  Elec       q    Type
REMARK                         _______ _______ _______ _____ _____    ______ ____
ROOT
ATOM      1  N   UNL     1      49.358   7.587  15.018  0.00  0.00    +0.000 N 
ATOM      2  H   UNL     1      50.159   8.145  14.730  0.00  0.00    +0.000 HD
ENDROOT
BRANCH   1   3
ATOM      3  C   UNL     1      48.589   7.278  13.904  0.00  0.00    +0.000 A 
ATOM      4  C   UNL     1      47.768   6.150  14.017  0.00  0.00    +0.000 A 
ATOM      5  C   UNL     1      46.933   5.744  12.978  0.00  0.00    +0.000 A 
ATOM      6  C   UNL     1      46.854   6.488  11.798  0.00  0.00    +0.000 A 
ATOM      7  C   UNL     1      47.651   7.637  11.686  0.00  0.00    +0.000 A 
ATOM      8  C   UNL     1      48.514   8.025  12.727  0.00  0.00    +0.000 A 
BRANCH   6   9
ATOM      9  C   UNL     1      45.932   6.019  10.688  0.00  0.00    +0.000 C 
BRANCH   9  10
ATOM     10  N   UNL     1      45.101   4.909  11.151  0.00  0.00    +0.000 NA
ATOM     11  H   UNL     1      44.433   5.258  11.839  0.00  0.00    +0.000 HD
BRANCH  10  12
ATOM     12  C   UNL     1      44.378   4.196  10.099  0.00  0.00    +0.000 C 
ATOM     13  C   UNL     1      44.275   2.680  10.323  0.00  0.00    +0.000 C 
ATOM     14  C   UNL     1      44.857   2.042   9.068  0.00  0.00    +0.000 C 
ATOM     15  N   UNL     1      45.832   3.035   8.630  0.00  0.00    +0.000 NA
ATOM     16  C   UNL     1      46.326   2.786   7.281  0.00  0.00    +0.000 C 
ATOM     17  C   UNL     1      45.125   4.318   8.748  0.00  0.00    +0.000 C 
ENDBRANCH  10  12
ENDBRANCH   9  10
ENDBRANCH   6   9
ENDBRANCH   1   3
BRANCH   1  19
ATOM     18  C   UNL     1      51.198   6.810  16.349  0.00  0.00    +0.000 C 
ATOM     19  C   UNL     1      49.674   6.654  16.105  0.00  0.00    +0.000 C 
BRANCH  19  20
ATOM     20  C   UNL     1      48.988   6.929  17.435  0.00  0.00    +0.000 A 
ATOM     21  C   UNL     1      48.358   8.120  17.762  0.00  0.00    +0.000 A 
ATOM     22  S   UNL     1      47.994   8.247  19.427  0.00  0.00    +0.000 S 
ATOM     23  C   UNL     1      48.657   6.709  19.745  0.00  0.00    +0.000 A 
ATOM     24  N   UNL     1      48.793   6.236  21.013  0.00  0.00    +0.000 NA
ATOM     25  C   UNL     1      49.308   5.053  21.084  0.00  0.00    +0.000 A 
ATOM     26  N   UNL     1      49.644   4.276  20.001  0.00  0.00    +0.000 N 
ATOM     27  C   UNL     1      49.468   4.692  18.700  0.00  0.00    +0.000 A 
ATOM     28  O   UNL     1      49.661   3.944  17.747  0.00  0.00    +0.000 OA
ATOM     29  C   UNL     1      49.009   6.063  18.578  0.00  0.00    +0.000 A 
ATOM     30  H   UNL     1      49.969   3.330  20.125  0.00  0.00    +0.000 HD
ENDBRANCH  19  20
ENDBRANCH   1  19
TORSDOF 6
ENDMDL
MODEL 9
REMARK VINA RESULT:    -5.938      2.849      3.936
REMARK INTER + INTRA:          -8.977
REMARK INTER:                  -8.123
REMARK INTRA:                  -0.854
REMARK UNBOUND:                -0.956
REMARK  Name = 
REMARK  8 active torsions:
REMARK  status: ('A' for Active; 'I' for Inactive)
REMARK    1  A    between atoms: C_1  and  C_2
REMARK    2  A    between atoms: C_2  and  N_3
REMARK    3  A    between atoms: C_2  and  C_18
REMARK    4  A    between atoms: N_3  and  C_4
REMARK    5  A    between atoms: C_7  and  C_8
REMARK    6  A    between atoms: C_8  and  N_9
REMARK    7  A    between atoms: N_9  and  C_10
REMARK    8  A    between atoms: N_13  and  C_14
REMARK                            x       y       z     vdW  Elec       q    Type
REMARK                         _______ _______ _______ _____ _____    ______ ____
ROOT
ATOM      1  N   UNL     1      46.785   7.456  13.636  0.00  0.00    +0.000 N 
ATOM      2  H   UNL     1      46.117   8.166  13.928  0.00  0.00    +0.000 HD
ENDROOT
BRANCH   1   3
ATOM      3  C   UNL     1      46.112   6.427  12.991  0.00  0.00    +0.000 A 
ATOM      4  C   UNL     1      45.404   6.783  11.837  0.00  0.00    +0.000 A 
ATOM      5  C   UNL     1      44.703   5.841  11.088  0.00  0.00    +0.000 A 
ATOM      6  C   UNL     1      44.728   4.489  11.443  0.00  0.00    +0.000 A 
ATOM      7  C   UNL     1      45.459   4.117  12.580  0.00  0.00    +0.000 A 
ATOM      8  C   UNL     1      46.141   5.078  13.350  0.00  0.00    +0.000 A 
BRANCH   6   9
ATOM      9  C   UNL     1      43.956   3.489  10.602  0.00  0.00    +0.000 C 
BRANCH   9  10
ATOM     10  N   UNL     1      44.808   2.356  10.247  0.00  0.00    +0.000 NA
ATOM     11  H   UNL     1      44.515   1.539  10.785  0.00  0.00    +0.000 HD
BRANCH  10  12
ATOM     12  C   UNL     1      44.822   2.014   8.825  0.00  0.00    +0.000 C 
ATOM     13  C   UNL     1      45.920   1.014   8.431  0.00  0.00    +0.000 C 
ATOM     14  C   UNL     1      46.712   1.695   7.322  0.00  0.00    +0.000 C 
ATOM     15  N   UNL     1      46.566   3.109   7.650  0.00  0.00    +0.000 NA
ATOM     16  C   UNL     1      47.001   3.987   6.570  0.00  0.00    +0.000 C 
ATOM     17  C   UNL     1      45.139   3.264   7.968  0.00  0.00    +0.000 C 
ENDBRANCH  10  12
ENDBRANCH   9  10
ENDBRANCH   6   9
ENDBRANCH   1   3
BRANCH   1  19
ATOM     18  C   UNL     1      47.901   9.560  13.340  0.00  0.00    +0.000 C 
ATOM     19  C   UNL     1      48.066   8.023  13.201  0.00  0.00    +0.000 C 
BRANCH  19  20
ATOM     20  C   UNL     1      49.280   7.636  14.034  0.00  0.00    +0.000 A 
ATOM     21  C   UNL     1      49.215   7.042  15.285  0.00  0.00    +0.000 A 
ATOM     22  S   UNL     1      50.716   7.051  16.105  0.00  0.00    +0.000 S 
ATOM     23  C   UNL     1      51.485   7.834  14.802  0.00  0.00    +0.000 A 
ATOM     24  N   UNL     1      52.772   8.268  14.886  0.00  0.00    +0.000 NA
ATOM     25  C   UNL     1      53.209   8.838  13.812  0.00  0.00    +0.000 A 
ATOM     26  N   UNL     1      52.497   8.960  12.642  0.00  0.00    +0.000 N 
ATOM     27  C   UNL     1      51.215   8.483  12.494  0.00  0.00    +0.000 A 
ATOM     28  O   UNL     1      50.638   8.494  11.411  0.00  0.00    +0.000 OA
ATOM     29  C   UNL     1      50.643   7.948  13.715  0.00  0.00    +0.000 A 
ATOM     30  H   UNL     1      52.927   9.347  11.815  0.00  0.00    +0.000 HD
ENDBRANCH  19  20
ENDBRANCH   1  19
TORSDOF 6
ENDMDL
