MODEL 1
REMARK VINA RESULT:    -7.868      0.000      0.000
REMARK INTER + INTRA:          -9.655
REMARK INTER:                  -9.247
REMARK INTRA:                  -0.408
REMARK UNBOUND:                -0.408
REMARK  Name = 
REMARK  3 active torsions:
REMARK  status: ('A' for Active; 'I' for Inactive)
REMARK    1  A    between atoms: C_3  and  N_4
REMARK    2  A    between atoms: N_4  and  C_5
REMARK    3  A    between atoms: C_5  and  C_6
REMARK                            x       y       z     vdW  Elec       q    Type
REMARK                         _______ _______ _______ _____ _____    ______ ____
ROOT
ATOM      1  C   UNL     1      43.485   3.921  12.399  0.00  0.00    +0.000 A 
ATOM      2  C   UNL     1      43.622   4.230  11.057  0.00  0.00    +0.000 A 
ATOM      3  C   UNL     1      44.845   4.689  10.591  0.00  0.00    +0.000 A 
ATOM      4  N   UNL     1      45.892   4.883  11.420  0.00  0.00    +0.000 NA
ATOM      5  C   UNL     1      45.760   4.640  12.745  0.00  0.00    +0.000 A 
ATOM      6  N   UNL     1      46.778   5.009  13.605  0.00  0.00    +0.000 N 
ATOM      7  C   UNL     1      47.135   4.230  14.796  0.00  0.00    +0.000 C 
ATOM      8  C   UNL     1      47.638   5.202  15.878  0.00  0.00    +0.000 C 
ATOM      9  O   UNL     1      48.743   5.993  15.406  0.00  0.00    +0.000 OA
ATOM     10  C   UNL     1      48.364   6.743  14.234  0.00  0.00    +0.000 C 
ATOM     11  C   UNL     1      47.889   5.823  13.094  0.00  0.00    +0.000 C 
ATOM     12  C   UNL     1      44.565   4.131  13.247  0.00  0.00    +0.000 A 
ENDROOT
BRANCH   3  13
ATOM     13  N   UNL     1      44.965   4.936   9.224  0.00  0.00    +0.000 N 
ATOM     14  H   UNL     1      45.751   5.528   8.986  0.00  0.00    +0.000 HD
BRANCH  13  15
ATOM     15  C   UNL     1      44.644   3.871   8.294  0.00  0.00    +0.000 C 
BRANCH  15  16
ATOM     16  C   UNL     1      45.751   2.941   7.883  0.00  0.00    +0.000 A 
ATOM     17  C   UNL     1      46.718   3.413   6.988  0.00  0.00    +0.000 A 
ATOM     18  C   UNL     1      47.734   2.567   6.588  0.00  0.00    +0.000 A 
ATOM     19  N   UNL     1      47.836   1.302   7.034  0.00  0.00    +0.000 NA
ATOM     20  N   UNL     1      46.903   0.828   7.904  0.00  0.00    +0.000 NA
ATOM     21  C   UNL     1      45.888   1.631   8.305  0.00  0.00    +0.000 A 
ENDBRANCH  15  16
ENDBRANCH  13  15
ENDBRANCH   3  13
TORSDOF 3
ENDMDL
MODEL 2
REMARK VINA RESULT:    -7.731      1.203      1.413
REMARK INTER + INTRA:          -9.495
REMARK INTER:                  -9.091
REMARK INTRA:                  -0.404
REMARK UNBOUND:                -0.408
REMARK  Name = 
REMARK  3 active torsions:
REMARK  status: ('A' for Active; 'I' for Inactive)
REMARK    1  A    between atoms: C_3  and  N_4
REMARK    2  A    between atoms: N_4  and  C_5
REMARK    3  A    between atoms: C_5  and  C_6
REMARK                            x       y       z     vdW  Elec       q    Type
REMARK                         _______ _______ _______ _____ _____    ______ ____
ROOT
ATOM      1  C   UNL     1      43.481   4.093  12.930  0.00  0.00    +0.000 A 
ATOM      2  C   UNL     1      43.246   3.797  11.598  0.00  0.00    +0.000 A 
ATOM      3  C   UNL     1      44.180   4.178  10.647  0.00  0.00    +0.000 A 
ATOM      4  N   UNL     1      45.291   4.866  10.980  0.00  0.00    +0.000 NA
ATOM      5  C   UNL     1      45.511   5.213  12.270  0.00  0.00    +0.000 A 
ATOM      6  N   UNL     1      46.557   6.066  12.573  0.00  0.00    +0.000 N 
ATOM      7  C   UNL     1      47.348   5.951  13.803  0.00  0.00    +0.000 C 
ATOM      8  C   UNL     1      47.798   7.361  14.223  0.00  0.00    +0.000 C 
ATOM      9  O   UNL     1      48.534   8.015  13.175  0.00  0.00    +0.000 OA
ATOM     10  C   UNL     1      47.734   8.111  11.979  0.00  0.00    +0.000 C 
ATOM     11  C   UNL     1      47.283   6.725  11.480  0.00  0.00    +0.000 C 
ATOM     12  C   UNL     1      44.623   4.808  13.264  0.00  0.00    +0.000 A 
ENDROOT
BRANCH   3  13
ATOM     13  N   UNL     1      43.939   3.814   9.323  0.00  0.00    +0.000 N 
ATOM     14  H   UNL     1      42.971   3.913   9.045  0.00  0.00    +0.000 HD
BRANCH  13  15
ATOM     15  C   UNL     1      44.941   4.126   8.323  0.00  0.00    +0.000 C 
BRANCH  15  16
ATOM     16  C   UNL     1      45.877   3.028   7.902  0.00  0.00    +0.000 A 
ATOM     17  C   UNL     1      46.844   3.314   6.932  0.00  0.00    +0.000 A 
ATOM     18  C   UNL     1      47.703   2.312   6.522  0.00  0.00    +0.000 A 
ATOM     19  N   UNL     1      47.651   1.068   7.028  0.00  0.00    +0.000 NA
ATOM     20  N   UNL     1      46.715   0.772   7.971  0.00  0.00    +0.000 NA
ATOM     21  C   UNL     1      45.851   1.732   8.384  0.00  0.00    +0.000 A 
ENDBRANCH  15  16
ENDBRANCH  13  15
ENDBRANCH   3  13
TORSDOF 3
ENDMDL
MODEL 3
REMARK VINA RESULT:    -7.029      2.495      3.319
REMARK INTER + INTRA:          -8.670
REMARK INTER:                  -8.237
REMARK INTRA:                  -0.432
REMARK UNBOUND:                -0.408
REMARK  Name = 
REMARK  3 active torsions:
REMARK  status: ('A' for Active; 'I' for Inactive)
REMARK    1  A    between atoms: C_3  and  N_4
REMARK    2  A    between atoms: N_4  and  C_5
REMARK    3  A    between atoms: C_5  and  C_6
REMARK                            x       y       z     vdW  Elec       q    Type
REMARK                         _______ _______ _______ _____ _____    ______ ____
ROOT
ATOM      1  C   UNL     1      47.023   4.069  13.721  0.00  0.00    +0.000 A 
ATOM      2  C   UNL     1      46.102   3.258  13.080  0.00  0.00    +0.000 A 
ATOM      3  C   UNL     1      45.313   3.795  12.074  0.00  0.00    +0.000 A 
ATOM      4  N   UNL     1      45.389   5.098  11.733  0.00  0.00    +0.000 NA
ATOM      5  C   UNL     1      46.244   5.919  12.385  0.00  0.00    +0.000 A 
ATOM      6  N   UNL     1      46.187   7.281  12.149  0.00  0.00    +0.000 N 
ATOM      7  C   UNL     1      47.378   8.139  12.146  0.00  0.00    +0.000 C 
ATOM      8  C   UNL     1      46.972   9.533  12.655  0.00  0.00    +0.000 C 
ATOM      9  O   UNL     1      45.907  10.094  11.867  0.00  0.00    +0.000 OA
ATOM     10  C   UNL     1      44.754   9.229  11.886  0.00  0.00    +0.000 C 
ATOM     11  C   UNL     1      45.083   7.824  11.347  0.00  0.00    +0.000 C 
ATOM     12  C   UNL     1      47.090   5.411  13.368  0.00  0.00    +0.000 A 
ENDROOT
BRANCH   3  13
ATOM     13  N   UNL     1      44.436   2.936  11.412  0.00  0.00    +0.000 N 
ATOM     14  H   UNL     1      43.722   2.545  12.013  0.00  0.00    +0.000 HD
BRANCH  13  15
ATOM     15  C   UNL     1      44.046   3.253  10.053  0.00  0.00    +0.000 C 
BRANCH  15  16
ATOM     16  C   UNL     1      45.089   3.133   8.978  0.00  0.00    +0.000 A 
ATOM     17  C   UNL     1      45.634   1.870   8.718  0.00  0.00    +0.000 A 
ATOM     18  C   UNL     1      46.605   1.743   7.743  0.00  0.00    +0.000 A 
ATOM     19  N   UNL     1      47.045   2.792   7.025  0.00  0.00    +0.000 NA
ATOM     20  N   UNL     1      46.526   4.027   7.266  0.00  0.00    +0.000 NA
ATOM     21  C   UNL     1      45.581   4.183   8.224  0.00  0.00    +0.000 A 
ENDBRANCH  15  16
ENDBRANCH  13  15
ENDBRANCH   3  13
TORSDOF 3
ENDMDL
MODEL 4
REMARK VINA RESULT:    -6.668      1.782      3.155
REMARK INTER + INTRA:          -8.245
REMARK INTER:                  -8.085
REMARK INTRA:                  -0.160
REMARK UNBOUND:                -0.408
REMARK  Name = 
REMARK  3 active torsions:
REMARK  status: ('A' for Active; 'I' for Inactive)
REMARK    1  A    between atoms: C_3  and  N_4
REMARK    2  A    between atoms: N_4  and  C_5
REMARK    3  A    between atoms: C_5  and  C_6
REMARK                            x       y       z     vdW  Elec       q    Type
REMARK                         _______ _______ _______ _____ _____    ______ ____
ROOT
ATOM      1  C   UNL     1      46.975   6.354  12.749  0.00  0.00    +0.000 A 
ATOM      2  C   UNL     1      46.075   5.481  12.161  0.00  0.00    +0.000 A 
ATOM      3  C   UNL     1      45.691   4.341  12.850  0.00  0.00    +0.000 A 
ATOM      4  N   UNL     1      46.204   4.038  14.060  0.00  0.00    +0.000 NA
ATOM      5  C   UNL     1      47.126   4.850  14.627  0.00  0.00    +0.000 A 
ATOM      6  N   UNL     1      47.772   4.440  15.780  0.00  0.00    +0.000 N 
ATOM      7  C   UNL     1      48.165   5.369  16.845  0.00  0.00    +0.000 C 
ATOM      8  C   UNL     1      49.454   4.841  17.498  0.00  0.00    +0.000 C 
ATOM      9  O   UNL     1      49.285   3.501  17.993  0.00  0.00    +0.000 OA
ATOM     10  C   UNL     1      48.897   2.612  16.926  0.00  0.00    +0.000 C 
ATOM     11  C   UNL     1      47.585   3.063  16.255  0.00  0.00    +0.000 C 
ATOM     12  C   UNL     1      47.504   6.031  13.992  0.00  0.00    +0.000 A 
ENDROOT
BRANCH   3  13
ATOM     13  N   UNL     1      44.741   3.514  12.253  0.00  0.00    +0.000 N 
ATOM     14  H   UNL     1      44.127   3.057  12.916  0.00  0.00    +0.000 HD
BRANCH  13  15
ATOM     15  C   UNL     1      44.152   3.927  10.994  0.00  0.00    +0.000 C 
BRANCH  15  16
ATOM     16  C   UNL     1      44.892   3.591   9.730  0.00  0.00    +0.000 A 
ATOM     17  C   UNL     1      45.161   2.246   9.454  0.00  0.00    +0.000 A 
ATOM     18  C   UNL     1      45.853   1.920   8.304  0.00  0.00    +0.000 A 
ATOM     19  N   UNL     1      46.275   2.850   7.430  0.00  0.00    +0.000 NA
ATOM     20  N   UNL     1      46.023   4.164   7.684  0.00  0.00    +0.000 NA
ATOM     21  C   UNL     1      45.356   4.513   8.810  0.00  0.00    +0.000 A 
ENDBRANCH  15  16
ENDBRANCH  13  15
ENDBRANCH   3  13
TORSDOF 3
ENDMDL
MODEL 5
REMARK VINA RESULT:    -6.561      3.040      6.202
REMARK INTER + INTRA:          -8.120
REMARK INTER:                  -7.866
REMARK INTRA:                  -0.254
REMARK UNBOUND:                -0.408
REMARK  Name = 
REMARK  3 active torsions:
REMARK  status: ('A' for Active; 'I' for Inactive)
REMARK    1  A    between atoms: C_3  and  N_4
REMARK    2  A    between atoms: N_4  and  C_5
REMARK    3  A    between atoms: C_5  and  C_6
REMARK                            x       y       z     vdW  Elec       q    Type
REMARK                         _______ _______ _______ _____ _____    ______ ____
ROOT
ATOM      1  C   UNL     1      43.513   3.525  12.589  0.00  0.00    +0.000 A 
ATOM      2  C   UNL     1      43.218   4.877  12.538  0.00  0.00    +0.000 A 
ATOM      3  C   UNL     1      43.398   5.563  11.346  0.00  0.00    +0.000 A 
ATOM      4  N   UNL     1      43.893   4.956  10.247  0.00  0.00    +0.000 NA
ATOM      5  C   UNL     1      44.239   3.648  10.294  0.00  0.00    +0.000 A 
ATOM      6  N   UNL     1      44.907   3.087   9.221  0.00  0.00    +0.000 N 
ATOM      7  C   UNL     1      44.697   1.700   8.791  0.00  0.00    +0.000 C 
ATOM      8  C   UNL     1      46.020   1.165   8.216  0.00  0.00    +0.000 C 
ATOM      9  O   UNL     1      46.501   1.991   7.140  0.00  0.00    +0.000 OA
ATOM     10  C   UNL     1      46.695   3.346   7.591  0.00  0.00    +0.000 C 
ATOM     11  C   UNL     1      45.393   3.958   8.143  0.00  0.00    +0.000 C 
ATOM     12  C   UNL     1      44.029   2.910  11.456  0.00  0.00    +0.000 A 
ENDROOT
BRANCH   3  13
ATOM     13  N   UNL     1      43.037   6.909  11.314  0.00  0.00    +0.000 N 
ATOM     14  H   UNL     1      42.347   7.160  12.010  0.00  0.00    +0.000 HD
BRANCH  13  15
ATOM     15  C   UNL     1      44.058   7.895  11.019  0.00  0.00    +0.000 C 
BRANCH  15  16
ATOM     16  C   UNL     1      45.308   7.881  11.853  0.00  0.00    +0.000 A 
ATOM     17  C   UNL     1      46.309   6.956  11.535  0.00  0.00    +0.000 A 
ATOM     18  C   UNL     1      47.459   6.919  12.301  0.00  0.00    +0.000 A 
ATOM     19  N   UNL     1      47.658   7.747  13.341  0.00  0.00    +0.000 NA
ATOM     20  N   UNL     1      46.693   8.651  13.665  0.00  0.00    +0.000 NA
ATOM     21  C   UNL     1      45.550   8.702  12.939  0.00  0.00    +0.000 A 
ENDBRANCH  15  16
ENDBRANCH  13  15
ENDBRANCH   3  13
TORSDOF 3
ENDMDL
MODEL 6
REMARK VINA RESULT:    -6.426      3.572      7.104
REMARK INTER + INTRA:          -7.961
REMARK INTER:                  -7.530
REMARK INTRA:                  -0.431
REMARK UNBOUND:                -0.408
REMARK  Name = 
REMARK  3 active torsions:
REMARK  status: ('A' for Active; 'I' for Inactive)
REMARK    1  A    between atoms: C_3  and  N_4
REMARK    2  A    between atoms: N_4  and  C_5
REMARK    3  A    between atoms: C_5  and  C_6
REMARK                            x       y       z     vdW  Elec       q    Type
REMARK                         _______ _______ _______ _____ _____    ______ ____
ROOT
ATOM      1  C   UNL     1      48.287   7.414  12.344  0.00  0.00    +0.000 A 
ATOM      2  C   UNL     1      48.635   7.303  13.680  0.00  0.00    +0.000 A 
ATOM      3  C   UNL     1      47.931   6.425  14.491  0.00  0.00    +0.000 A 
ATOM      4  N   UNL     1      46.889   5.708  14.022  0.00  0.00    +0.000 NA
ATOM      5  C   UNL     1      46.499   5.844  12.733  0.00  0.00    +0.000 A 
ATOM      6  N   UNL     1      45.327   5.241  12.313  0.00  0.00    +0.000 N 
ATOM      7  C   UNL     1      45.160   4.676  10.969  0.00  0.00    +0.000 C 
ATOM      8  C   UNL     1      43.687   4.839  10.556  0.00  0.00    +0.000 C 
ATOM      9  O   UNL     1      42.799   4.226  11.507  0.00  0.00    +0.000 OA
ATOM     10  C   UNL     1      42.989   4.797  12.817  0.00  0.00    +0.000 C 
ATOM     11  C   UNL     1      44.439   4.630  13.310  0.00  0.00    +0.000 C 
ATOM     12  C   UNL     1      47.208   6.677  11.871  0.00  0.00    +0.000 A 
ENDROOT
BRANCH   3  13
ATOM     13  N   UNL     1      48.345   6.297  15.816  0.00  0.00    +0.000 N 
ATOM     14  H   UNL     1      48.443   7.182  16.297  0.00  0.00    +0.000 HD
BRANCH  13  15
ATOM     15  C   UNL     1      47.845   5.181  16.595  0.00  0.00    +0.000 C 
BRANCH  15  16
ATOM     16  C   UNL     1      48.681   3.933  16.648  0.00  0.00    +0.000 A 
ATOM     17  C   UNL     1      49.820   3.929  17.461  0.00  0.00    +0.000 A 
ATOM     18  C   UNL     1      50.608   2.795  17.510  0.00  0.00    +0.000 A 
ATOM     19  N   UNL     1      50.317   1.686  16.808  0.00  0.00    +0.000 NA
ATOM     20  N   UNL     1      49.214   1.674  16.011  0.00  0.00    +0.000 NA
ATOM     21  C   UNL     1      48.429   2.776  15.934  0.00  0.00    +0.000 A 
ENDBRANCH  15  16
ENDBRANCH  13  15
ENDBRANCH   3  13
TORSDOF 3
ENDMDL
MODEL 7
REMARK VINA RESULT:    -5.977      3.140      5.005
REMARK INTER + INTRA:          -7.433
REMARK INTER:                  -7.048
REMARK INTRA:                  -0.385
REMARK UNBOUND:                -0.408
REMARK  Name = 
REMARK  3 active torsions:
REMARK  status: ('A' for Active; 'I' for Inactive)
REMARK    1  A    between atoms: C_3  and  N_4
REMARK    2  A    between atoms: N_4  and  C_5
REMARK    3  A    between atoms: C_5  and  C_6
REMARK                            x       y       z     vdW  Elec       q    Type
REMARK                         _______ _______ _______ _____ _____    ______ ____
ROOT
ATOM      1  C   UNL     1      49.719   7.689  14.253  0.00  0.00    +0.000 A 
ATOM      2  C   UNL     1      48.948   7.434  13.132  0.00  0.00    +0.000 A 
ATOM      3  C   UNL     1      47.943   6.480  13.205  0.00  0.00    +0.000 A 
ATOM      4  N   UNL     1      47.726   5.765  14.328  0.00  0.00    +0.000 NA
ATOM      5  C   UNL     1      48.506   5.961  15.417  0.00  0.00    +0.000 A 
ATOM      6  N   UNL     1      48.390   5.103  16.496  0.00  0.00    +0.000 N 
ATOM      7  C   UNL     1      48.544   5.547  17.886  0.00  0.00    +0.000 C 
ATOM      8  C   UNL     1      49.147   4.390  18.700  0.00  0.00    +0.000 C 
ATOM      9  O   UNL     1      48.343   3.201  18.605  0.00  0.00    +0.000 OA
ATOM     10  C   UNL     1      48.207   2.791  17.230  0.00  0.00    +0.000 C 
ATOM     11  C   UNL     1      47.567   3.893  16.365  0.00  0.00    +0.000 C 
ATOM     12  C   UNL     1      49.494   6.943  15.403  0.00  0.00    +0.000 A 
ENDROOT
BRANCH   3  13
ATOM     13  N   UNL     1      47.149   6.289  12.075  0.00  0.00    +0.000 N 
ATOM     14  H   UNL     1      47.496   5.570  11.454  0.00  0.00    +0.000 HD
BRANCH  13  15
ATOM     15  C   UNL     1      45.710   6.400  12.210  0.00  0.00    +0.000 C 
BRANCH  15  16
ATOM     16  C   UNL     1      44.887   5.166  11.967  0.00  0.00    +0.000 A 
ATOM     17  C   UNL     1      44.558   4.835  10.647  0.00  0.00    +0.000 A 
ATOM     18  C   UNL     1      43.789   3.713  10.406  0.00  0.00    +0.000 A 
ATOM     19  N   UNL     1      43.347   2.917  11.396  0.00  0.00    +0.000 NA
ATOM     20  N   UNL     1      43.656   3.226  12.685  0.00  0.00    +0.000 NA
ATOM     21  C   UNL     1      44.399   4.327  12.952  0.00  0.00    +0.000 A 
ENDBRANCH  15  16
ENDBRANCH  13  15
ENDBRANCH   3  13
TORSDOF 3
ENDMDL
MODEL 8
REMARK VINA RESULT:    -5.345      4.302      8.289
REMARK INTER + INTRA:          -6.691
REMARK INTER:                  -6.391
REMARK INTRA:                  -0.300
REMARK UNBOUND:                -0.408
REMARK  Name = 
REMARK  3 active torsions:
REMARK  status: ('A' for Active; 'I' for Inactive)
REMARK    1  A    between atoms: C_3  and  N_4
REMARK    2  A    between atoms: N_4  and  C_5
REMARK    3  A    between atoms: C_5  and  C_6
REMARK                            x       y       z     vdW  Elec       q    Type
REMARK                         _______ _______ _______ _____ _____    ______ ____
ROOT
ATOM      1  C   UNL     1      49.478   8.063  15.381  0.00  0.00    +0.000 A 
ATOM      2  C   UNL     1      49.748   7.180  16.412  0.00  0.00    +0.000 A 
ATOM      3  C   UNL     1      49.195   5.908  16.374  0.00  0.00    +0.000 A 
ATOM      4  N   UNL     1      48.368   5.524  15.380  0.00  0.00    +0.000 NA
ATOM      5  C   UNL     1      48.049   6.393  14.392  0.00  0.00    +0.000 A 
ATOM      6  N   UNL     1      47.066   6.050  13.480  0.00  0.00    +0.000 N 
ATOM      7  C   UNL     1      47.118   6.444  12.068  0.00  0.00    +0.000 C 
ATOM      8  C   UNL     1      45.678   6.647  11.568  0.00  0.00    +0.000 C 
ATOM      9  O   UNL     1      44.879   5.467  11.764  0.00  0.00    +0.000 OA
ATOM     10  C   UNL     1      44.849   5.102  13.159  0.00  0.00    +0.000 C 
ATOM     11  C   UNL     1      46.263   4.843  13.713  0.00  0.00    +0.000 C 
ATOM     12  C   UNL     1      48.620   7.663  14.365  0.00  0.00    +0.000 A 
ENDROOT
BRANCH   3  13
ATOM     13  N   UNL     1      49.533   5.026  17.399  0.00  0.00    +0.000 N 
ATOM     14  H   UNL     1      48.922   4.221  17.459  0.00  0.00    +0.000 HD
BRANCH  13  15
ATOM     15  C   UNL     1      50.935   4.804  17.691  0.00  0.00    +0.000 C 
BRANCH  15  16
ATOM     16  C   UNL     1      51.419   3.383  17.767  0.00  0.00    +0.000 A 
ATOM     17  C   UNL     1      52.687   3.140  18.309  0.00  0.00    +0.000 A 
ATOM     18  C   UNL     1      53.154   1.841  18.373  0.00  0.00    +0.000 A 
ATOM     19  N   UNL     1      52.430   0.794  17.940  0.00  0.00    +0.000 NA
ATOM     20  N   UNL     1      51.196   1.013  17.408  0.00  0.00    +0.000 NA
ATOM     21  C   UNL     1      50.717   2.278  17.322  0.00  0.00    +0.000 A 
ENDBRANCH  15  16
ENDBRANCH  13  15
ENDBRANCH   3  13
TORSDOF 3
ENDMDL
MODEL 9
REMARK VINA RESULT:    -5.280      4.136      6.436
REMARK INTER + INTRA:          -6.614
REMARK INTER:                  -6.253
REMARK INTRA:                  -0.361
REMARK UNBOUND:                -0.408
REMARK  Name = 
REMARK  3 active torsions:
REMARK  status: ('A' for Active; 'I' for Inactive)
REMARK    1  A    between atoms: C_3  and  N_4
REMARK    2  A    between atoms: N_4  and  C_5
REMARK    3  A    between atoms: C_5  and  C_6
REMARK                            x       y       z     vdW  Elec       q    Type
REMARK                         _______ _______ _______ _____ _____    ______ ____
ROOT
ATOM      1  C   UNL     1      47.789   5.810  14.424  0.00  0.00    +0.000 A 
ATOM      2  C   UNL     1      48.412   6.770  13.645  0.00  0.00    +0.000 A 
ATOM      3  C   UNL     1      47.871   7.091  12.408  0.00  0.00    +0.000 A 
ATOM      4  N   UNL     1      46.779   6.461  11.927  0.00  0.00    +0.000 NA
ATOM      5  C   UNL     1      46.190   5.481  12.651  0.00  0.00    +0.000 A 
ATOM      6  N   UNL     1      45.184   4.726  12.075  0.00  0.00    +0.000 N 
ATOM      7  C   UNL     1      44.033   4.222  12.832  0.00  0.00    +0.000 C 
ATOM      8  C   UNL     1      43.602   2.877  12.222  0.00  0.00    +0.000 C 
ATOM      9  O   UNL     1      43.304   3.004  10.820  0.00  0.00    +0.000 OA
ATOM     10  C   UNL     1      44.451   3.503  10.103  0.00  0.00    +0.000 C 
ATOM     11  C   UNL     1      44.910   4.873  10.639  0.00  0.00    +0.000 C 
ATOM     12  C   UNL     1      46.670   5.162  13.919  0.00  0.00    +0.000 A 
ENDROOT
BRANCH   3  13
ATOM     13  N   UNL     1      48.491   8.101  11.674  0.00  0.00    +0.000 N 
ATOM     14  H   UNL     1      47.844   8.779  11.293  0.00  0.00    +0.000 HD
BRANCH  13  15
ATOM     15  C   UNL     1      49.773   8.603  12.127  0.00  0.00    +0.000 C 
BRANCH  15  16
ATOM     16  C   UNL     1      50.920   8.573  11.157  0.00  0.00    +0.000 A 
ATOM     17  C   UNL     1      51.348   7.332  10.671  0.00  0.00    +0.000 A 
ATOM     18  C   UNL     1      52.411   7.285   9.790  0.00  0.00    +0.000 A 
ATOM     19  N   UNL     1      53.050   8.392   9.373  0.00  0.00    +0.000 NA
ATOM     20  N   UNL     1      52.647   9.607   9.837  0.00  0.00    +0.000 NA
ATOM     21  C   UNL     1      51.615   9.682  10.711  0.00  0.00    +0.000 A 
ENDBRANCH  15  16
ENDBRANCH  13  15
ENDBRANCH   3  13
TORSDOF 3
ENDMDL
