MODEL 1
REMARK VINA RESULT:    -8.734      0.000      0.000
REMARK INTER + INTRA:         -13.661
REMARK INTER:                 -12.564
REMARK INTRA:                  -1.097
REMARK UNBOUND:                -1.097
REMARK  Name = 
REMARK  8 active torsions:
REMARK  status: ('A' for Active; 'I' for Inactive)
REMARK    1  A    between atoms: C_2  and  C_21
REMARK    2  A    between atoms: N_3  and  C_4
REMARK    3  A    between atoms: C_4  and  C_5
REMARK    4  A    between atoms: C_8  and  C_9
REMARK    5  A    between atoms: C_9  and  O_10
REMARK    6  A    between atoms: C_9  and  C_11
REMARK    7  A    between atoms: C_11  and  C_12
REMARK    8  A    between atoms: C_12  and  C_13
REMARK                            x       y       z     vdW  Elec       q    Type
REMARK                         _______ _______ _______ _____ _____    ______ ____
ROOT
ATOM      1  C   UNL     1      47.086   5.901  13.110  0.00  0.00    +0.000 A 
ATOM      2  C   UNL     1      46.578   6.263  11.862  0.00  0.00    +0.000 A 
ATOM      3  C   UNL     1      45.556   5.510  11.284  0.00  0.00    +0.000 A 
ATOM      4  C   UNL     1      45.058   4.407  11.972  0.00  0.00    +0.000 A 
ATOM      5  N   UNL     1      45.547   4.022  13.182  0.00  0.00    +0.000 NA
ATOM      6  C   UNL     1      46.549   4.766  13.710  0.00  0.00    +0.000 A 
ENDROOT
BRANCH   1   7
ATOM      7  C   UNL     1      48.199   6.674  13.757  0.00  0.00    +0.000 C 
BRANCH   7  10
ATOM      8  O   UNL     1      50.325   6.650  15.545  0.00  0.00    +0.000 OA
ATOM      9  C   UNL     1      49.188   6.733  15.997  0.00  0.00    +0.000 C 
ATOM     10  N   UNL     1      48.077   6.669  15.190  0.00  0.00    +0.000 N 
ATOM     11  H   UNL     1      47.175   6.931  15.577  0.00  0.00    +0.000 HD
BRANCH   9  12
ATOM     12  C   UNL     1      48.940   6.879  17.435  0.00  0.00    +0.000 A 
ATOM     13  C   UNL     1      48.632   8.123  17.968  0.00  0.00    +0.000 A 
ATOM     14  S   UNL     1      48.348   8.094  19.651  0.00  0.00    +0.000 S 
ATOM     15  C   UNL     1      48.592   6.411  19.719  0.00  0.00    +0.000 A 
ATOM     16  N   UNL     1      48.448   5.726  20.885  0.00  0.00    +0.000 NA
ATOM     17  C   UNL     1      48.627   4.450  20.780  0.00  0.00    +0.000 A 
ATOM     18  N   UNL     1      48.954   3.799  19.619  0.00  0.00    +0.000 N 
ATOM     19  C   UNL     1      49.161   4.456  18.431  0.00  0.00    +0.000 A 
ATOM     20  O   UNL     1      49.545   3.860  17.431  0.00  0.00    +0.000 OA
ATOM     21  C   UNL     1      48.926   5.885  18.484  0.00  0.00    +0.000 A 
ATOM     22  H   UNL     1      49.111   2.802  19.609  0.00  0.00    +0.000 HD
ENDBRANCH   9  12
ENDBRANCH   7  10
ENDBRANCH   1   7
BRANCH   4  23
ATOM     23  C   UNL     1      43.934   3.570  11.381  0.00  0.00    +0.000 C 
BRANCH  23  24
ATOM     24  O   UNL     1      42.679   4.212  11.663  0.00  0.00    +0.000 OA
ATOM     25  H   UNL     1      42.215   3.591  12.262  0.00  0.00    +0.000 HD
ENDBRANCH  23  24
BRANCH  23  26
ATOM     26  C   UNL     1      44.016   3.418   9.858  0.00  0.00    +0.000 C 
BRANCH  26  27
ATOM     27  C   UNL     1      44.573   2.072   9.397  0.00  0.00    +0.000 C 
BRANCH  27  28
ATOM     28  C   UNL     1      45.647   2.233   8.349  0.00  0.00    +0.000 A 
ATOM     29  C   UNL     1      45.842   3.468   7.716  0.00  0.00    +0.000 A 
ATOM     30  C   UNL     1      46.853   3.623   6.766  0.00  0.00    +0.000 A 
ATOM     31  C   UNL     1      47.669   2.543   6.433  0.00  0.00    +0.000 A 
ATOM     32  C   UNL     1      47.466   1.305   7.038  0.00  0.00    +0.000 A 
ATOM     33  C   UNL     1      46.455   1.147   7.988  0.00  0.00    +0.000 A 
ENDBRANCH  27  28
ENDBRANCH  26  27
ENDBRANCH  23  26
ENDBRANCH   4  23
TORSDOF 8
ENDMDL
MODEL 2
REMARK VINA RESULT:    -8.643      1.465      2.290
REMARK INTER + INTRA:         -13.530
REMARK INTER:                 -12.414
REMARK INTRA:                  -1.117
REMARK UNBOUND:                -1.097
REMARK  Name = 
REMARK  8 active torsions:
REMARK  status: ('A' for Active; 'I' for Inactive)
REMARK    1  A    between atoms: C_2  and  C_21
REMARK    2  A    between atoms: N_3  and  C_4
REMARK    3  A    between atoms: C_4  and  C_5
REMARK    4  A    between atoms: C_8  and  C_9
REMARK    5  A    between atoms: C_9  and  O_10
REMARK    6  A    between atoms: C_9  and  C_11
REMARK    7  A    between atoms: C_11  and  C_12
REMARK    8  A    between atoms: C_12  and  C_13
REMARK                            x       y       z     vdW  Elec       q    Type
REMARK                         _______ _______ _______ _____ _____    ______ ____
ROOT
ATOM      1  C   UNL     1      47.075   6.107  13.252  0.00  0.00    +0.000 A 
ATOM      2  C   UNL     1      46.705   6.707  12.048  0.00  0.00    +0.000 A 
ATOM      3  C   UNL     1      45.655   6.172  11.302  0.00  0.00    +0.000 A 
ATOM      4  C   UNL     1      44.992   5.044  11.779  0.00  0.00    +0.000 A 
ATOM      5  N   UNL     1      45.344   4.430  12.941  0.00  0.00    +0.000 NA
ATOM      6  C   UNL     1      46.378   4.967  13.636  0.00  0.00    +0.000 A 
ENDROOT
BRANCH   1   7
ATOM      7  C   UNL     1      48.212   6.640  14.075  0.00  0.00    +0.000 C 
BRANCH   7  10
ATOM      8  O   UNL     1      50.256   6.276  15.922  0.00  0.00    +0.000 OA
ATOM      9  C   UNL     1      49.099   6.266  16.328  0.00  0.00    +0.000 C 
ATOM     10  N   UNL     1      48.027   6.356  15.473  0.00  0.00    +0.000 N 
ATOM     11  H   UNL     1      47.105   6.535  15.861  0.00  0.00    +0.000 HD
BRANCH   9  12
ATOM     12  C   UNL     1      48.785   6.129  17.753  0.00  0.00    +0.000 A 
ATOM     13  C   UNL     1      49.044   4.936  18.415  0.00  0.00    +0.000 A 
ATOM     14  S   UNL     1      48.639   4.973  20.073  0.00  0.00    +0.000 S 
ATOM     15  C   UNL     1      48.138   6.596  19.972  0.00  0.00    +0.000 A 
ATOM     16  N   UNL     1      47.710   7.270  21.073  0.00  0.00    +0.000 NA
ATOM     17  C   UNL     1      47.396   8.504  20.854  0.00  0.00    +0.000 A 
ATOM     18  N   UNL     1      47.454   9.122  19.632  0.00  0.00    +0.000 N 
ATOM     19  C   UNL     1      47.829   8.466  18.485  0.00  0.00    +0.000 A 
ATOM     20  O   UNL     1      47.781   9.017  17.391  0.00  0.00    +0.000 OA
ATOM     21  C   UNL     1      48.237   7.090  18.684  0.00  0.00    +0.000 A 
ATOM     22  H   UNL     1      47.165  10.083  19.521  0.00  0.00    +0.000 HD
ENDBRANCH   9  12
ENDBRANCH   7  10
ENDBRANCH   1   7
BRANCH   4  23
ATOM     23  C   UNL     1      43.833   4.441  11.001  0.00  0.00    +0.000 C 
BRANCH  23  24
ATOM     24  O   UNL     1      43.208   5.475  10.222  0.00  0.00    +0.000 OA
ATOM     25  H   UNL     1      43.680   6.295  10.477  0.00  0.00    +0.000 HD
ENDBRANCH  23  24
BRANCH  23  26
ATOM     26  C   UNL     1      44.258   3.347  10.015  0.00  0.00    +0.000 C 
BRANCH  26  27
ATOM     27  C   UNL     1      44.616   3.869   8.624  0.00  0.00    +0.000 C 
BRANCH  27  28
ATOM     28  C   UNL     1      45.668   3.019   7.954  0.00  0.00    +0.000 A 
ATOM     29  C   UNL     1      45.883   1.697   8.368  0.00  0.00    +0.000 A 
ATOM     30  C   UNL     1      46.837   0.903   7.729  0.00  0.00    +0.000 A 
ATOM     31  C   UNL     1      47.592   1.426   6.681  0.00  0.00    +0.000 A 
ATOM     32  C   UNL     1      47.403   2.747   6.280  0.00  0.00    +0.000 A 
ATOM     33  C   UNL     1      46.450   3.544   6.917  0.00  0.00    +0.000 A 
ENDBRANCH  27  28
ENDBRANCH  26  27
ENDBRANCH  23  26
ENDBRANCH   4  23
TORSDOF 8
ENDMDL
MODEL 3
REMARK VINA RESULT:    -7.972      1.790      2.542
REMARK INTER + INTRA:         -12.565
REMARK INTER:                 -11.379
REMARK INTRA:                  -1.186
REMARK UNBOUND:                -1.097
REMARK  Name = 
REMARK  8 active torsions:
REMARK  status: ('A' for Active; 'I' for Inactive)
REMARK    1  A    between atoms: C_2  and  C_21
REMARK    2  A    between atoms: N_3  and  C_4
REMARK    3  A    between atoms: C_4  and  C_5
REMARK    4  A    between atoms: C_8  and  C_9
REMARK    5  A    between atoms: C_9  and  O_10
REMARK    6  A    between atoms: C_9  and  C_11
REMARK    7  A    between atoms: C_11  and  C_12
REMARK    8  A    between atoms: C_12  and  C_13
REMARK                            x       y       z     vdW  Elec       q    Type
REMARK                         _______ _______ _______ _____ _____    ______ ____
ROOT
ATOM      1  C   UNL     1      46.822   3.879  13.847  0.00  0.00    +0.000 A 
ATOM      2  C   UNL     1      46.000   3.076  13.055  0.00  0.00    +0.000 A 
ATOM      3  C   UNL     1      45.323   3.634  11.972  0.00  0.00    +0.000 A 
ATOM      4  C   UNL     1      45.485   4.989  11.698  0.00  0.00    +0.000 A 
ATOM      5  N   UNL     1      46.266   5.798  12.464  0.00  0.00    +0.000 NA
ATOM      6  C   UNL     1      46.900   5.228  13.519  0.00  0.00    +0.000 A 
ENDROOT
BRANCH   1   7
ATOM      7  C   UNL     1      47.553   3.320  15.033  0.00  0.00    +0.000 C 
BRANCH   7  10
ATOM      8  O   UNL     1      46.662   3.244  17.664  0.00  0.00    +0.000 OA
ATOM      9  C   UNL     1      47.383   4.175  17.322  0.00  0.00    +0.000 C 
ATOM     10  N   UNL     1      47.800   4.335  16.023  0.00  0.00    +0.000 N 
ATOM     11  H   UNL     1      48.541   5.001  15.825  0.00  0.00    +0.000 HD
BRANCH   9  12
ATOM     12  C   UNL     1      47.824   5.197  18.277  0.00  0.00    +0.000 A 
ATOM     13  C   UNL     1      46.901   5.835  19.095  0.00  0.00    +0.000 A 
ATOM     14  S   UNL     1      47.601   6.971  20.159  0.00  0.00    +0.000 S 
ATOM     15  C   UNL     1      49.166   6.624  19.588  0.00  0.00    +0.000 A 
ATOM     16  N   UNL     1      50.261   7.229  20.123  0.00  0.00    +0.000 NA
ATOM     17  C   UNL     1      51.385   6.842  19.618  0.00  0.00    +0.000 A 
ATOM     18  N   UNL     1      51.515   5.917  18.615  0.00  0.00    +0.000 N 
ATOM     19  C   UNL     1      50.436   5.321  18.009  0.00  0.00    +0.000 A 
ATOM     20  O   UNL     1      50.578   4.569  17.051  0.00  0.00    +0.000 OA
ATOM     21  C   UNL     1      49.152   5.686  18.573  0.00  0.00    +0.000 A 
ATOM     22  H   UNL     1      52.423   5.679  18.241  0.00  0.00    +0.000 HD
ENDBRANCH   9  12
ENDBRANCH   7  10
ENDBRANCH   1   7
BRANCH   4  23
ATOM     23  C   UNL     1      44.774   5.631  10.516  0.00  0.00    +0.000 C 
BRANCH  23  24
ATOM     24  O   UNL     1      44.909   7.059  10.611  0.00  0.00    +0.000 OA
ATOM     25  H   UNL     1      45.621   7.195  11.270  0.00  0.00    +0.000 HD
ENDBRANCH  23  24
BRANCH  23  26
ATOM     26  C   UNL     1      45.355   5.225   9.157  0.00  0.00    +0.000 C 
BRANCH  26  27
ATOM     27  C   UNL     1      44.686   3.999   8.537  0.00  0.00    +0.000 C 
BRANCH  27  28
ATOM     28  C   UNL     1      45.690   3.064   7.908  0.00  0.00    +0.000 A 
ATOM     29  C   UNL     1      45.845   1.758   8.393  0.00  0.00    +0.000 A 
ATOM     30  C   UNL     1      46.754   0.884   7.793  0.00  0.00    +0.000 A 
ATOM     31  C   UNL     1      47.523   1.311   6.712  0.00  0.00    +0.000 A 
ATOM     32  C   UNL     1      47.393   2.616   6.239  0.00  0.00    +0.000 A 
ATOM     33  C   UNL     1      46.485   3.491   6.837  0.00  0.00    +0.000 A 
ENDBRANCH  27  28
ENDBRANCH  26  27
ENDBRANCH  23  26
ENDBRANCH   4  23
TORSDOF 8
ENDMDL
MODEL 4
REMARK VINA RESULT:    -7.783      2.130      2.502
REMARK INTER + INTRA:         -12.292
REMARK INTER:                 -11.096
REMARK INTRA:                  -1.195
REMARK UNBOUND:                -1.097
REMARK  Name = 
REMARK  8 active torsions:
REMARK  status: ('A' for Active; 'I' for Inactive)
REMARK    1  A    between atoms: C_2  and  C_21
REMARK    2  A    between atoms: N_3  and  C_4
REMARK    3  A    between atoms: C_4  and  C_5
REMARK    4  A    between atoms: C_8  and  C_9
REMARK    5  A    between atoms: C_9  and  O_10
REMARK    6  A    between atoms: C_9  and  C_11
REMARK    7  A    between atoms: C_11  and  C_12
REMARK    8  A    between atoms: C_12  and  C_13
REMARK                            x       y       z     vdW  Elec       q    Type
REMARK                         _______ _______ _______ _____ _____    ______ ____
ROOT
ATOM      1  C   UNL     1      46.905   7.282  13.070  0.00  0.00    +0.000 A 
ATOM      2  C   UNL     1      47.117   5.903  13.088  0.00  0.00    +0.000 A 
ATOM      3  C   UNL     1      46.188   5.051  12.491  0.00  0.00    +0.000 A 
ATOM      4  C   UNL     1      45.062   5.599  11.882  0.00  0.00    +0.000 A 
ATOM      5  N   UNL     1      44.823   6.938  11.865  0.00  0.00    +0.000 NA
ATOM      6  C   UNL     1      45.738   7.738  12.466  0.00  0.00    +0.000 A 
ENDROOT
BRANCH   1   7
ATOM      7  C   UNL     1      47.871   8.231  13.718  0.00  0.00    +0.000 C 
BRANCH   7  10
ATOM      8  O   UNL     1      49.585   9.245  15.655  0.00  0.00    +0.000 OA
ATOM      9  C   UNL     1      49.747   8.087  15.286  0.00  0.00    +0.000 C 
ATOM     10  N   UNL     1      48.998   7.533  14.276  0.00  0.00    +0.000 N 
ATOM     11  H   UNL     1      49.033   6.528  14.135  0.00  0.00    +0.000 HD
BRANCH   9  12
ATOM     12  C   UNL     1      50.771   7.225  15.884  0.00  0.00    +0.000 A 
ATOM     13  C   UNL     1      52.115   7.558  15.776  0.00  0.00    +0.000 A 
ATOM     14  S   UNL     1      53.157   6.454  16.556  0.00  0.00    +0.000 S 
ATOM     15  C   UNL     1      51.846   5.512  17.096  0.00  0.00    +0.000 A 
ATOM     16  N   UNL     1      52.041   4.417  17.878  0.00  0.00    +0.000 NA
ATOM     17  C   UNL     1      50.954   3.820  18.242  0.00  0.00    +0.000 A 
ATOM     18  N   UNL     1      49.691   4.209  17.882  0.00  0.00    +0.000 N 
ATOM     19  C   UNL     1      49.449   5.276  17.051  0.00  0.00    +0.000 A 
ATOM     20  O   UNL     1      48.315   5.543  16.670  0.00  0.00    +0.000 OA
ATOM     21  C   UNL     1      50.634   6.008  16.652  0.00  0.00    +0.000 A 
ATOM     22  H   UNL     1      48.881   3.681  18.175  0.00  0.00    +0.000 HD
ENDBRANCH   9  12
ENDBRANCH   7  10
ENDBRANCH   1   7
BRANCH   4  23
ATOM     23  C   UNL     1      44.035   4.703  11.207  0.00  0.00    +0.000 C 
BRANCH  23  24
ATOM     24  O   UNL     1      43.316   5.473  10.229  0.00  0.00    +0.000 OA
ATOM     25  H   UNL     1      42.380   5.213  10.351  0.00  0.00    +0.000 HD
ENDBRANCH  23  24
BRANCH  23  26
ATOM     26  C   UNL     1      44.652   3.514  10.461  0.00  0.00    +0.000 C 
BRANCH  26  27
ATOM     27  C   UNL     1      44.469   3.570   8.945  0.00  0.00    +0.000 C 
BRANCH  27  28
ATOM     28  C   UNL     1      45.585   2.866   8.213  0.00  0.00    +0.000 A 
ATOM     29  C   UNL     1      46.428   3.579   7.350  0.00  0.00    +0.000 A 
ATOM     30  C   UNL     1      47.478   2.933   6.694  0.00  0.00    +0.000 A 
ATOM     31  C   UNL     1      47.687   1.569   6.886  0.00  0.00    +0.000 A 
ATOM     32  C   UNL     1      46.838   0.847   7.723  0.00  0.00    +0.000 A 
ATOM     33  C   UNL     1      45.787   1.490   8.380  0.00  0.00    +0.000 A 
ENDBRANCH  27  28
ENDBRANCH  26  27
ENDBRANCH  23  26
ENDBRANCH   4  23
TORSDOF 8
ENDMDL
MODEL 5
REMARK VINA RESULT:    -7.762      3.099      4.139
REMARK INTER + INTRA:         -12.262
REMARK INTER:                 -11.058
REMARK INTRA:                  -1.204
REMARK UNBOUND:                -1.097
REMARK  Name = 
REMARK  8 active torsions:
REMARK  status: ('A' for Active; 'I' for Inactive)
REMARK    1  A    between atoms: C_2  and  C_21
REMARK    2  A    between atoms: N_3  and  C_4
REMARK    3  A    between atoms: C_4  and  C_5
REMARK    4  A    between atoms: C_8  and  C_9
REMARK    5  A    between atoms: C_9  and  O_10
REMARK    6  A    between atoms: C_9  and  C_11
REMARK    7  A    between atoms: C_11  and  C_12
REMARK    8  A    between atoms: C_12  and  C_13
REMARK                            x       y       z     vdW  Elec       q    Type
REMARK                         _______ _______ _______ _____ _____    ______ ____
ROOT
ATOM      1  C   UNL     1      48.186   5.485  16.307  0.00  0.00    +0.000 A 
ATOM      2  C   UNL     1      48.261   6.236  15.133  0.00  0.00    +0.000 A 
ATOM      3  C   UNL     1      47.573   5.814  13.995  0.00  0.00    +0.000 A 
ATOM      4  C   UNL     1      46.817   4.646  14.057  0.00  0.00    +0.000 A 
ATOM      5  N   UNL     1      46.741   3.887  15.184  0.00  0.00    +0.000 NA
ATOM      6  C   UNL     1      47.433   4.317  16.267  0.00  0.00    +0.000 A 
ENDROOT
BRANCH   1   7
ATOM      7  C   UNL     1      48.928   5.895  17.546  0.00  0.00    +0.000 C 
BRANCH   7  10
ATOM      8  O   UNL     1      51.526   6.075  16.577  0.00  0.00    +0.000 OA
ATOM      9  C   UNL     1      51.267   5.187  17.383  0.00  0.00    +0.000 C 
ATOM     10  N   UNL     1      49.992   4.976  17.849  0.00  0.00    +0.000 N 
ATOM     11  H   UNL     1      49.858   4.364  18.649  0.00  0.00    +0.000 HD
BRANCH   9  12
ATOM     12  C   UNL     1      52.302   4.275  17.882  0.00  0.00    +0.000 A 
ATOM     13  C   UNL     1      53.429   4.777  18.518  0.00  0.00    +0.000 A 
ATOM     14  S   UNL     1      54.506   3.567  19.054  0.00  0.00    +0.000 S 
ATOM     15  C   UNL     1      53.486   2.329  18.486  0.00  0.00    +0.000 A 
ATOM     16  N   UNL     1      53.800   1.018  18.670  0.00  0.00    +0.000 NA
ATOM     17  C   UNL     1      52.917   0.189  18.220  0.00  0.00    +0.000 A 
ATOM     18  N   UNL     1      51.757   0.550  17.587  0.00  0.00    +0.000 N 
ATOM     19  C   UNL     1      51.425   1.858  17.331  0.00  0.00    +0.000 A 
ATOM     20  O   UNL     1      50.427   2.148  16.680  0.00  0.00    +0.000 OA
ATOM     21  C   UNL     1      52.361   2.831  17.859  0.00  0.00    +0.000 A 
ATOM     22  H   UNL     1      51.120  -0.148  17.230  0.00  0.00    +0.000 HD
ENDBRANCH   9  12
ENDBRANCH   7  10
ENDBRANCH   1   7
BRANCH   4  23
ATOM     23  C   UNL     1      46.041   4.162  12.842  0.00  0.00    +0.000 C 
BRANCH  23  24
ATOM     24  O   UNL     1      45.862   2.739  12.941  0.00  0.00    +0.000 OA
ATOM     25  H   UNL     1      45.300   2.508  12.172  0.00  0.00    +0.000 HD
ENDBRANCH  23  24
BRANCH  23  26
ATOM     26  C   UNL     1      44.639   4.773  12.725  0.00  0.00    +0.000 C 
BRANCH  26  27
ATOM     27  C   UNL     1      44.392   5.513  11.411  0.00  0.00    +0.000 C 
BRANCH  27  28
ATOM     28  C   UNL     1      44.749   4.671  10.211  0.00  0.00    +0.000 A 
ATOM     29  C   UNL     1      45.686   5.131   9.275  0.00  0.00    +0.000 A 
ATOM     30  C   UNL     1      46.036   4.340   8.179  0.00  0.00    +0.000 A 
ATOM     31  C   UNL     1      45.446   3.089   8.004  0.00  0.00    +0.000 A 
ATOM     32  C   UNL     1      44.495   2.635   8.916  0.00  0.00    +0.000 A 
ATOM     33  C   UNL     1      44.143   3.425  10.012  0.00  0.00    +0.000 A 
ENDBRANCH  27  28
ENDBRANCH  26  27
ENDBRANCH  23  26
ENDBRANCH   4  23
TORSDOF 8
ENDMDL
MODEL 6
REMARK VINA RESULT:    -7.213      3.642      8.671
REMARK INTER + INTRA:         -11.473
REMARK INTER:                  -9.671
REMARK INTRA:                  -1.802
REMARK UNBOUND:                -1.097
REMARK  Name = 
REMARK  8 active torsions:
REMARK  status: ('A' for Active; 'I' for Inactive)
REMARK    1  A    between atoms: C_2  and  C_21
REMARK    2  A    between atoms: N_3  and  C_4
REMARK    3  A    between atoms: C_4  and  C_5
REMARK    4  A    between atoms: C_8  and  C_9
REMARK    5  A    between atoms: C_9  and  O_10
REMARK    6  A    between atoms: C_9  and  C_11
REMARK    7  A    between atoms: C_11  and  C_12
REMARK    8  A    between atoms: C_12  and  C_13
REMARK                            x       y       z     vdW  Elec       q    Type
REMARK                         _______ _______ _______ _____ _____    ______ ____
ROOT
ATOM      1  C   UNL     1      48.373   7.961  13.752  0.00  0.00    +0.000 A 
ATOM      2  C   UNL     1      49.041   6.856  14.280  0.00  0.00    +0.000 A 
ATOM      3  C   UNL     1      49.278   6.780  15.652  0.00  0.00    +0.000 A 
ATOM      4  C   UNL     1      48.837   7.815  16.473  0.00  0.00    +0.000 A 
ATOM      5  N   UNL     1      48.199   8.912  15.982  0.00  0.00    +0.000 NA
ATOM      6  C   UNL     1      47.996   8.962  14.642  0.00  0.00    +0.000 A 
ENDROOT
BRANCH   1   7
ATOM      7  C   UNL     1      48.116   8.090  12.279  0.00  0.00    +0.000 C 
BRANCH   7  10
ATOM      8  O   UNL     1      45.383   7.900  11.811  0.00  0.00    +0.000 OA
ATOM      9  C   UNL     1      46.094   6.953  11.491  0.00  0.00    +0.000 C 
ATOM     10  N   UNL     1      47.441   6.929  11.761  0.00  0.00    +0.000 N 
ATOM     11  H   UNL     1      48.017   6.223  11.314  0.00  0.00    +0.000 HD
BRANCH   9  12
ATOM     12  C   UNL     1      45.544   5.770  10.821  0.00  0.00    +0.000 A 
ATOM     13  C   UNL     1      45.823   5.531   9.483  0.00  0.00    +0.000 A 
ATOM     14  S   UNL     1      45.122   4.094   8.884  0.00  0.00    +0.000 S 
ATOM     15  C   UNL     1      44.450   3.724  10.404  0.00  0.00    +0.000 A 
ATOM     16  N   UNL     1      43.748   2.576  10.601  0.00  0.00    +0.000 NA
ATOM     17  C   UNL     1      43.328   2.409  11.812  0.00  0.00    +0.000 A 
ATOM     18  N   UNL     1      43.532   3.292  12.839  0.00  0.00    +0.000 N 
ATOM     19  C   UNL     1      44.188   4.487  12.673  0.00  0.00    +0.000 A 
ATOM     20  O   UNL     1      44.273   5.300  13.587  0.00  0.00    +0.000 OA
ATOM     21  C   UNL     1      44.721   4.702  11.343  0.00  0.00    +0.000 A 
ATOM     22  H   UNL     1      43.151   3.118  13.758  0.00  0.00    +0.000 HD
ENDBRANCH   9  12
ENDBRANCH   7  10
ENDBRANCH   1   7
BRANCH   4  23
ATOM     23  C   UNL     1      49.064   7.761  17.976  0.00  0.00    +0.000 C 
BRANCH  23  24
ATOM     24  O   UNL     1      49.303   9.094  18.459  0.00  0.00    +0.000 OA
ATOM     25  H   UNL     1      50.200   9.056  18.851  0.00  0.00    +0.000 HD
ENDBRANCH  23  24
BRANCH  23  26
ATOM     26  C   UNL     1      47.862   7.220  18.759  0.00  0.00    +0.000 C 
BRANCH  26  27
ATOM     27  C   UNL     1      48.140   5.910  19.495  0.00  0.00    +0.000 C 
BRANCH  27  28
ATOM     28  C   UNL     1      48.328   4.754  18.543  0.00  0.00    +0.000 A 
ATOM     29  C   UNL     1      47.286   4.358  17.693  0.00  0.00    +0.000 A 
ATOM     30  C   UNL     1      47.469   3.306  16.794  0.00  0.00    +0.000 A 
ATOM     31  C   UNL     1      48.689   2.635  16.744  0.00  0.00    +0.000 A 
ATOM     32  C   UNL     1      49.722   3.005  17.603  0.00  0.00    +0.000 A 
ATOM     33  C   UNL     1      49.541   4.056  18.503  0.00  0.00    +0.000 A 
ENDBRANCH  27  28
ENDBRANCH  26  27
ENDBRANCH  23  26
ENDBRANCH   4  23
TORSDOF 8
ENDMDL
MODEL 7
REMARK VINA RESULT:    -6.951      3.773      8.613
REMARK INTER + INTRA:         -11.096
REMARK INTER:                  -8.975
REMARK INTRA:                  -2.121
REMARK UNBOUND:                -1.097
REMARK  Name = 
REMARK  8 active torsions:
REMARK  status: ('A' for Active; 'I' for Inactive)
REMARK    1  A    between atoms: C_2  and  C_21
REMARK    2  A    between atoms: N_3  and  C_4
REMARK    3  A    between atoms: C_4  and  C_5
REMARK    4  A    between atoms: C_8  and  C_9
REMARK    5  A    between atoms: C_9  and  O_10
REMARK    6  A    between atoms: C_9  and  C_11
REMARK    7  A    between atoms: C_11  and  C_12
REMARK    8  A    between atoms: C_12  and  C_13
REMARK                            x       y       z     vdW  Elec       q    Type
REMARK                         _______ _______ _______ _____ _____    ______ ____
ROOT
ATOM      1  C   UNL     1      48.952   7.946  15.896  0.00  0.00    +0.000 A 
ATOM      2  C   UNL     1      50.000   7.042  16.072  0.00  0.00    +0.000 A 
ATOM      3  C   UNL     1      50.377   6.661  17.359  0.00  0.00    +0.000 A 
ATOM      4  C   UNL     1      49.693   7.192  18.449  0.00  0.00    +0.000 A 
ATOM      5  N   UNL     1      48.680   8.088  18.306  0.00  0.00    +0.000 NA
ATOM      6  C   UNL     1      48.346   8.449  17.043  0.00  0.00    +0.000 A 
ENDROOT
BRANCH   1   7
ATOM      7  C   UNL     1      48.528   8.396  14.528  0.00  0.00    +0.000 C 
BRANCH   7  10
ATOM      8  O   UNL     1      48.891   6.314  12.724  0.00  0.00    +0.000 OA
ATOM      9  C   UNL     1      47.765   6.506  13.170  0.00  0.00    +0.000 C 
ATOM     10  N   UNL     1      47.481   7.562  14.002  0.00  0.00    +0.000 N 
ATOM     11  H   UNL     1      46.593   7.572  14.494  0.00  0.00    +0.000 HD
BRANCH   9  12
ATOM     12  C   UNL     1      46.641   5.632  12.821  0.00  0.00    +0.000 A 
ATOM     13  C   UNL     1      46.699   4.273  13.097  0.00  0.00    +0.000 A 
ATOM     14  S   UNL     1      45.289   3.422  12.647  0.00  0.00    +0.000 S 
ATOM     15  C   UNL     1      44.537   4.848  12.100  0.00  0.00    +0.000 A 
ATOM     16  N   UNL     1      43.264   4.833  11.622  0.00  0.00    +0.000 NA
ATOM     17  C   UNL     1      42.810   5.993  11.278  0.00  0.00    +0.000 A 
ATOM     18  N   UNL     1      43.517   7.163  11.352  0.00  0.00    +0.000 N 
ATOM     19  C   UNL     1      44.823   7.218  11.777  0.00  0.00    +0.000 A 
ATOM     20  O   UNL     1      45.461   8.264  11.743  0.00  0.00    +0.000 OA
ATOM     21  C   UNL     1      45.364   5.949  12.220  0.00  0.00    +0.000 A 
ATOM     22  H   UNL     1      43.115   8.035  11.037  0.00  0.00    +0.000 HD
ENDBRANCH   9  12
ENDBRANCH   7  10
ENDBRANCH   1   7
BRANCH   4  23
ATOM     23  C   UNL     1      50.066   6.789  19.868  0.00  0.00    +0.000 C 
BRANCH  23  24
ATOM     24  O   UNL     1      49.015   7.198  20.759  0.00  0.00    +0.000 OA
ATOM     25  H   UNL     1      48.504   7.860  20.249  0.00  0.00    +0.000 HD
ENDBRANCH  23  24
BRANCH  23  26
ATOM     26  C   UNL     1      50.233   5.276  20.053  0.00  0.00    +0.000 C 
BRANCH  26  27
ATOM     27  C   UNL     1      48.915   4.503  20.067  0.00  0.00    +0.000 C 
BRANCH  27  28
ATOM     28  C   UNL     1      48.550   3.979  18.701  0.00  0.00    +0.000 A 
ATOM     29  C   UNL     1      47.436   4.487  18.020  0.00  0.00    +0.000 A 
ATOM     30  C   UNL     1      47.114   4.020  16.744  0.00  0.00    +0.000 A 
ATOM     31  C   UNL     1      47.897   3.036  16.142  0.00  0.00    +0.000 A 
ATOM     32  C   UNL     1      48.992   2.507  16.823  0.00  0.00    +0.000 A 
ATOM     33  C   UNL     1      49.315   2.971  18.099  0.00  0.00    +0.000 A 
ENDBRANCH  27  28
ENDBRANCH  26  27
ENDBRANCH  23  26
ENDBRANCH   4  23
TORSDOF 8
ENDMDL
MODEL 8
REMARK VINA RESULT:    -6.853      4.000      9.242
REMARK INTER + INTRA:         -10.954
REMARK INTER:                  -9.244
REMARK INTRA:                  -1.710
REMARK UNBOUND:                -1.097
REMARK  Name = 
REMARK  8 active torsions:
REMARK  status: ('A' for Active; 'I' for Inactive)
REMARK    1  A    between atoms: C_2  and  C_21
REMARK    2  A    between atoms: N_3  and  C_4
REMARK    3  A    between atoms: C_4  and  C_5
REMARK    4  A    between atoms: C_8  and  C_9
REMARK    5  A    between atoms: C_9  and  O_10
REMARK    6  A    between atoms: C_9  and  C_11
REMARK    7  A    between atoms: C_11  and  C_12
REMARK    8  A    between atoms: C_12  and  C_13
REMARK                            x       y       z     vdW  Elec       q    Type
REMARK                         _______ _______ _______ _____ _____    ______ ____
ROOT
ATOM      1  C   UNL     1      48.551   3.526  17.334  0.00  0.00    +0.000 A 
ATOM      2  C   UNL     1      48.918   4.557  18.199  0.00  0.00    +0.000 A 
ATOM      3  C   UNL     1      50.225   4.626  18.681  0.00  0.00    +0.000 A 
ATOM      4  C   UNL     1      51.143   3.658  18.282  0.00  0.00    +0.000 A 
ATOM      5  N   UNL     1      50.807   2.633  17.453  0.00  0.00    +0.000 NA
ATOM      6  C   UNL     1      49.526   2.587  17.014  0.00  0.00    +0.000 A 
ENDROOT
BRANCH   1   7
ATOM      7  C   UNL     1      47.149   3.406  16.809  0.00  0.00    +0.000 C 
BRANCH   7  10
ATOM      8  O   UNL     1      47.271   3.159  14.044  0.00  0.00    +0.000 OA
ATOM      9  C   UNL     1      46.865   4.216  14.515  0.00  0.00    +0.000 C 
ATOM     10  N   UNL     1      46.850   4.452  15.868  0.00  0.00    +0.000 N 
ATOM     11  H   UNL     1      46.334   5.254  16.220  0.00  0.00    +0.000 HD
BRANCH   9  12
ATOM     12  C   UNL     1      46.392   5.309  13.659  0.00  0.00    +0.000 A 
ATOM     13  C   UNL     1      47.208   6.404  13.408  0.00  0.00    +0.000 A 
ATOM     14  S   UNL     1      46.502   7.560  12.370  0.00  0.00    +0.000 S 
ATOM     15  C   UNL     1      45.095   6.619  12.190  0.00  0.00    +0.000 A 
ATOM     16  N   UNL     1      44.082   7.018  11.375  0.00  0.00    +0.000 NA
ATOM     17  C   UNL     1      43.093   6.188  11.307  0.00  0.00    +0.000 A 
ATOM     18  N   UNL     1      43.017   5.005  11.993  0.00  0.00    +0.000 N 
ATOM     19  C   UNL     1      43.991   4.588  12.868  0.00  0.00    +0.000 A 
ATOM     20  O   UNL     1      43.853   3.572  13.539  0.00  0.00    +0.000 OA
ATOM     21  C   UNL     1      45.145   5.461  12.944  0.00  0.00    +0.000 A 
ATOM     22  H   UNL     1      42.202   4.413  11.921  0.00  0.00    +0.000 HD
ENDBRANCH   9  12
ENDBRANCH   7  10
ENDBRANCH   1   7
BRANCH   4  23
ATOM     23  C   UNL     1      52.582   3.708  18.774  0.00  0.00    +0.000 C 
BRANCH  23  24
ATOM     24  O   UNL     1      53.021   2.371  19.065  0.00  0.00    +0.000 OA
ATOM     25  H   UNL     1      52.204   1.831  19.033  0.00  0.00    +0.000 HD
ENDBRANCH  23  24
BRANCH  23  26
ATOM     26  C   UNL     1      53.564   4.278  17.744  0.00  0.00    +0.000 C 
BRANCH  26  27
ATOM     27  C   UNL     1      53.930   5.743  17.979  0.00  0.00    +0.000 C 
BRANCH  27  28
ATOM     28  C   UNL     1      52.835   6.679  17.531  0.00  0.00    +0.000 A 
ATOM     29  C   UNL     1      52.265   6.546  16.257  0.00  0.00    +0.000 A 
ATOM     30  C   UNL     1      51.233   7.396  15.853  0.00  0.00    +0.000 A 
ATOM     31  C   UNL     1      50.770   8.391  16.712  0.00  0.00    +0.000 A 
ATOM     32  C   UNL     1      51.348   8.546  17.970  0.00  0.00    +0.000 A 
ATOM     33  C   UNL     1      52.381   7.699  18.377  0.00  0.00    +0.000 A 
ENDBRANCH  27  28
ENDBRANCH  26  27
ENDBRANCH  23  26
ENDBRANCH   4  23
TORSDOF 8
ENDMDL
MODEL 9
REMARK VINA RESULT:    -6.754      3.312      9.083
REMARK INTER + INTRA:         -10.812
REMARK INTER:                  -9.478
REMARK INTRA:                  -1.334
REMARK UNBOUND:                -1.097
REMARK  Name = 
REMARK  8 active torsions:
REMARK  status: ('A' for Active; 'I' for Inactive)
REMARK    1  A    between atoms: C_2  and  C_21
REMARK    2  A    between atoms: N_3  and  C_4
REMARK    3  A    between atoms: C_4  and  C_5
REMARK    4  A    between atoms: C_8  and  C_9
REMARK    5  A    between atoms: C_9  and  O_10
REMARK    6  A    between atoms: C_9  and  C_11
REMARK    7  A    between atoms: C_11  and  C_12
REMARK    8  A    between atoms: C_12  and  C_13
REMARK                            x       y       z     vdW  Elec       q    Type
REMARK                         _______ _______ _______ _____ _____    ______ ____
ROOT
ATOM      1  C   UNL     1      48.212   7.952  13.691  0.00  0.00    +0.000 A 
ATOM      2  C   UNL     1      49.432   7.278  13.738  0.00  0.00    +0.000 A 
ATOM      3  C   UNL     1      50.213   7.339  14.892  0.00  0.00    +0.000 A 
ATOM      4  C   UNL     1      49.753   8.075  15.981  0.00  0.00    +0.000 A 
ATOM      5  N   UNL     1      48.575   8.755  15.955  0.00  0.00    +0.000 NA
ATOM      6  C   UNL     1      47.846   8.687  14.814  0.00  0.00    +0.000 A 
ENDROOT
BRANCH   1   7
ATOM      7  C   UNL     1      47.351   7.927  12.461  0.00  0.00    +0.000 C 
BRANCH   7  10
ATOM      8  O   UNL     1      44.862   7.610  11.268  0.00  0.00    +0.000 OA
ATOM      9  C   UNL     1      45.444   6.609  11.669  0.00  0.00    +0.000 C 
ATOM     10  N   UNL     1      46.639   6.682  12.343  0.00  0.00    +0.000 N 
ATOM     11  H   UNL     1      47.174   5.831  12.487  0.00  0.00    +0.000 HD
BRANCH   9  12
ATOM     12  C   UNL     1      44.887   5.266  11.478  0.00  0.00    +0.000 A 
ATOM     13  C   UNL     1      44.158   4.660  12.492  0.00  0.00    +0.000 A 
ATOM     14  S   UNL     1      43.566   3.114  12.079  0.00  0.00    +0.000 S 
ATOM     15  C   UNL     1      44.234   3.215  10.517  0.00  0.00    +0.000 A 
ATOM     16  N   UNL     1      44.051   2.219   9.609  0.00  0.00    +0.000 NA
ATOM     17  C   UNL     1      44.583   2.448   8.453  0.00  0.00    +0.000 A 
ATOM     18  N   UNL     1      45.295   3.572   8.128  0.00  0.00    +0.000 N 
ATOM     19  C   UNL     1      45.549   4.578   9.029  0.00  0.00    +0.000 A 
ATOM     20  O   UNL     1      46.268   5.527   8.738  0.00  0.00    +0.000 OA
ATOM     21  C   UNL     1      44.933   4.392  10.328  0.00  0.00    +0.000 A 
ATOM     22  H   UNL     1      45.713   3.678   7.215  0.00  0.00    +0.000 HD
ENDBRANCH   9  12
ENDBRANCH   7  10
ENDBRANCH   1   7
BRANCH   4  23
ATOM     23  C   UNL     1      50.569   8.152  17.262  0.00  0.00    +0.000 C 
BRANCH  23  24
ATOM     24  O   UNL     1      49.783   8.799  18.277  0.00  0.00    +0.000 OA
ATOM     25  H   UNL     1      49.895   8.236  19.071  0.00  0.00    +0.000 HD
ENDBRANCH  23  24
BRANCH  23  26
ATOM     26  C   UNL     1      50.966   6.781  17.823  0.00  0.00    +0.000 C 
BRANCH  26  27
ATOM     27  C   UNL     1      49.817   6.028  18.492  0.00  0.00    +0.000 C 
BRANCH  27  28
ATOM     28  C   UNL     1      49.562   4.690  17.843  0.00  0.00    +0.000 A 
ATOM     29  C   UNL     1      50.562   3.709  17.824  0.00  0.00    +0.000 A 
ATOM     30  C   UNL     1      50.317   2.461  17.247  0.00  0.00    +0.000 A 
ATOM     31  C   UNL     1      49.075   2.188  16.675  0.00  0.00    +0.000 A 
ATOM     32  C   UNL     1      48.084   3.167  16.667  0.00  0.00    +0.000 A 
ATOM     33  C   UNL     1      48.327   4.416  17.243  0.00  0.00    +0.000 A 
ENDBRANCH  27  28
ENDBRANCH  26  27
ENDBRANCH  23  26
ENDBRANCH   4  23
TORSDOF 8
ENDMDL
