MODEL 1
REMARK VINA RESULT:    -6.896      0.000      0.000
REMARK INTER + INTRA:          -9.599
REMARK INTER:                  -9.113
REMARK INTRA:                  -0.486
REMARK UNBOUND:                -0.486
REMARK  Name = 
REMARK  6 active torsions:
REMARK  status: ('A' for Active; 'I' for Inactive)
REMARK    1  A    between atoms: N_1  and  C_2
REMARK    2  A    between atoms: C_2  and  C_3
REMARK    3  A    between atoms: C_6  and  S_7
REMARK    4  A    between atoms: S_7  and  C_8
REMARK    5  A    between atoms: C_8  and  C_9
REMARK    6  A    between atoms: C_12  and  C_13
REMARK                            x       y       z     vdW  Elec       q    Type
REMARK                         _______ _______ _______ _____ _____    ______ ____
ROOT
ATOM      1  C   UNL     1      44.920   4.766  11.930  0.00  0.00    +0.000 C 
ENDROOT
BRANCH   1   2
ATOM      2  C   UNL     1      45.649   6.090  11.978  0.00  0.00    +0.000 C 
ATOM      3  C   UNL     1      46.850   6.268  11.391  0.00  0.00    +0.000 C 
ATOM      4  C   UNL     1      47.676   7.518  11.556  0.00  0.00    +0.000 C 
ATOM      5  C   UNL     1      47.172   8.441  12.672  0.00  0.00    +0.000 C 
ATOM      6  C   UNL     1      45.649   8.559  12.612  0.00  0.00    +0.000 C 
ATOM      7  C   UNL     1      44.955   7.201  12.737  0.00  0.00    +0.000 C 
BRANCH   5   8
ATOM      8  C   UNL     1      47.638   8.065  14.080  0.00  0.00    +0.000 C 
ATOM      9  N   UNL     1      47.431   8.950  15.093  0.00  0.00    +0.000 N 
ATOM     10  O   UNL     1      48.253   7.025  14.304  0.00  0.00    +0.000 OA
ATOM     11  H   UNL     1      47.180   9.917  14.939  0.00  0.00    +0.000 HD
ATOM     12  H   UNL     1      47.859   8.730  15.984  0.00  0.00    +0.000 HD
ENDBRANCH   5   8
ENDBRANCH   1   2
BRANCH   1  13
ATOM     13  S   UNL     1      43.798   4.757  10.484  0.00  0.00    +0.000 S 
BRANCH  13  17
ATOM     14  C   UNL     1      46.394   2.426   7.571  0.00  0.00    +0.000 A 
ATOM     15  C   UNL     1      45.701   1.739   8.571  0.00  0.00    +0.000 A 
ATOM     16  C   UNL     1      44.888   2.445   9.460  0.00  0.00    +0.000 A 
ATOM     17  C   UNL     1      44.789   3.823   9.329  0.00  0.00    +0.000 A 
ATOM     18  N   UNL     1      45.434   4.508   8.359  0.00  0.00    +0.000 NA
ATOM     19  C   UNL     1      46.214   3.800   7.512  0.00  0.00    +0.000 A 
BRANCH  14  20
ATOM     20  C   UNL     1      47.341   1.733   6.633  0.00  0.00    +0.000 C 
BRANCH  20  21
ATOM     21  N   UNL     1      48.568   2.489   6.424  0.00  0.00    +0.000 NA
ATOM     22  H   UNL     1      49.194   1.947   5.831  0.00  0.00    +0.000 HD
ATOM     23  H   UNL     1      49.049   2.601   7.316  0.00  0.00    +0.000 HD
ENDBRANCH  20  21
ENDBRANCH  14  20
ENDBRANCH  13  17
ENDBRANCH   1  13
TORSDOF 6
ENDMDL
MODEL 2
REMARK VINA RESULT:    -6.880      1.724      2.321
REMARK INTER + INTRA:          -9.578
REMARK INTER:                  -9.079
REMARK INTRA:                  -0.499
REMARK UNBOUND:                -0.486
REMARK  Name = 
REMARK  6 active torsions:
REMARK  status: ('A' for Active; 'I' for Inactive)
REMARK    1  A    between atoms: N_1  and  C_2
REMARK    2  A    between atoms: C_2  and  C_3
REMARK    3  A    between atoms: C_6  and  S_7
REMARK    4  A    between atoms: S_7  and  C_8
REMARK    5  A    between atoms: C_8  and  C_9
REMARK    6  A    between atoms: C_12  and  C_13
REMARK                            x       y       z     vdW  Elec       q    Type
REMARK                         _______ _______ _______ _____ _____    ______ ____
ROOT
ATOM      1  C   UNL     1      43.743   4.710  10.653  0.00  0.00    +0.000 C 
ENDROOT
BRANCH   1   2
ATOM      2  C   UNL     1      44.569   5.434  11.693  0.00  0.00    +0.000 C 
ATOM      3  C   UNL     1      44.469   6.764  11.888  0.00  0.00    +0.000 C 
ATOM      4  C   UNL     1      45.387   7.540  12.797  0.00  0.00    +0.000 C 
ATOM      5  C   UNL     1      46.616   6.742  13.250  0.00  0.00    +0.000 C 
ATOM      6  C   UNL     1      46.208   5.322  13.642  0.00  0.00    +0.000 C 
ATOM      7  C   UNL     1      45.525   4.575  12.494  0.00  0.00    +0.000 C 
BRANCH   5   8
ATOM      8  C   UNL     1      47.777   6.724  12.254  0.00  0.00    +0.000 C 
ATOM      9  N   UNL     1      49.040   6.539  12.728  0.00  0.00    +0.000 N 
ATOM     10  O   UNL     1      47.608   6.943  11.057  0.00  0.00    +0.000 OA
ATOM     11  H   UNL     1      49.279   6.620  13.706  0.00  0.00    +0.000 HD
ATOM     12  H   UNL     1      49.796   6.657  12.065  0.00  0.00    +0.000 HD
ENDBRANCH   5   8
ENDBRANCH   1   2
BRANCH   1  13
ATOM     13  S   UNL     1      44.206   2.940  10.652  0.00  0.00    +0.000 S 
BRANCH  13  17
ATOM     14  C   UNL     1      46.640   2.715   6.821  0.00  0.00    +0.000 A 
ATOM     15  C   UNL     1      46.078   3.936   7.204  0.00  0.00    +0.000 A 
ATOM     16  C   UNL     1      45.343   4.018   8.388  0.00  0.00    +0.000 A 
ATOM     17  C   UNL     1      45.185   2.875   9.161  0.00  0.00    +0.000 A 
ATOM     18  N   UNL     1      45.734   1.688   8.822  0.00  0.00    +0.000 NA
ATOM     19  C   UNL     1      46.441   1.637   7.671  0.00  0.00    +0.000 A 
BRANCH  14  20
ATOM     20  C   UNL     1      47.378   2.546   5.523  0.00  0.00    +0.000 C 
BRANCH  20  21
ATOM     21  N   UNL     1      48.612   1.789   5.680  0.00  0.00    +0.000 NA
ATOM     22  H   UNL     1      48.828   1.711   6.673  0.00  0.00    +0.000 HD
ATOM     23  H   UNL     1      49.382   2.311   5.263  0.00  0.00    +0.000 HD
ENDBRANCH  20  21
ENDBRANCH  14  20
ENDBRANCH  13  17
ENDBRANCH   1  13
TORSDOF 6
ENDMDL
MODEL 3
REMARK VINA RESULT:    -6.115      3.440      6.752
REMARK INTER + INTRA:          -8.568
REMARK INTER:                  -7.855
REMARK INTRA:                  -0.713
REMARK UNBOUND:                -0.486
REMARK  Name = 
REMARK  6 active torsions:
REMARK  status: ('A' for Active; 'I' for Inactive)
REMARK    1  A    between atoms: N_1  and  C_2
REMARK    2  A    between atoms: C_2  and  C_3
REMARK    3  A    between atoms: C_6  and  S_7
REMARK    4  A    between atoms: S_7  and  C_8
REMARK    5  A    between atoms: C_8  and  C_9
REMARK    6  A    between atoms: C_12  and  C_13
REMARK                            x       y       z     vdW  Elec       q    Type
REMARK                         _______ _______ _______ _____ _____    ______ ____
ROOT
ATOM      1  C   UNL     1      46.294   7.773  12.479  0.00  0.00    +0.000 C 
ENDROOT
BRANCH   1   2
ATOM      2  C   UNL     1      45.352   6.865  11.721  0.00  0.00    +0.000 C 
ATOM      3  C   UNL     1      44.025   6.852  11.956  0.00  0.00    +0.000 C 
ATOM      4  C   UNL     1      43.083   5.851  11.338  0.00  0.00    +0.000 C 
ATOM      5  C   UNL     1      43.799   4.678  10.656  0.00  0.00    +0.000 C 
ATOM      6  C   UNL     1      44.983   5.189   9.835  0.00  0.00    +0.000 C 
ATOM      7  C   UNL     1      45.992   5.960  10.689  0.00  0.00    +0.000 C 
BRANCH   5   8
ATOM      8  C   UNL     1      44.228   3.549  11.595  0.00  0.00    +0.000 C 
ATOM      9  N   UNL     1      45.037   2.569  11.108  0.00  0.00    +0.000 N 
ATOM     10  O   UNL     1      43.806   3.467  12.746  0.00  0.00    +0.000 OA
ATOM     11  H   UNL     1      45.201   2.428  10.121  0.00  0.00    +0.000 HD
ATOM     12  H   UNL     1      45.201   1.774  11.712  0.00  0.00    +0.000 HD
ENDBRANCH   5   8
ENDBRANCH   1   2
BRANCH   1  13
ATOM     13  S   UNL     1      47.968   7.033  12.471  0.00  0.00    +0.000 S 
BRANCH  13  17
ATOM     14  C   UNL     1      47.732   4.650  16.333  0.00  0.00    +0.000 A 
ATOM     15  C   UNL     1      46.975   4.243  15.231  0.00  0.00    +0.000 A 
ATOM     16  C   UNL     1      47.055   4.960  14.036  0.00  0.00    +0.000 A 
ATOM     17  C   UNL     1      47.888   6.068  13.971  0.00  0.00    +0.000 A 
ATOM     18  N   UNL     1      48.644   6.470  15.016  0.00  0.00    +0.000 NA
ATOM     19  C   UNL     1      48.549   5.758  16.162  0.00  0.00    +0.000 A 
BRANCH  14  20
ATOM     20  C   UNL     1      47.634   3.965  17.667  0.00  0.00    +0.000 C 
BRANCH  20  21
ATOM     21  N   UNL     1      46.628   2.912  17.678  0.00  0.00    +0.000 NA
ATOM     22  H   UNL     1      47.047   2.057  18.040  0.00  0.00    +0.000 HD
ATOM     23  H   UNL     1      46.348   2.706  16.719  0.00  0.00    +0.000 HD
ENDBRANCH  20  21
ENDBRANCH  14  20
ENDBRANCH  13  17
ENDBRANCH   1  13
TORSDOF 6
ENDMDL
MODEL 4
REMARK VINA RESULT:    -5.809      4.398      7.844
REMARK INTER + INTRA:          -8.163
REMARK INTER:                  -7.787
REMARK INTRA:                  -0.376
REMARK UNBOUND:                -0.486
REMARK  Name = 
REMARK  6 active torsions:
REMARK  status: ('A' for Active; 'I' for Inactive)
REMARK    1  A    between atoms: N_1  and  C_2
REMARK    2  A    between atoms: C_2  and  C_3
REMARK    3  A    between atoms: C_6  and  S_7
REMARK    4  A    between atoms: S_7  and  C_8
REMARK    5  A    between atoms: C_8  and  C_9
REMARK    6  A    between atoms: C_12  and  C_13
REMARK                            x       y       z     vdW  Elec       q    Type
REMARK                         _______ _______ _______ _____ _____    ______ ____
ROOT
ATOM      1  C   UNL     1      46.814   5.390  13.611  0.00  0.00    +0.000 C 
ENDROOT
BRANCH   1   2
ATOM      2  C   UNL     1      45.488   5.516  12.896  0.00  0.00    +0.000 C 
ATOM      3  C   UNL     1      44.361   4.944  13.369  0.00  0.00    +0.000 C 
ATOM      4  C   UNL     1      43.064   4.911  12.603  0.00  0.00    +0.000 C 
ATOM      5  C   UNL     1      43.211   5.321  11.132  0.00  0.00    +0.000 C 
ATOM      6  C   UNL     1      44.112   6.551  11.015  0.00  0.00    +0.000 C 
ATOM      7  C   UNL     1      45.503   6.312  11.608  0.00  0.00    +0.000 C 
BRANCH   5   8
ATOM      8  C   UNL     1      43.680   4.207  10.195  0.00  0.00    +0.000 C 
ATOM      9  N   UNL     1      44.091   4.540   8.941  0.00  0.00    +0.000 N 
ATOM     10  O   UNL     1      43.627   3.023  10.517  0.00  0.00    +0.000 OA
ATOM     11  H   UNL     1      43.911   5.442   8.523  0.00  0.00    +0.000 HD
ATOM     12  H   UNL     1      44.275   3.775   8.304  0.00  0.00    +0.000 HD
ENDBRANCH   5   8
ENDBRANCH   1   2
BRANCH   1  13
ATOM     13  S   UNL     1      47.055   3.647  14.116  0.00  0.00    +0.000 S 
BRANCH  13  17
ATOM     14  C   UNL     1      48.695   4.317  18.301  0.00  0.00    +0.000 A 
ATOM     15  C   UNL     1      48.340   3.025  17.904  0.00  0.00    +0.000 A 
ATOM     16  C   UNL     1      47.851   2.808  16.614  0.00  0.00    +0.000 A 
ATOM     17  C   UNL     1      47.726   3.888  15.752  0.00  0.00    +0.000 A 
ATOM     18  N   UNL     1      48.081   5.143  16.106  0.00  0.00    +0.000 NA
ATOM     19  C   UNL     1      48.552   5.326  17.360  0.00  0.00    +0.000 A 
BRANCH  14  20
ATOM     20  C   UNL     1      49.157   4.626  19.697  0.00  0.00    +0.000 C 
BRANCH  20  21
ATOM     21  N   UNL     1      48.424   3.871  20.704  0.00  0.00    +0.000 NA
ATOM     22  H   UNL     1      48.436   4.390  21.580  0.00  0.00    +0.000 HD
ATOM     23  H   UNL     1      48.912   2.994  20.887  0.00  0.00    +0.000 HD
ENDBRANCH  20  21
ENDBRANCH  14  20
ENDBRANCH  13  17
ENDBRANCH   1  13
TORSDOF 6
ENDMDL
MODEL 5
REMARK VINA RESULT:    -5.732      4.665      6.854
REMARK INTER + INTRA:          -8.061
REMARK INTER:                  -7.267
REMARK INTRA:                  -0.794
REMARK UNBOUND:                -0.486
REMARK  Name = 
REMARK  6 active torsions:
REMARK  status: ('A' for Active; 'I' for Inactive)
REMARK    1  A    between atoms: N_1  and  C_2
REMARK    2  A    between atoms: C_2  and  C_3
REMARK    3  A    between atoms: C_6  and  S_7
REMARK    4  A    between atoms: S_7  and  C_8
REMARK    5  A    between atoms: C_8  and  C_9
REMARK    6  A    between atoms: C_12  and  C_13
REMARK                            x       y       z     vdW  Elec       q    Type
REMARK                         _______ _______ _______ _____ _____    ______ ____
ROOT
ATOM      1  C   UNL     1      48.971   7.498  16.289  0.00  0.00    +0.000 C 
ENDROOT
BRANCH   1   2
ATOM      2  C   UNL     1      49.067   6.229  17.105  0.00  0.00    +0.000 C 
ATOM      3  C   UNL     1      50.110   5.382  16.992  0.00  0.00    +0.000 C 
ATOM      4  C   UNL     1      50.160   4.034  17.665  0.00  0.00    +0.000 C 
ATOM      5  C   UNL     1      48.812   3.591  18.246  0.00  0.00    +0.000 C 
ATOM      6  C   UNL     1      48.138   4.757  18.968  0.00  0.00    +0.000 C 
ATOM      7  C   UNL     1      47.913   5.959  18.047  0.00  0.00    +0.000 C 
BRANCH   5   8
ATOM      8  C   UNL     1      47.857   2.944  17.240  0.00  0.00    +0.000 C 
ATOM      9  N   UNL     1      48.371   2.443  16.083  0.00  0.00    +0.000 N 
ATOM     10  O   UNL     1      46.641   2.929  17.416  0.00  0.00    +0.000 OA
ATOM     11  H   UNL     1      49.303   2.656  15.755  0.00  0.00    +0.000 HD
ATOM     12  H   UNL     1      47.705   2.137  15.385  0.00  0.00    +0.000 HD
ENDBRANCH   5   8
ENDBRANCH   1   2
BRANCH   1  13
ATOM     13  S   UNL     1      49.388   7.119  14.547  0.00  0.00    +0.000 S 
BRANCH  13  17
ATOM     14  C   UNL     1      45.414   5.342  13.242  0.00  0.00    +0.000 A 
ATOM     15  C   UNL     1      45.724   6.658  12.889  0.00  0.00    +0.000 A 
ATOM     16  C   UNL     1      46.950   7.206  13.271  0.00  0.00    +0.000 A 
ATOM     17  C   UNL     1      47.836   6.426  14.001  0.00  0.00    +0.000 A 
ATOM     18  N   UNL     1      47.568   5.145  14.337  0.00  0.00    +0.000 NA
ATOM     19  C   UNL     1      46.375   4.639  13.954  0.00  0.00    +0.000 A 
BRANCH  14  20
ATOM     20  C   UNL     1      44.083   4.720  12.924  0.00  0.00    +0.000 C 
BRANCH  20  21
ATOM     21  N   UNL     1      42.968   5.590  13.272  0.00  0.00    +0.000 NA
ATOM     22  H   UNL     1      43.289   6.557  13.269  0.00  0.00    +0.000 HD
ATOM     23  H   UNL     1      42.673   5.392  14.227  0.00  0.00    +0.000 HD
ENDBRANCH  20  21
ENDBRANCH  14  20
ENDBRANCH  13  17
ENDBRANCH   1  13
TORSDOF 6
ENDMDL
MODEL 6
REMARK VINA RESULT:    -5.570      1.777      2.164
REMARK INTER + INTRA:          -7.847
REMARK INTER:                  -7.298
REMARK INTRA:                  -0.550
REMARK UNBOUND:                -0.486
REMARK  Name = 
REMARK  6 active torsions:
REMARK  status: ('A' for Active; 'I' for Inactive)
REMARK    1  A    between atoms: N_1  and  C_2
REMARK    2  A    between atoms: C_2  and  C_3
REMARK    3  A    between atoms: C_6  and  S_7
REMARK    4  A    between atoms: S_7  and  C_8
REMARK    5  A    between atoms: C_8  and  C_9
REMARK    6  A    between atoms: C_12  and  C_13
REMARK                            x       y       z     vdW  Elec       q    Type
REMARK                         _______ _______ _______ _____ _____    ______ ____
ROOT
ATOM      1  C   UNL     1      45.652   4.731  13.041  0.00  0.00    +0.000 C 
ENDROOT
BRANCH   1   2
ATOM      2  C   UNL     1      46.385   6.033  13.272  0.00  0.00    +0.000 C 
ATOM      3  C   UNL     1      46.000   7.185  12.686  0.00  0.00    +0.000 C 
ATOM      4  C   UNL     1      46.798   8.461  12.762  0.00  0.00    +0.000 C 
ATOM      5  C   UNL     1      48.217   8.263  13.312  0.00  0.00    +0.000 C 
ATOM      6  C   UNL     1      48.188   7.331  14.523  0.00  0.00    +0.000 C 
ATOM      7  C   UNL     1      47.587   5.964  14.190  0.00  0.00    +0.000 C 
BRANCH   5   8
ATOM      8  C   UNL     1      49.248   7.794  12.284  0.00  0.00    +0.000 C 
ATOM      9  N   UNL     1      50.518   7.541  12.704  0.00  0.00    +0.000 N 
ATOM     10  O   UNL     1      48.980   7.711  11.088  0.00  0.00    +0.000 OA
ATOM     11  H   UNL     1      50.872   7.841  13.601  0.00  0.00    +0.000 HD
ATOM     12  H   UNL     1      51.206   7.356  11.985  0.00  0.00    +0.000 HD
ENDBRANCH   5   8
ENDBRANCH   1   2
BRANCH   1  13
ATOM     13  S   UNL     1      44.169   5.055  12.019  0.00  0.00    +0.000 S 
BRANCH  13  17
ATOM     14  C   UNL     1      45.660   3.383   8.064  0.00  0.00    +0.000 A 
ATOM     15  C   UNL     1      44.831   2.598   8.870  0.00  0.00    +0.000 A 
ATOM     16  C   UNL     1      44.355   3.110  10.079  0.00  0.00    +0.000 A 
ATOM     17  C   UNL     1      44.721   4.395  10.455  0.00  0.00    +0.000 A 
ATOM     18  N   UNL     1      45.505   5.181   9.684  0.00  0.00    +0.000 NA
ATOM     19  C   UNL     1      45.952   4.661   8.519  0.00  0.00    +0.000 A 
BRANCH  14  20
ATOM     20  C   UNL     1      46.263   2.862   6.791  0.00  0.00    +0.000 C 
BRANCH  20  21
ATOM     21  N   UNL     1      46.813   3.926   5.961  0.00  0.00    +0.000 NA
ATOM     22  H   UNL     1      46.302   4.788   6.148  0.00  0.00    +0.000 HD
ATOM     23  H   UNL     1      46.647   3.706   4.980  0.00  0.00    +0.000 HD
ENDBRANCH  20  21
ENDBRANCH  14  20
ENDBRANCH  13  17
ENDBRANCH   1  13
TORSDOF 6
ENDMDL
MODEL 7
REMARK VINA RESULT:    -5.569      1.724      2.279
REMARK INTER + INTRA:          -7.846
REMARK INTER:                  -7.365
REMARK INTRA:                  -0.481
REMARK UNBOUND:                -0.486
REMARK  Name = 
REMARK  6 active torsions:
REMARK  status: ('A' for Active; 'I' for Inactive)
REMARK    1  A    between atoms: N_1  and  C_2
REMARK    2  A    between atoms: C_2  and  C_3
REMARK    3  A    between atoms: C_6  and  S_7
REMARK    4  A    between atoms: S_7  and  C_8
REMARK    5  A    between atoms: C_8  and  C_9
REMARK    6  A    between atoms: C_12  and  C_13
REMARK                            x       y       z     vdW  Elec       q    Type
REMARK                         _______ _______ _______ _____ _____    ______ ____
ROOT
ATOM      1  C   UNL     1      46.402   5.420  13.553  0.00  0.00    +0.000 C 
ENDROOT
BRANCH   1   2
ATOM      2  C   UNL     1      47.073   6.649  12.983  0.00  0.00    +0.000 C 
ATOM      3  C   UNL     1      48.331   6.619  12.496  0.00  0.00    +0.000 C 
ATOM      4  C   UNL     1      49.086   7.852  12.072  0.00  0.00    +0.000 C 
ATOM      5  C   UNL     1      48.415   9.160  12.511  0.00  0.00    +0.000 C 
ATOM      6  C   UNL     1      46.908   9.090  12.265  0.00  0.00    +0.000 C 
ATOM      7  C   UNL     1      46.252   7.922  13.003  0.00  0.00    +0.000 C 
BRANCH   5   8
ATOM      8  C   UNL     1      48.716   9.589  13.949  0.00  0.00    +0.000 C 
ATOM      9  N   UNL     1      48.338  10.834  14.350  0.00  0.00    +0.000 N 
ATOM     10  O   UNL     1      49.349   8.872  14.721  0.00  0.00    +0.000 OA
ATOM     11  H   UNL     1      48.062  11.561  13.706  0.00  0.00    +0.000 HD
ATOM     12  H   UNL     1      48.660  11.135  15.261  0.00  0.00    +0.000 HD
ENDBRANCH   5   8
ENDBRANCH   1   2
BRANCH   1  13
ATOM     13  S   UNL     1      44.702   5.307  12.886  0.00  0.00    +0.000 S 
BRANCH  13  17
ATOM     14  C   UNL     1      45.512   3.828   8.666  0.00  0.00    +0.000 A 
ATOM     15  C   UNL     1      45.805   5.155   8.994  0.00  0.00    +0.000 A 
ATOM     16  C   UNL     1      45.575   5.613  10.293  0.00  0.00    +0.000 A 
ATOM     17  C   UNL     1      45.055   4.734  11.233  0.00  0.00    +0.000 A 
ATOM     18  N   UNL     1      44.782   3.442  10.945  0.00  0.00    +0.000 NA
ATOM     19  C   UNL     1      45.014   3.025   9.681  0.00  0.00    +0.000 A 
BRANCH  14  20
ATOM     20  C   UNL     1      45.668   3.297   7.269  0.00  0.00    +0.000 C 
BRANCH  20  21
ATOM     21  N   UNL     1      46.732   3.969   6.536  0.00  0.00    +0.000 NA
ATOM     22  H   UNL     1      46.876   4.894   6.936  0.00  0.00    +0.000 HD
ATOM     23  H   UNL     1      46.432   4.120   5.573  0.00  0.00    +0.000 HD
ENDBRANCH  20  21
ENDBRANCH  14  20
ENDBRANCH  13  17
ENDBRANCH   1  13
TORSDOF 6
ENDMDL
MODEL 8
REMARK VINA RESULT:    -5.340      2.661      6.603
REMARK INTER + INTRA:          -7.543
REMARK INTER:                  -7.081
REMARK INTRA:                  -0.462
REMARK UNBOUND:                -0.486
REMARK  Name = 
REMARK  6 active torsions:
REMARK  status: ('A' for Active; 'I' for Inactive)
REMARK    1  A    between atoms: N_1  and  C_2
REMARK    2  A    between atoms: C_2  and  C_3
REMARK    3  A    between atoms: C_6  and  S_7
REMARK    4  A    between atoms: S_7  and  C_8
REMARK    5  A    between atoms: C_8  and  C_9
REMARK    6  A    between atoms: C_12  and  C_13
REMARK                            x       y       z     vdW  Elec       q    Type
REMARK                         _______ _______ _______ _____ _____    ______ ____
ROOT
ATOM      1  C   UNL     1      45.357   3.608  12.246  0.00  0.00    +0.000 C 
ENDROOT
BRANCH   1   2
ATOM      2  C   UNL     1      44.977   3.406  10.797  0.00  0.00    +0.000 C 
ATOM      3  C   UNL     1      44.551   2.215  10.327  0.00  0.00    +0.000 C 
ATOM      4  C   UNL     1      44.321   1.935   8.864  0.00  0.00    +0.000 C 
ATOM      5  C   UNL     1      44.886   3.020   7.938  0.00  0.00    +0.000 C 
ATOM      6  C   UNL     1      44.560   4.408   8.489  0.00  0.00    +0.000 C 
ATOM      7  C   UNL     1      45.115   4.618   9.900  0.00  0.00    +0.000 C 
BRANCH   5   8
ATOM      8  C   UNL     1      46.379   2.890   7.627  0.00  0.00    +0.000 C 
ATOM      9  N   UNL     1      47.019   3.945   7.053  0.00  0.00    +0.000 N 
ATOM     10  O   UNL     1      46.991   1.842   7.815  0.00  0.00    +0.000 OA
ATOM     11  H   UNL     1      46.531   4.723   6.632  0.00  0.00    +0.000 HD
ATOM     12  H   UNL     1      47.970   3.786   6.745  0.00  0.00    +0.000 HD
ENDBRANCH   5   8
ENDBRANCH   1   2
BRANCH   1  13
ATOM     13  S   UNL     1      44.556   5.133  12.864  0.00  0.00    +0.000 S 
BRANCH  13  17
ATOM     14  C   UNL     1      48.026   8.022  12.343  0.00  0.00    +0.000 A 
ATOM     15  C   UNL     1      46.716   8.499  12.236  0.00  0.00    +0.000 A 
ATOM     16  C   UNL     1      45.644   7.622  12.411  0.00  0.00    +0.000 A 
ATOM     17  C   UNL     1      45.907   6.287  12.687  0.00  0.00    +0.000 A 
ATOM     18  N   UNL     1      47.163   5.806  12.814  0.00  0.00    +0.000 NA
ATOM     19  C   UNL     1      48.182   6.676  12.640  0.00  0.00    +0.000 A 
BRANCH  14  20
ATOM     20  C   UNL     1      49.219   8.899  12.092  0.00  0.00    +0.000 C 
BRANCH  20  21
ATOM     21  N   UNL     1      48.881  10.092  11.327  0.00  0.00    +0.000 NA
ATOM     22  H   UNL     1      49.380  10.068  10.439  0.00  0.00    +0.000 HD
ATOM     23  H   UNL     1      49.221  10.915  11.822  0.00  0.00    +0.000 HD
ENDBRANCH  20  21
ENDBRANCH  14  20
ENDBRANCH  13  17
ENDBRANCH   1  13
TORSDOF 6
ENDMDL
MODEL 9
REMARK VINA RESULT:    -5.238      4.499      6.838
REMARK INTER + INTRA:          -7.408
REMARK INTER:                  -7.317
REMARK INTRA:                  -0.091
REMARK UNBOUND:                -0.486
REMARK  Name = 
REMARK  6 active torsions:
REMARK  status: ('A' for Active; 'I' for Inactive)
REMARK    1  A    between atoms: N_1  and  C_2
REMARK    2  A    between atoms: C_2  and  C_3
REMARK    3  A    between atoms: C_6  and  S_7
REMARK    4  A    between atoms: S_7  and  C_8
REMARK    5  A    between atoms: C_8  and  C_9
REMARK    6  A    between atoms: C_12  and  C_13
REMARK                            x       y       z     vdW  Elec       q    Type
REMARK                         _______ _______ _______ _____ _____    ______ ____
ROOT
ATOM      1  C   UNL     1      47.916   5.888  14.645  0.00  0.00    +0.000 C 
ENDROOT
BRANCH   1   2
ATOM      2  C   UNL     1      48.116   5.093  15.915  0.00  0.00    +0.000 C 
ATOM      3  C   UNL     1      48.927   5.518  16.906  0.00  0.00    +0.000 C 
ATOM      4  C   UNL     1      49.275   4.679  18.109  0.00  0.00    +0.000 C 
ATOM      5  C   UNL     1      48.868   3.207  17.966  0.00  0.00    +0.000 C 
ATOM      6  C   UNL     1      47.464   3.103  17.369  0.00  0.00    +0.000 C 
ATOM      7  C   UNL     1      47.362   3.784  16.002  0.00  0.00    +0.000 C 
BRANCH   5   8
ATOM      8  C   UNL     1      49.858   2.335  17.192  0.00  0.00    +0.000 C 
ATOM      9  N   UNL     1      51.140   2.249  17.641  0.00  0.00    +0.000 N 
ATOM     10  O   UNL     1      49.547   1.772  16.145  0.00  0.00    +0.000 OA
ATOM     11  H   UNL     1      51.529   2.883  18.325  0.00  0.00    +0.000 HD
ATOM     12  H   UNL     1      51.800   1.769  17.043  0.00  0.00    +0.000 HD
ENDBRANCH   5   8
ENDBRANCH   1   2
BRANCH   1  13
ATOM     13  S   UNL     1      46.652   5.057  13.616  0.00  0.00    +0.000 S 
BRANCH  13  17
ATOM     14  C   UNL     1      44.721   8.645  11.602  0.00  0.00    +0.000 A 
ATOM     15  C   UNL     1      45.739   8.851  12.537  0.00  0.00    +0.000 A 
ATOM     16  C   UNL     1      46.349   7.753  13.147  0.00  0.00    +0.000 A 
ATOM     17  C   UNL     1      45.925   6.475  12.811  0.00  0.00    +0.000 A 
ATOM     18  N   UNL     1      44.956   6.250  11.897  0.00  0.00    +0.000 NA
ATOM     19  C   UNL     1      44.382   7.329  11.320  0.00  0.00    +0.000 A 
BRANCH  14  20
ATOM     20  C   UNL     1      43.976   9.785  10.967  0.00  0.00    +0.000 C 
BRANCH  20  21
ATOM     21  N   UNL     1      43.419  10.701  11.952  0.00  0.00    +0.000 NA
ATOM     22  H   UNL     1      42.406  10.724  11.847  0.00  0.00    +0.000 HD
ATOM     23  H   UNL     1      43.746  11.646  11.753  0.00  0.00    +0.000 HD
ENDBRANCH  20  21
ENDBRANCH  14  20
ENDBRANCH  13  17
ENDBRANCH   1  13
TORSDOF 6
ENDMDL
