MODEL 1
REMARK VINA RESULT:    -7.966      0.000      0.000
REMARK INTER + INTRA:         -10.951
REMARK INTER:                 -10.295
REMARK INTRA:                  -0.657
REMARK UNBOUND:                -0.657
REMARK  Name = 
REMARK  5 active torsions:
REMARK  status: ('A' for Active; 'I' for Inactive)
REMARK    1  A    between atoms: C_2  and  C_4
REMARK    2  A    between atoms: C_8  and  O_9
REMARK    3  A    between atoms: O_9  and  C_10
REMARK    4  A    between atoms: C_10  and  C_11
REMARK    5  A    between atoms: C_15  and  C_16
REMARK                            x       y       z     vdW  Elec       q    Type
REMARK                         _______ _______ _______ _____ _____    ______ ____
ROOT
ATOM      1  C   UNL     1      45.430   6.338  13.089  0.00  0.00    +0.000 C 
ENDROOT
BRANCH   1   2
ATOM      2  C   UNL     1      44.800   5.262  12.242  0.00  0.00    +0.000 A 
ATOM      3  C   UNL     1      43.561   4.717  12.574  0.00  0.00    +0.000 A 
ATOM      4  C   UNL     1      43.009   3.775  11.724  0.00  0.00    +0.000 A 
ATOM      5  N   UNL     1      43.608   3.334  10.593  0.00  0.00    +0.000 NA
ATOM      6  C   UNL     1      44.827   3.839  10.284  0.00  0.00    +0.000 A 
ATOM      7  C   UNL     1      45.440   4.804  11.085  0.00  0.00    +0.000 A 
BRANCH   6   8
ATOM      8  C   UNL     1      45.448   3.315   9.056  0.00  0.00    +0.000 A 
ATOM      9  C   UNL     1      45.777   4.153   7.985  0.00  0.00    +0.000 A 
ATOM     10  N   UNL     1      46.372   3.750   6.830  0.00  0.00    +0.000 NA
ATOM     11  C   UNL     1      46.647   2.430   6.723  0.00  0.00    +0.000 A 
ATOM     12  C   UNL     1      46.353   1.507   7.709  0.00  0.00    +0.000 A 
ATOM     13 CL   UNL     1      46.724  -0.157   7.504  0.00  0.00    +0.000 Cl
ATOM     14  C   UNL     1      45.745   1.954   8.880  0.00  0.00    +0.000 A 
ENDBRANCH   6   8
ENDBRANCH   1   2
BRANCH   1  15
ATOM     15  O   UNL     1      46.850   6.333  12.905  0.00  0.00    +0.000 OA
BRANCH  15  20
ATOM     16  C   UNL     1      47.922   4.702  15.868  0.00  0.00    +0.000 A 
ATOM     17  N   UNL     1      48.836   5.540  16.412  0.00  0.00    +0.000 NA
ATOM     18  C   UNL     1      49.062   6.671  15.716  0.00  0.00    +0.000 A 
ATOM     19  C   UNL     1      48.423   6.983  14.535  0.00  0.00    +0.000 A 
ATOM     20  C   UNL     1      47.516   6.052  14.084  0.00  0.00    +0.000 A 
ATOM     21  N   UNL     1      47.248   4.907  14.725  0.00  0.00    +0.000 NA
BRANCH  16  23
ATOM     22  N   UNL     1      48.586   2.464  16.603  0.00  0.00    +0.000 N 
ATOM     23  C   UNL     1      47.610   3.430  16.622  0.00  0.00    +0.000 C 
ATOM     24  O   UNL     1      46.560   3.244  17.228  0.00  0.00    +0.000 OA
ATOM     25  H   UNL     1      48.432   1.609  17.119  0.00  0.00    +0.000 HD
ATOM     26  H   UNL     1      49.462   2.624  16.120  0.00  0.00    +0.000 HD
ENDBRANCH  16  23
ENDBRANCH  15  20
ENDBRANCH   1  15
TORSDOF 5
ENDMDL
MODEL 2
REMARK VINA RESULT:    -7.912      1.580      1.879
REMARK INTER + INTRA:         -10.881
REMARK INTER:                 -10.342
REMARK INTRA:                  -0.539
REMARK UNBOUND:                -0.657
REMARK  Name = 
REMARK  5 active torsions:
REMARK  status: ('A' for Active; 'I' for Inactive)
REMARK    1  A    between atoms: C_2  and  C_4
REMARK    2  A    between atoms: C_8  and  O_9
REMARK    3  A    between atoms: O_9  and  C_10
REMARK    4  A    between atoms: C_10  and  C_11
REMARK    5  A    between atoms: C_15  and  C_16
REMARK                            x       y       z     vdW  Elec       q    Type
REMARK                         _______ _______ _______ _____ _____    ______ ____
ROOT
ATOM      1  C   UNL     1      43.928   6.936  11.305  0.00  0.00    +0.000 C 
ENDROOT
BRANCH   1   2
ATOM      2  C   UNL     1      43.921   5.453  11.033  0.00  0.00    +0.000 A 
ATOM      3  C   UNL     1      43.089   4.593  11.746  0.00  0.00    +0.000 A 
ATOM      4  C   UNL     1      43.087   3.252  11.407  0.00  0.00    +0.000 A 
ATOM      5  N   UNL     1      43.859   2.716  10.435  0.00  0.00    +0.000 NA
ATOM      6  C   UNL     1      44.693   3.544   9.760  0.00  0.00    +0.000 A 
ATOM      7  C   UNL     1      44.740   4.912  10.034  0.00  0.00    +0.000 A 
BRANCH   6   8
ATOM      8  C   UNL     1      45.528   2.913   8.724  0.00  0.00    +0.000 A 
ATOM      9  C   UNL     1      46.191   3.670   7.754  0.00  0.00    +0.000 A 
ATOM     10  N   UNL     1      46.997   3.164   6.781  0.00  0.00    +0.000 NA
ATOM     11  C   UNL     1      47.145   1.821   6.760  0.00  0.00    +0.000 A 
ATOM     12  C   UNL     1      46.526   0.971   7.658  0.00  0.00    +0.000 A 
ATOM     13 CL   UNL     1      46.752  -0.729   7.570  0.00  0.00    +0.000 Cl
ATOM     14  C   UNL     1      45.709   1.522   8.643  0.00  0.00    +0.000 A 
ENDBRANCH   6   8
ENDBRANCH   1   2
BRANCH   1  15
ATOM     15  O   UNL     1      44.358   7.183  12.647  0.00  0.00    +0.000 OA
BRANCH  15  20
ATOM     16  C   UNL     1      47.018   5.205  13.913  0.00  0.00    +0.000 A 
ATOM     17  N   UNL     1      48.130   5.706  13.326  0.00  0.00    +0.000 NA
ATOM     18  C   UNL     1      47.920   6.736  12.484  0.00  0.00    +0.000 A 
ATOM     19  C   UNL     1      46.675   7.267  12.222  0.00  0.00    +0.000 A 
ATOM     20  C   UNL     1      45.623   6.673  12.880  0.00  0.00    +0.000 A 
ATOM     21  N   UNL     1      45.763   5.644  13.725  0.00  0.00    +0.000 NA
BRANCH  16  23
ATOM     22  N   UNL     1      46.845   4.322  16.190  0.00  0.00    +0.000 N 
ATOM     23  C   UNL     1      47.199   4.065  14.888  0.00  0.00    +0.000 C 
ATOM     24  O   UNL     1      47.628   2.962  14.565  0.00  0.00    +0.000 OA
ATOM     25  H   UNL     1      46.921   3.579  16.869  0.00  0.00    +0.000 HD
ATOM     26  H   UNL     1      46.471   5.227  16.454  0.00  0.00    +0.000 HD
ENDBRANCH  16  23
ENDBRANCH  15  20
ENDBRANCH   1  15
TORSDOF 5
ENDMDL
MODEL 3
REMARK VINA RESULT:    -7.615      3.559      5.280
REMARK INTER + INTRA:         -10.497
REMARK INTER:                  -9.809
REMARK INTRA:                  -0.688
REMARK UNBOUND:                -0.657
REMARK  Name = 
REMARK  5 active torsions:
REMARK  status: ('A' for Active; 'I' for Inactive)
REMARK    1  A    between atoms: C_2  and  C_4
REMARK    2  A    between atoms: C_8  and  O_9
REMARK    3  A    between atoms: O_9  and  C_10
REMARK    4  A    between atoms: C_10  and  C_11
REMARK    5  A    between atoms: C_15  and  C_16
REMARK                            x       y       z     vdW  Elec       q    Type
REMARK                         _______ _______ _______ _____ _____    ______ ____
ROOT
ATOM      1  C   UNL     1      45.094   6.789  12.826  0.00  0.00    +0.000 C 
ENDROOT
BRANCH   1   2
ATOM      2  C   UNL     1      44.599   5.566  12.094  0.00  0.00    +0.000 A 
ATOM      3  C   UNL     1      43.452   4.894  12.509  0.00  0.00    +0.000 A 
ATOM      4  C   UNL     1      43.017   3.815  11.760  0.00  0.00    +0.000 A 
ATOM      5  N   UNL     1      43.648   3.359  10.654  0.00  0.00    +0.000 NA
ATOM      6  C   UNL     1      44.782   3.991  10.266  0.00  0.00    +0.000 A 
ATOM      7  C   UNL     1      45.274   5.096  10.962  0.00  0.00    +0.000 A 
BRANCH   6   8
ATOM      8  C   UNL     1      45.445   3.447   9.068  0.00  0.00    +0.000 A 
ATOM      9  C   UNL     1      45.829   4.270   8.005  0.00  0.00    +0.000 A 
ATOM     10  N   UNL     1      46.465   3.848   6.879  0.00  0.00    +0.000 NA
ATOM     11  C   UNL     1      46.726   2.524   6.794  0.00  0.00    +0.000 A 
ATOM     12  C   UNL     1      46.378   1.614   7.776  0.00  0.00    +0.000 A 
ATOM     13 CL   UNL     1      46.733  -0.057   7.601  0.00  0.00    +0.000 Cl
ATOM     14  C   UNL     1      45.729   2.080   8.917  0.00  0.00    +0.000 A 
ENDBRANCH   6   8
ENDBRANCH   1   2
BRANCH   1  15
ATOM     15  O   UNL     1      45.913   7.577  11.957  0.00  0.00    +0.000 OA
BRANCH  15  20
ATOM     16  C   UNL     1      43.657  10.145  11.005  0.00  0.00    +0.000 A 
ATOM     17  N   UNL     1      44.312  11.297  11.276  0.00  0.00    +0.000 NA
ATOM     18  C   UNL     1      45.545  11.148  11.798  0.00  0.00    +0.000 A 
ATOM     19  C   UNL     1      46.126   9.923  12.046  0.00  0.00    +0.000 A 
ATOM     20  C   UNL     1      45.361   8.825  11.728  0.00  0.00    +0.000 A 
ATOM     21  N   UNL     1      44.128   8.904  11.211  0.00  0.00    +0.000 NA
BRANCH  16  23
ATOM     22  N   UNL     1      41.263   9.641  11.083  0.00  0.00    +0.000 N 
ATOM     23  C   UNL     1      42.280  10.254  10.392  0.00  0.00    +0.000 C 
ATOM     24  O   UNL     1      42.051  10.853   9.347  0.00  0.00    +0.000 OA
ATOM     25  H   UNL     1      40.321   9.715  10.726  0.00  0.00    +0.000 HD
ATOM     26  H   UNL     1      41.447   9.163  11.958  0.00  0.00    +0.000 HD
ENDBRANCH  16  23
ENDBRANCH  15  20
ENDBRANCH   1  15
TORSDOF 5
ENDMDL
MODEL 4
REMARK VINA RESULT:    -7.589      3.724      7.253
REMARK INTER + INTRA:         -10.463
REMARK INTER:                  -9.837
REMARK INTRA:                  -0.626
REMARK UNBOUND:                -0.657
REMARK  Name = 
REMARK  5 active torsions:
REMARK  status: ('A' for Active; 'I' for Inactive)
REMARK    1  A    between atoms: C_2  and  C_4
REMARK    2  A    between atoms: C_8  and  O_9
REMARK    3  A    between atoms: O_9  and  C_10
REMARK    4  A    between atoms: C_10  and  C_11
REMARK    5  A    between atoms: C_15  and  C_16
REMARK                            x       y       z     vdW  Elec       q    Type
REMARK                         _______ _______ _______ _____ _____    ______ ____
ROOT
ATOM      1  C   UNL     1      43.711   3.772  11.330  0.00  0.00    +0.000 C 
ENDROOT
BRANCH   1   2
ATOM      2  C   UNL     1      44.963   4.227  12.038  0.00  0.00    +0.000 A 
ATOM      3  C   UNL     1      45.653   3.376  12.900  0.00  0.00    +0.000 A 
ATOM      4  C   UNL     1      46.827   3.834  13.472  0.00  0.00    +0.000 A 
ATOM      5  N   UNL     1      47.341   5.067  13.260  0.00  0.00    +0.000 NA
ATOM      6  C   UNL     1      46.656   5.908  12.448  0.00  0.00    +0.000 A 
ATOM      7  C   UNL     1      45.472   5.512  11.822  0.00  0.00    +0.000 A 
BRANCH   6   8
ATOM      8  C   UNL     1      47.243   7.246  12.263  0.00  0.00    +0.000 A 
ATOM      9  C   UNL     1      46.446   8.390  12.162  0.00  0.00    +0.000 A 
ATOM     10  N   UNL     1      46.913   9.659  12.015  0.00  0.00    +0.000 NA
ATOM     11  C   UNL     1      48.256   9.803  11.948  0.00  0.00    +0.000 A 
ATOM     12  C   UNL     1      49.141   8.743  12.019  0.00  0.00    +0.000 A 
ATOM     13 CL   UNL     1      50.837   8.996  11.922  0.00  0.00    +0.000 Cl
ATOM     14  C   UNL     1      48.629   7.456  12.173  0.00  0.00    +0.000 A 
ENDBRANCH   6   8
ENDBRANCH   1   2
BRANCH   1  15
ATOM     15  O   UNL     1      43.952   2.526  10.669  0.00  0.00    +0.000 OA
BRANCH  15  20
ATOM     16  C   UNL     1      46.134   1.982   7.925  0.00  0.00    +0.000 A 
ATOM     17  N   UNL     1      46.008   3.090   7.159  0.00  0.00    +0.000 NA
ATOM     18  C   UNL     1      45.146   4.015   7.624  0.00  0.00    +0.000 A 
ATOM     19  C   UNL     1      44.432   3.872   8.795  0.00  0.00    +0.000 A 
ATOM     20  C   UNL     1      44.646   2.702   9.486  0.00  0.00    +0.000 A 
ATOM     21  N   UNL     1      45.485   1.742   9.076  0.00  0.00    +0.000 NA
BRANCH  16  23
ATOM     22  N   UNL     1      46.760  -0.377   7.735  0.00  0.00    +0.000 N 
ATOM     23  C   UNL     1      47.108   0.923   7.462  0.00  0.00    +0.000 C 
ATOM     24  O   UNL     1      48.152   1.178   6.870  0.00  0.00    +0.000 OA
ATOM     25  H   UNL     1      47.368  -1.118   7.417  0.00  0.00    +0.000 HD
ATOM     26  H   UNL     1      45.889  -0.590   8.207  0.00  0.00    +0.000 HD
ENDBRANCH  16  23
ENDBRANCH  15  20
ENDBRANCH   1  15
TORSDOF 5
ENDMDL
MODEL 5
REMARK VINA RESULT:    -7.568      1.858      2.834
REMARK INTER + INTRA:         -10.437
REMARK INTER:                  -9.678
REMARK INTRA:                  -0.758
REMARK UNBOUND:                -0.657
REMARK  Name = 
REMARK  5 active torsions:
REMARK  status: ('A' for Active; 'I' for Inactive)
REMARK    1  A    between atoms: C_2  and  C_4
REMARK    2  A    between atoms: C_8  and  O_9
REMARK    3  A    between atoms: O_9  and  C_10
REMARK    4  A    between atoms: C_10  and  C_11
REMARK    5  A    between atoms: C_15  and  C_16
REMARK                            x       y       z     vdW  Elec       q    Type
REMARK                         _______ _______ _______ _____ _____    ______ ____
ROOT
ATOM      1  C   UNL     1      48.257   7.534  13.578  0.00  0.00    +0.000 C 
ENDROOT
BRANCH   1   2
ATOM      2  C   UNL     1      46.959   7.401  12.821  0.00  0.00    +0.000 A 
ATOM      3  C   UNL     1      46.010   8.420  12.834  0.00  0.00    +0.000 A 
ATOM      4  C   UNL     1      44.866   8.260  12.071  0.00  0.00    +0.000 A 
ATOM      5  N   UNL     1      44.603   7.164  11.323  0.00  0.00    +0.000 NA
ATOM      6  C   UNL     1      45.510   6.158  11.333  0.00  0.00    +0.000 A 
ATOM      7  C   UNL     1      46.694   6.253  12.066  0.00  0.00    +0.000 A 
BRANCH   6   8
ATOM      8  C   UNL     1      45.171   4.978  10.520  0.00  0.00    +0.000 A 
ATOM      9  C   UNL     1      44.316   3.979  10.995  0.00  0.00    +0.000 A 
ATOM     10  N   UNL     1      43.938   2.875  10.297  0.00  0.00    +0.000 NA
ATOM     11  C   UNL     1      44.450   2.743   9.053  0.00  0.00    +0.000 A 
ATOM     12  C   UNL     1      45.317   3.658   8.486  0.00  0.00    +0.000 A 
ATOM     13 CL   UNL     1      45.937   3.427   6.900  0.00  0.00    +0.000 Cl
ATOM     14  C   UNL     1      45.683   4.780   9.227  0.00  0.00    +0.000 A 
ENDBRANCH   6   8
ENDBRANCH   1   2
BRANCH   1  15
ATOM     15  O   UNL     1      48.694   6.247  14.025  0.00  0.00    +0.000 OA
BRANCH  15  20
ATOM     16  C   UNL     1      48.057   4.884  17.238  0.00  0.00    +0.000 A 
ATOM     17  N   UNL     1      48.320   5.893  18.099  0.00  0.00    +0.000 NA
ATOM     18  C   UNL     1      48.724   7.044  17.529  0.00  0.00    +0.000 A 
ATOM     19  C   UNL     1      48.866   7.213  16.168  0.00  0.00    +0.000 A 
ATOM     20  C   UNL     1      48.569   6.114  15.396  0.00  0.00    +0.000 A 
ATOM     21  N   UNL     1      48.167   4.941  15.900  0.00  0.00    +0.000 NA
BRANCH  16  23
ATOM     22  N   UNL     1      48.278   3.104  18.904  0.00  0.00    +0.000 N 
ATOM     23  C   UNL     1      47.573   3.577  17.824  0.00  0.00    +0.000 C 
ATOM     24  O   UNL     1      46.610   2.956  17.387  0.00  0.00    +0.000 OA
ATOM     25  H   UNL     1      47.971   2.249  19.345  0.00  0.00    +0.000 HD
ATOM     26  H   UNL     1      49.062   3.625  19.278  0.00  0.00    +0.000 HD
ENDBRANCH  16  23
ENDBRANCH  15  20
ENDBRANCH   1  15
TORSDOF 5
ENDMDL
MODEL 6
REMARK VINA RESULT:    -7.446      3.220      7.853
REMARK INTER + INTRA:         -10.279
REMARK INTER:                  -9.500
REMARK INTRA:                  -0.779
REMARK UNBOUND:                -0.657
REMARK  Name = 
REMARK  5 active torsions:
REMARK  status: ('A' for Active; 'I' for Inactive)
REMARK    1  A    between atoms: C_2  and  C_4
REMARK    2  A    between atoms: C_8  and  O_9
REMARK    3  A    between atoms: O_9  and  C_10
REMARK    4  A    between atoms: C_10  and  C_11
REMARK    5  A    between atoms: C_15  and  C_16
REMARK                            x       y       z     vdW  Elec       q    Type
REMARK                         _______ _______ _______ _____ _____    ______ ____
ROOT
ATOM      1  C   UNL     1      44.527   4.980  11.006  0.00  0.00    +0.000 C 
ENDROOT
BRANCH   1   2
ATOM      2  C   UNL     1      45.734   5.589  11.675  0.00  0.00    +0.000 A 
ATOM      3  C   UNL     1      46.490   6.572  11.040  0.00  0.00    +0.000 A 
ATOM      4  C   UNL     1      47.550   7.133  11.732  0.00  0.00    +0.000 A 
ATOM      5  N   UNL     1      47.911   6.773  12.985  0.00  0.00    +0.000 NA
ATOM      6  C   UNL     1      47.197   5.794  13.593  0.00  0.00    +0.000 A 
ATOM      7  C   UNL     1      46.105   5.193  12.965  0.00  0.00    +0.000 A 
BRANCH   6   8
ATOM      8  C   UNL     1      47.639   5.422  14.947  0.00  0.00    +0.000 A 
ATOM      9  C   UNL     1      48.534   6.216  15.671  0.00  0.00    +0.000 A 
ATOM     10  N   UNL     1      48.969   5.953  16.933  0.00  0.00    +0.000 NA
ATOM     11  C   UNL     1      48.499   4.824  17.510  0.00  0.00    +0.000 A 
ATOM     12  C   UNL     1      47.624   3.956  16.884  0.00  0.00    +0.000 A 
ATOM     13 CL   UNL     1      47.069   2.535  17.673  0.00  0.00    +0.000 Cl
ATOM     14  C   UNL     1      47.195   4.257  15.593  0.00  0.00    +0.000 A 
ENDBRANCH   6   8
ENDBRANCH   1   2
BRANCH   1  15
ATOM     15  O   UNL     1      44.697   5.002   9.585  0.00  0.00    +0.000 OA
BRANCH  15  20
ATOM     16  C   UNL     1      46.402   2.514   7.717  0.00  0.00    +0.000 A 
ATOM     17  N   UNL     1      45.894   1.341   8.161  0.00  0.00    +0.000 NA
ATOM     18  C   UNL     1      44.956   1.448   9.121  0.00  0.00    +0.000 A 
ATOM     19  C   UNL     1      44.521   2.652   9.633  0.00  0.00    +0.000 A 
ATOM     20  C   UNL     1      45.112   3.775   9.101  0.00  0.00    +0.000 A 
ATOM     21  N   UNL     1      46.052   3.737   8.149  0.00  0.00    +0.000 NA
BRANCH  16  23
ATOM     22  N   UNL     1      47.292   3.360   5.599  0.00  0.00    +0.000 N 
ATOM     23  C   UNL     1      47.439   2.453   6.619  0.00  0.00    +0.000 C 
ATOM     24  O   UNL     1      48.372   1.657   6.616  0.00  0.00    +0.000 OA
ATOM     25  H   UNL     1      47.980   3.374   4.860  0.00  0.00    +0.000 HD
ATOM     26  H   UNL     1      46.533   4.032   5.611  0.00  0.00    +0.000 HD
ENDBRANCH  16  23
ENDBRANCH  15  20
ENDBRANCH   1  15
TORSDOF 5
ENDMDL
MODEL 7
REMARK VINA RESULT:    -7.188      2.742      3.536
REMARK INTER + INTRA:          -9.946
REMARK INTER:                  -9.181
REMARK INTRA:                  -0.764
REMARK UNBOUND:                -0.657
REMARK  Name = 
REMARK  5 active torsions:
REMARK  status: ('A' for Active; 'I' for Inactive)
REMARK    1  A    between atoms: C_2  and  C_4
REMARK    2  A    between atoms: C_8  and  O_9
REMARK    3  A    between atoms: O_9  and  C_10
REMARK    4  A    between atoms: C_10  and  C_11
REMARK    5  A    between atoms: C_15  and  C_16
REMARK                            x       y       z     vdW  Elec       q    Type
REMARK                         _______ _______ _______ _____ _____    ______ ____
ROOT
ATOM      1  C   UNL     1      44.712   6.831  12.519  0.00  0.00    +0.000 C 
ENDROOT
BRANCH   1   2
ATOM      2  C   UNL     1      44.377   5.508  11.876  0.00  0.00    +0.000 A 
ATOM      3  C   UNL     1      43.342   4.713  12.363  0.00  0.00    +0.000 A 
ATOM      4  C   UNL     1      43.046   3.539  11.692  0.00  0.00    +0.000 A 
ATOM      5  N   UNL     1      43.713   3.104  10.599  0.00  0.00    +0.000 NA
ATOM      6  C   UNL     1      44.740   3.860  10.141  0.00  0.00    +0.000 A 
ATOM      7  C   UNL     1      45.088   5.064  10.756  0.00  0.00    +0.000 A 
BRANCH   6   8
ATOM      8  C   UNL     1      45.449   3.338   8.960  0.00  0.00    +0.000 A 
ATOM      9  C   UNL     1      45.868   4.178   7.924  0.00  0.00    +0.000 A 
ATOM     10  N   UNL     1      46.546   3.776   6.816  0.00  0.00    +0.000 NA
ATOM     11  C   UNL     1      46.815   2.454   6.720  0.00  0.00    +0.000 A 
ATOM     12  C   UNL     1      46.435   1.528   7.674  0.00  0.00    +0.000 A 
ATOM     13 CL   UNL     1      46.803  -0.139   7.487  0.00  0.00    +0.000 Cl
ATOM     14  C   UNL     1      45.743   1.974   8.799  0.00  0.00    +0.000 A 
ENDBRANCH   6   8
ENDBRANCH   1   2
BRANCH   1  15
ATOM     15  O   UNL     1      45.961   6.732  13.211  0.00  0.00    +0.000 OA
BRANCH  15  20
ATOM     16  C   UNL     1      48.963   8.268  12.109  0.00  0.00    +0.000 A 
ATOM     17  N   UNL     1      48.631   9.563  11.899  0.00  0.00    +0.000 NA
ATOM     18  C   UNL     1      47.344   9.873  12.146  0.00  0.00    +0.000 A 
ATOM     19  C   UNL     1      46.410   8.960  12.587  0.00  0.00    +0.000 A 
ATOM     20  C   UNL     1      46.868   7.675  12.763  0.00  0.00    +0.000 A 
ATOM     21  N   UNL     1      48.133   7.301  12.531  0.00  0.00    +0.000 NA
BRANCH  16  23
ATOM     22  N   UNL     1      51.266   8.081  12.919  0.00  0.00    +0.000 N 
ATOM     23  C   UNL     1      50.402   7.871  11.872  0.00  0.00    +0.000 C 
ATOM     24  O   UNL     1      50.803   7.382  10.821  0.00  0.00    +0.000 OA
ATOM     25  H   UNL     1      52.231   7.802  12.814  0.00  0.00    +0.000 HD
ATOM     26  H   UNL     1      50.932   8.466  13.795  0.00  0.00    +0.000 HD
ENDBRANCH  16  23
ENDBRANCH  15  20
ENDBRANCH   1  15
TORSDOF 5
ENDMDL
MODEL 8
REMARK VINA RESULT:    -7.115      2.693      4.178
REMARK INTER + INTRA:          -9.851
REMARK INTER:                  -9.062
REMARK INTRA:                  -0.788
REMARK UNBOUND:                -0.657
REMARK  Name = 
REMARK  5 active torsions:
REMARK  status: ('A' for Active; 'I' for Inactive)
REMARK    1  A    between atoms: C_2  and  C_4
REMARK    2  A    between atoms: C_8  and  O_9
REMARK    3  A    between atoms: O_9  and  C_10
REMARK    4  A    between atoms: C_10  and  C_11
REMARK    5  A    between atoms: C_15  and  C_16
REMARK                            x       y       z     vdW  Elec       q    Type
REMARK                         _______ _______ _______ _____ _____    ______ ____
ROOT
ATOM      1  C   UNL     1      49.271   6.724  14.947  0.00  0.00    +0.000 C 
ENDROOT
BRANCH   1   2
ATOM      2  C   UNL     1      48.020   7.034  14.163  0.00  0.00    +0.000 A 
ATOM      3  C   UNL     1      47.577   8.345  14.003  0.00  0.00    +0.000 A 
ATOM      4  C   UNL     1      46.456   8.568  13.223  0.00  0.00    +0.000 A 
ATOM      5  N   UNL     1      45.749   7.586  12.617  0.00  0.00    +0.000 NA
ATOM      6  C   UNL     1      46.159   6.307  12.796  0.00  0.00    +0.000 A 
ATOM      7  C   UNL     1      47.290   6.005  13.557  0.00  0.00    +0.000 A 
BRANCH   6   8
ATOM      8  C   UNL     1      45.348   5.272  12.133  0.00  0.00    +0.000 A 
ATOM      9  C   UNL     1      44.584   4.358  12.866  0.00  0.00    +0.000 A 
ATOM     10  N   UNL     1      43.793   3.391  12.327  0.00  0.00    +0.000 NA
ATOM     11  C   UNL     1      43.768   3.315  10.978  0.00  0.00    +0.000 A 
ATOM     12  C   UNL     1      44.494   4.154  10.153  0.00  0.00    +0.000 A 
ATOM     13 CL   UNL     1      44.420   3.999   8.444  0.00  0.00    +0.000 Cl
ATOM     14  C   UNL     1      45.293   5.136  10.737  0.00  0.00    +0.000 A 
ENDBRANCH   6   8
ENDBRANCH   1   2
BRANCH   1  15
ATOM     15  O   UNL     1      49.067   7.033  16.330  0.00  0.00    +0.000 OA
BRANCH  15  20
ATOM     16  C   UNL     1      49.273   3.675  17.456  0.00  0.00    +0.000 A 
ATOM     17  N   UNL     1      48.555   3.651  18.603  0.00  0.00    +0.000 NA
ATOM     18  C   UNL     1      48.010   4.829  18.964  0.00  0.00    +0.000 A 
ATOM     19  C   UNL     1      48.153   5.991  18.236  0.00  0.00    +0.000 A 
ATOM     20  C   UNL     1      48.906   5.889  17.090  0.00  0.00    +0.000 A 
ATOM     21  N   UNL     1      49.478   4.750  16.678  0.00  0.00    +0.000 NA
BRANCH  16  23
ATOM     22  N   UNL     1      50.902   1.874  17.768  0.00  0.00    +0.000 N 
ATOM     23  C   UNL     1      49.885   2.373  16.991  0.00  0.00    +0.000 C 
ATOM     24  O   UNL     1      49.513   1.772  15.989  0.00  0.00    +0.000 OA
ATOM     25  H   UNL     1      51.319   0.991  17.510  0.00  0.00    +0.000 HD
ATOM     26  H   UNL     1      51.197   2.359  18.607  0.00  0.00    +0.000 HD
ENDBRANCH  16  23
ENDBRANCH  15  20
ENDBRANCH   1  15
TORSDOF 5
ENDMDL
MODEL 9
REMARK VINA RESULT:    -7.081      3.402      7.732
REMARK INTER + INTRA:          -9.807
REMARK INTER:                  -9.163
REMARK INTRA:                  -0.645
REMARK UNBOUND:                -0.657
REMARK  Name = 
REMARK  5 active torsions:
REMARK  status: ('A' for Active; 'I' for Inactive)
REMARK    1  A    between atoms: C_2  and  C_4
REMARK    2  A    between atoms: C_8  and  O_9
REMARK    3  A    between atoms: O_9  and  C_10
REMARK    4  A    between atoms: C_10  and  C_11
REMARK    5  A    between atoms: C_15  and  C_16
REMARK                            x       y       z     vdW  Elec       q    Type
REMARK                         _______ _______ _______ _____ _____    ______ ____
ROOT
ATOM      1  C   UNL     1      46.136   6.675  11.405  0.00  0.00    +0.000 C 
ENDROOT
BRANCH   1   2
ATOM      2  C   UNL     1      47.230   6.640  12.443  0.00  0.00    +0.000 A 
ATOM      3  C   UNL     1      48.412   7.356  12.268  0.00  0.00    +0.000 A 
ATOM      4  C   UNL     1      49.351   7.330  13.284  0.00  0.00    +0.000 A 
ATOM      5  N   UNL     1      49.201   6.635  14.435  0.00  0.00    +0.000 NA
ATOM      6  C   UNL     1      48.066   5.913  14.595  0.00  0.00    +0.000 A 
ATOM      7  C   UNL     1      47.066   5.903  13.621  0.00  0.00    +0.000 A 
BRANCH   6   8
ATOM      8  C   UNL     1      47.954   5.158  15.855  0.00  0.00    +0.000 A 
ATOM      9  C   UNL     1      47.034   4.117  16.008  0.00  0.00    +0.000 A 
ATOM     10  N   UNL     1      46.888   3.360  17.129  0.00  0.00    +0.000 NA
ATOM     11  C   UNL     1      47.696   3.662  18.170  0.00  0.00    +0.000 A 
ATOM     12  C   UNL     1      48.631   4.680  18.138  0.00  0.00    +0.000 A 
ATOM     13 CL   UNL     1      49.622   5.016  19.500  0.00  0.00    +0.000 Cl
ATOM     14  C   UNL     1      48.756   5.435  16.974  0.00  0.00    +0.000 A 
ENDBRANCH   6   8
ENDBRANCH   1   2
BRANCH   1  15
ATOM     15  O   UNL     1      44.878   6.366  12.013  0.00  0.00    +0.000 OA
BRANCH  15  20
ATOM     16  C   UNL     1      44.366   3.329  10.253  0.00  0.00    +0.000 A 
ATOM     17  N   UNL     1      43.580   2.587  11.067  0.00  0.00    +0.000 NA
ATOM     18  C   UNL     1      43.246   3.173  12.233  0.00  0.00    +0.000 A 
ATOM     19  C   UNL     1      43.656   4.437  12.597  0.00  0.00    +0.000 A 
ATOM     20  C   UNL     1      44.452   5.092  11.686  0.00  0.00    +0.000 A 
ATOM     21  N   UNL     1      44.824   4.565  10.512  0.00  0.00    +0.000 NA
BRANCH  16  23
ATOM     22  N   UNL     1      44.457   3.487   7.811  0.00  0.00    +0.000 N 
ATOM     23  C   UNL     1      44.750   2.729   8.919  0.00  0.00    +0.000 C 
ATOM     24  O   UNL     1      45.297   1.638   8.802  0.00  0.00    +0.000 OA
ATOM     25  H   UNL     1      44.723   3.138   6.902  0.00  0.00    +0.000 HD
ATOM     26  H   UNL     1      44.023   4.397   7.908  0.00  0.00    +0.000 HD
ENDBRANCH  16  23
ENDBRANCH  15  20
ENDBRANCH   1  15
TORSDOF 5
ENDMDL
