MODEL 1
REMARK VINA RESULT:    -8.237      0.000      0.000
REMARK INTER + INTRA:         -12.157
REMARK INTER:                 -11.126
REMARK INTRA:                  -1.031
REMARK UNBOUND:                -1.031
REMARK  Name = 
REMARK  9 active torsions:
REMARK  status: ('A' for Active; 'I' for Inactive)
REMARK    1  A    between atoms: C_1  and  C_2
REMARK    2  A    between atoms: C_2  and  C_3
REMARK    3  A    between atoms: C_2  and  C_14
REMARK    4  A    between atoms: C_3  and  N_4
REMARK    5  A    between atoms: C_8  and  C_9
REMARK    6  A    between atoms: C_17  and  O_18
REMARK    7  A    between atoms: O_18  and  C_19
REMARK    8  A    between atoms: C_21  and  C_22
REMARK    9  A    between atoms: C_21  and  C_23
REMARK                            x       y       z     vdW  Elec       q    Type
REMARK                         _______ _______ _______ _____ _____    ______ ____
ROOT
ATOM      1  C   UNL     1      43.057   4.764  12.931  0.00  0.00    +0.000 C 
ATOM      2  C   UNL     1      43.745   5.672  11.901  0.00  0.00    +0.000 C 
ENDROOT
BRANCH   2   3
ATOM      3  C   UNL     1      45.237   5.838  12.212  0.00  0.00    +0.000 A 
ATOM      4  C   UNL     1      46.102   6.638  11.452  0.00  0.00    +0.000 A 
ATOM      5  C   UNL     1      47.436   6.832  11.826  0.00  0.00    +0.000 A 
ATOM      6  C   UNL     1      47.945   6.223  12.969  0.00  0.00    +0.000 A 
ATOM      7  C   UNL     1      47.107   5.402  13.717  0.00  0.00    +0.000 A 
ATOM      8  F   UNL     1      47.548   4.767  14.811  0.00  0.00    +0.000 F 
ATOM      9  C   UNL     1      45.773   5.216  13.354  0.00  0.00    +0.000 A 
BRANCH   6  10
ATOM     10  O   UNL     1      49.264   6.495  13.230  0.00  0.00    +0.000 OA
BRANCH  10  11
ATOM     11  C   UNL     1      49.592   7.601  14.097  0.00  0.00    +0.000 C 
ATOM     12  C   UNL     1      50.309   7.270  15.428  0.00  0.00    +0.000 C 
ATOM     13  C   UNL     1      49.280   8.144  16.191  0.00  0.00    +0.000 C 
ATOM     14  C   UNL     1      49.774   9.545  16.544  0.00  0.00    +0.000 C 
ATOM     15  C   UNL     1      48.663   7.446  17.399  0.00  0.00    +0.000 C 
ATOM     16  C   UNL     1      48.394   8.122  14.922  0.00  0.00    +0.000 C 
ENDBRANCH  10  11
ENDBRANCH   6  10
ENDBRANCH   2   3
BRANCH   2  17
ATOM     17  C   UNL     1      43.418   5.146  10.477  0.00  0.00    +0.000 C 
BRANCH  17  18
ATOM     18  N   UNL     1      43.784   3.731  10.334  0.00  0.00    +0.000 N 
ATOM     19  C   UNL     1      44.767   3.432   9.386  0.00  0.00    +0.000 A 
ATOM     20  C   UNL     1      45.231   2.112   9.265  0.00  0.00    +0.000 A 
ATOM     21  N   UNL     1      46.123   1.697   8.328  0.00  0.00    +0.000 NA
ATOM     22  C   UNL     1      46.560   2.688   7.507  0.00  0.00    +0.000 A 
ATOM     23  C   UNL     1      46.153   4.002   7.638  0.00  0.00    +0.000 A 
ATOM     24  N   UNL     1      45.258   4.397   8.582  0.00  0.00    +0.000 NA
ATOM     25  H   UNL     1      42.973   3.138  10.176  0.00  0.00    +0.000 HD
BRANCH  22  26
ATOM     26  C   UNL     1      47.483   2.315   6.397  0.00  0.00    +0.000 C 
ATOM     27  N   UNL     1      47.392   3.078   5.265  0.00  0.00    +0.000 N 
ATOM     28  O   UNL     1      48.287   1.398   6.498  0.00  0.00    +0.000 OA
ATOM     29  H   UNL     1      46.733   3.847   5.222  0.00  0.00    +0.000 HD
ATOM     30  H   UNL     1      48.019   2.896   4.496  0.00  0.00    +0.000 HD
ENDBRANCH  22  26
ENDBRANCH  17  18
ENDBRANCH   2  17
TORSDOF 6
ENDMDL
MODEL 2
REMARK VINA RESULT:    -8.056      1.883      2.729
REMARK INTER + INTRA:         -11.913
REMARK INTER:                 -10.920
REMARK INTRA:                  -0.993
REMARK UNBOUND:                -1.031
REMARK  Name = 
REMARK  9 active torsions:
REMARK  status: ('A' for Active; 'I' for Inactive)
REMARK    1  A    between atoms: C_1  and  C_2
REMARK    2  A    between atoms: C_2  and  C_3
REMARK    3  A    between atoms: C_2  and  C_14
REMARK    4  A    between atoms: C_3  and  N_4
REMARK    5  A    between atoms: C_8  and  C_9
REMARK    6  A    between atoms: C_17  and  O_18
REMARK    7  A    between atoms: O_18  and  C_19
REMARK    8  A    between atoms: C_21  and  C_22
REMARK    9  A    between atoms: C_21  and  C_23
REMARK                            x       y       z     vdW  Elec       q    Type
REMARK                         _______ _______ _______ _____ _____    ______ ____
ROOT
ATOM      1  C   UNL     1      43.117   4.328  12.975  0.00  0.00    +0.000 C 
ATOM      2  C   UNL     1      43.528   5.553  12.145  0.00  0.00    +0.000 C 
ENDROOT
BRANCH   2   3
ATOM      3  C   UNL     1      44.862   6.133  12.630  0.00  0.00    +0.000 A 
ATOM      4  C   UNL     1      45.906   5.348  13.142  0.00  0.00    +0.000 A 
ATOM      5  C   UNL     1      47.139   5.909  13.489  0.00  0.00    +0.000 A 
ATOM      6  C   UNL     1      47.360   7.275  13.342  0.00  0.00    +0.000 A 
ATOM      7  C   UNL     1      46.324   8.072  12.865  0.00  0.00    +0.000 A 
ATOM      8  F   UNL     1      46.468   9.396  12.728  0.00  0.00    +0.000 F 
ATOM      9  C   UNL     1      45.097   7.513  12.506  0.00  0.00    +0.000 A 
BRANCH   6  10
ATOM     10  O   UNL     1      48.610   7.702  13.713  0.00  0.00    +0.000 OA
BRANCH  10  11
ATOM     11  C   UNL     1      49.724   7.456  12.829  0.00  0.00    +0.000 C 
ATOM     12  C   UNL     1      50.925   8.428  12.914  0.00  0.00    +0.000 C 
ATOM     13  C   UNL     1      50.895   8.588  11.372  0.00  0.00    +0.000 C 
ATOM     14  C   UNL     1      51.928   7.748  10.625  0.00  0.00    +0.000 C 
ATOM     15  C   UNL     1      50.913  10.042  10.907  0.00  0.00    +0.000 C 
ATOM     16  C   UNL     1      49.488   7.941  11.381  0.00  0.00    +0.000 C 
ENDBRANCH  10  11
ENDBRANCH   6  10
ENDBRANCH   2   3
BRANCH   2  17
ATOM     17  C   UNL     1      43.476   5.175  10.640  0.00  0.00    +0.000 C 
BRANCH  17  18
ATOM     18  N   UNL     1      43.780   3.753  10.436  0.00  0.00    +0.000 N 
ATOM     19  C   UNL     1      44.745   3.451   9.471  0.00  0.00    +0.000 A 
ATOM     20  C   UNL     1      45.151   2.119   9.292  0.00  0.00    +0.000 A 
ATOM     21  N   UNL     1      46.019   1.706   8.332  0.00  0.00    +0.000 NA
ATOM     22  C   UNL     1      46.495   2.710   7.550  0.00  0.00    +0.000 A 
ATOM     23  C   UNL     1      46.144   4.034   7.737  0.00  0.00    +0.000 A 
ATOM     24  N   UNL     1      45.272   4.427   8.704  0.00  0.00    +0.000 NA
ATOM     25  H   UNL     1      42.944   3.202  10.260  0.00  0.00    +0.000 HD
BRANCH  22  26
ATOM     26  C   UNL     1      47.395   2.345   6.420  0.00  0.00    +0.000 C 
ATOM     27  N   UNL     1      47.354   3.175   5.333  0.00  0.00    +0.000 N 
ATOM     28  O   UNL     1      48.140   1.375   6.467  0.00  0.00    +0.000 OA
ATOM     29  H   UNL     1      46.745   3.985   5.335  0.00  0.00    +0.000 HD
ATOM     30  H   UNL     1      47.971   2.999   4.554  0.00  0.00    +0.000 HD
ENDBRANCH  22  26
ENDBRANCH  17  18
ENDBRANCH   2  17
TORSDOF 6
ENDMDL
MODEL 3
REMARK VINA RESULT:    -6.894      1.765      2.182
REMARK INTER + INTRA:         -10.343
REMARK INTER:                  -9.595
REMARK INTRA:                  -0.748
REMARK UNBOUND:                -1.031
REMARK  Name = 
REMARK  9 active torsions:
REMARK  status: ('A' for Active; 'I' for Inactive)
REMARK    1  A    between atoms: C_1  and  C_2
REMARK    2  A    between atoms: C_2  and  C_3
REMARK    3  A    between atoms: C_2  and  C_14
REMARK    4  A    between atoms: C_3  and  N_4
REMARK    5  A    between atoms: C_8  and  C_9
REMARK    6  A    between atoms: C_17  and  O_18
REMARK    7  A    between atoms: O_18  and  C_19
REMARK    8  A    between atoms: C_21  and  C_22
REMARK    9  A    between atoms: C_21  and  C_23
REMARK                            x       y       z     vdW  Elec       q    Type
REMARK                         _______ _______ _______ _____ _____    ______ ____
ROOT
ATOM      1  C   UNL     1      45.296   4.299  12.652  0.00  0.00    +0.000 C 
ATOM      2  C   UNL     1      44.591   5.554  12.115  0.00  0.00    +0.000 C 
ENDROOT
BRANCH   2   3
ATOM      3  C   UNL     1      45.538   6.759  12.092  0.00  0.00    +0.000 A 
ATOM      4  C   UNL     1      45.160   8.048  12.494  0.00  0.00    +0.000 A 
ATOM      5  C   UNL     1      46.082   9.099  12.542  0.00  0.00    +0.000 A 
ATOM      6  C   UNL     1      47.410   8.890  12.182  0.00  0.00    +0.000 A 
ATOM      7  C   UNL     1      47.794   7.624  11.751  0.00  0.00    +0.000 A 
ATOM      8  F   UNL     1      49.051   7.370  11.366  0.00  0.00    +0.000 F 
ATOM      9  C   UNL     1      46.879   6.571  11.714  0.00  0.00    +0.000 A 
BRANCH   6  10
ATOM     10  O   UNL     1      48.215   9.997  12.276  0.00  0.00    +0.000 OA
BRANCH  10  11
ATOM     11  C   UNL     1      48.821  10.315  13.547  0.00  0.00    +0.000 C 
ATOM     12  C   UNL     1      50.337  10.627  13.553  0.00  0.00    +0.000 C 
ATOM     13  C   UNL     1      50.529   9.631  14.725  0.00  0.00    +0.000 C 
ATOM     14  C   UNL     1      50.629  10.282  16.103  0.00  0.00    +0.000 C 
ATOM     15  C   UNL     1      51.657   8.628  14.497  0.00  0.00    +0.000 C 
ATOM     16  C   UNL     1      49.115   9.077  14.423  0.00  0.00    +0.000 C 
ENDBRANCH  10  11
ENDBRANCH   6  10
ENDBRANCH   2   3
BRANCH   2  17
ATOM     17  C   UNL     1      43.924   5.207  10.757  0.00  0.00    +0.000 C 
BRANCH  17  18
ATOM     18  N   UNL     1      44.084   3.783  10.432  0.00  0.00    +0.000 N 
ATOM     19  C   UNL     1      44.992   3.471   9.417  0.00  0.00    +0.000 A 
ATOM     20  C   UNL     1      45.263   2.125   9.121  0.00  0.00    +0.000 A 
ATOM     21  N   UNL     1      46.065   1.711   8.106  0.00  0.00    +0.000 NA
ATOM     22  C   UNL     1      46.617   2.725   7.391  0.00  0.00    +0.000 A 
ATOM     23  C   UNL     1      46.402   4.057   7.693  0.00  0.00    +0.000 A 
ATOM     24  N   UNL     1      45.594   4.452   8.713  0.00  0.00    +0.000 NA
ATOM     25  H   UNL     1      43.194   3.331  10.239  0.00  0.00    +0.000 HD
BRANCH  22  26
ATOM     26  C   UNL     1      47.452   2.370   6.209  0.00  0.00    +0.000 C 
ATOM     27  N   UNL     1      47.229   3.107   5.078  0.00  0.00    +0.000 N 
ATOM     28  O   UNL     1      48.299   1.487   6.250  0.00  0.00    +0.000 OA
ATOM     29  H   UNL     1      46.538   3.849   5.083  0.00  0.00    +0.000 HD
ATOM     30  H   UNL     1      47.792   2.936   4.258  0.00  0.00    +0.000 HD
ENDBRANCH  22  26
ENDBRANCH  17  18
ENDBRANCH   2  17
TORSDOF 6
ENDMDL
MODEL 4
REMARK VINA RESULT:    -6.711      4.429      9.056
REMARK INTER + INTRA:         -10.096
REMARK INTER:                  -9.426
REMARK INTRA:                  -0.670
REMARK UNBOUND:                -1.031
REMARK  Name = 
REMARK  9 active torsions:
REMARK  status: ('A' for Active; 'I' for Inactive)
REMARK    1  A    between atoms: C_1  and  C_2
REMARK    2  A    between atoms: C_2  and  C_3
REMARK    3  A    between atoms: C_2  and  C_14
REMARK    4  A    between atoms: C_3  and  N_4
REMARK    5  A    between atoms: C_8  and  C_9
REMARK    6  A    between atoms: C_17  and  O_18
REMARK    7  A    between atoms: O_18  and  C_19
REMARK    8  A    between atoms: C_21  and  C_22
REMARK    9  A    between atoms: C_21  and  C_23
REMARK                            x       y       z     vdW  Elec       q    Type
REMARK                         _______ _______ _______ _____ _____    ______ ____
ROOT
ATOM      1  C   UNL     1      47.216   6.833  13.531  0.00  0.00    +0.000 C 
ATOM      2  C   UNL     1      46.314   5.590  13.570  0.00  0.00    +0.000 C 
ENDROOT
BRANCH   2   3
ATOM      3  C   UNL     1      45.806   5.227  12.170  0.00  0.00    +0.000 A 
ATOM      4  C   UNL     1      46.103   5.974  11.021  0.00  0.00    +0.000 A 
ATOM      5  C   UNL     1      45.692   5.557   9.751  0.00  0.00    +0.000 A 
ATOM      6  C   UNL     1      44.963   4.381   9.595  0.00  0.00    +0.000 A 
ATOM      7  C   UNL     1      44.634   3.644  10.729  0.00  0.00    +0.000 A 
ATOM      8  F   UNL     1      43.912   2.520  10.645  0.00  0.00    +0.000 F 
ATOM      9  C   UNL     1      45.053   4.052  11.996  0.00  0.00    +0.000 A 
BRANCH   6  10
ATOM     10  O   UNL     1      44.624   4.078   8.301  0.00  0.00    +0.000 OA
BRANCH  10  11
ATOM     11  C   UNL     1      45.670   3.751   7.362  0.00  0.00    +0.000 C 
ATOM     12  C   UNL     1      45.473   2.485   6.494  0.00  0.00    +0.000 C 
ATOM     13  C   UNL     1      46.900   2.012   6.874  0.00  0.00    +0.000 C 
ATOM     14  C   UNL     1      47.965   2.287   5.815  0.00  0.00    +0.000 C 
ATOM     15  C   UNL     1      46.955   0.566   7.362  0.00  0.00    +0.000 C 
ATOM     16  C   UNL     1      46.895   3.066   8.009  0.00  0.00    +0.000 C 
ENDBRANCH  10  11
ENDBRANCH   6  10
ENDBRANCH   2   3
BRANCH   2  17
ATOM     17  C   UNL     1      47.063   4.455  14.320  0.00  0.00    +0.000 C 
BRANCH  17  18
ATOM     18  N   UNL     1      46.645   4.380  15.727  0.00  0.00    +0.000 N 
ATOM     19  C   UNL     1      47.632   4.624  16.686  0.00  0.00    +0.000 A 
ATOM     20  C   UNL     1      47.281   4.660  18.045  0.00  0.00    +0.000 A 
ATOM     21  N   UNL     1      48.169   4.810  19.062  0.00  0.00    +0.000 NA
ATOM     22  C   UNL     1      49.457   4.945  18.653  0.00  0.00    +0.000 A 
ATOM     23  C   UNL     1      49.821   4.959  17.319  0.00  0.00    +0.000 A 
ATOM     24  N   UNL     1      48.916   4.807  16.315  0.00  0.00    +0.000 NA
ATOM     25  H   UNL     1      46.176   3.505  15.941  0.00  0.00    +0.000 HD
BRANCH  22  26
ATOM     26  C   UNL     1      50.514   5.038  19.699  0.00  0.00    +0.000 C 
ATOM     27  N   UNL     1      50.187   4.523  20.924  0.00  0.00    +0.000 N 
ATOM     28  O   UNL     1      51.614   5.525  19.474  0.00  0.00    +0.000 OA
ATOM     29  H   UNL     1      49.276   4.102  21.071  0.00  0.00    +0.000 HD
ATOM     30  H   UNL     1      50.877   4.522  21.660  0.00  0.00    +0.000 HD
ENDBRANCH  22  26
ENDBRANCH  17  18
ENDBRANCH   2  17
TORSDOF 6
ENDMDL
MODEL 5
REMARK VINA RESULT:    -6.558      4.215      8.717
REMARK INTER + INTRA:          -9.890
REMARK INTER:                  -9.134
REMARK INTRA:                  -0.755
REMARK UNBOUND:                -1.031
REMARK  Name = 
REMARK  9 active torsions:
REMARK  status: ('A' for Active; 'I' for Inactive)
REMARK    1  A    between atoms: C_1  and  C_2
REMARK    2  A    between atoms: C_2  and  C_3
REMARK    3  A    between atoms: C_2  and  C_14
REMARK    4  A    between atoms: C_3  and  N_4
REMARK    5  A    between atoms: C_8  and  C_9
REMARK    6  A    between atoms: C_17  and  O_18
REMARK    7  A    between atoms: O_18  and  C_19
REMARK    8  A    between atoms: C_21  and  C_22
REMARK    9  A    between atoms: C_21  and  C_23
REMARK                            x       y       z     vdW  Elec       q    Type
REMARK                         _______ _______ _______ _____ _____    ______ ____
ROOT
ATOM      1  C   UNL     1      46.554   8.391  12.923  0.00  0.00    +0.000 C 
ATOM      2  C   UNL     1      46.686   6.920  13.345  0.00  0.00    +0.000 C 
ENDROOT
BRANCH   2   3
ATOM      3  C   UNL     1      45.848   6.005  12.445  0.00  0.00    +0.000 A 
ATOM      4  C   UNL     1      45.528   6.311  11.114  0.00  0.00    +0.000 A 
ATOM      5  C   UNL     1      44.837   5.406  10.302  0.00  0.00    +0.000 A 
ATOM      6  C   UNL     1      44.439   4.169  10.802  0.00  0.00    +0.000 A 
ATOM      7  C   UNL     1      44.722   3.864  12.129  0.00  0.00    +0.000 A 
ATOM      8  F   UNL     1      44.340   2.701  12.674  0.00  0.00    +0.000 F 
ATOM      9  C   UNL     1      45.422   4.759  12.939  0.00  0.00    +0.000 A 
BRANCH   6  10
ATOM     10  O   UNL     1      43.773   3.371   9.907  0.00  0.00    +0.000 OA
BRANCH  10  11
ATOM     11  C   UNL     1      44.538   2.572   8.979  0.00  0.00    +0.000 C 
ATOM     12  C   UNL     1      46.080   2.625   9.102  0.00  0.00    +0.000 C 
ATOM     13  C   UNL     1      46.185   2.881   7.576  0.00  0.00    +0.000 C 
ATOM     14  C   UNL     1      46.528   1.646   6.746  0.00  0.00    +0.000 C 
ATOM     15  C   UNL     1      47.079   4.064   7.215  0.00  0.00    +0.000 C 
ATOM     16  C   UNL     1      44.671   3.204   7.575  0.00  0.00    +0.000 C 
ENDBRANCH  10  11
ENDBRANCH   6  10
ENDBRANCH   2   3
BRANCH   2  17
ATOM     17  C   UNL     1      48.194   6.562  13.438  0.00  0.00    +0.000 C 
BRANCH  17  18
ATOM     18  N   UNL     1      48.824   7.205  14.599  0.00  0.00    +0.000 N 
ATOM     19  C   UNL     1      48.910   6.442  15.767  0.00  0.00    +0.000 A 
ATOM     20  C   UNL     1      49.585   6.960  16.883  0.00  0.00    +0.000 A 
ATOM     21  N   UNL     1      49.660   6.340  18.089  0.00  0.00    +0.000 NA
ATOM     22  C   UNL     1      49.032   5.135  18.129  0.00  0.00    +0.000 A 
ATOM     23  C   UNL     1      48.402   4.584  17.029  0.00  0.00    +0.000 A 
ATOM     24  N   UNL     1      48.338   5.222  15.830  0.00  0.00    +0.000 NA
ATOM     25  H   UNL     1      48.405   8.105  14.815  0.00  0.00    +0.000 HD
BRANCH  22  26
ATOM     26  C   UNL     1      48.994   4.413  19.431  0.00  0.00    +0.000 C 
ATOM     27  N   UNL     1      48.281   3.246  19.445  0.00  0.00    +0.000 N 
ATOM     28  O   UNL     1      49.582   4.825  20.423  0.00  0.00    +0.000 OA
ATOM     29  H   UNL     1      47.827   2.917  18.600  0.00  0.00    +0.000 HD
ATOM     30  H   UNL     1      48.253   2.694  20.290  0.00  0.00    +0.000 HD
ENDBRANCH  22  26
ENDBRANCH  17  18
ENDBRANCH   2  17
TORSDOF 6
ENDMDL
MODEL 6
REMARK VINA RESULT:    -6.476      4.885      8.678
REMARK INTER + INTRA:          -9.778
REMARK INTER:                  -9.079
REMARK INTRA:                  -0.699
REMARK UNBOUND:                -1.031
REMARK  Name = 
REMARK  9 active torsions:
REMARK  status: ('A' for Active; 'I' for Inactive)
REMARK    1  A    between atoms: C_1  and  C_2
REMARK    2  A    between atoms: C_2  and  C_3
REMARK    3  A    between atoms: C_2  and  C_14
REMARK    4  A    between atoms: C_3  and  N_4
REMARK    5  A    between atoms: C_8  and  C_9
REMARK    6  A    between atoms: C_17  and  O_18
REMARK    7  A    between atoms: O_18  and  C_19
REMARK    8  A    between atoms: C_21  and  C_22
REMARK    9  A    between atoms: C_21  and  C_23
REMARK                            x       y       z     vdW  Elec       q    Type
REMARK                         _______ _______ _______ _____ _____    ______ ____
ROOT
ATOM      1  C   UNL     1      48.014   5.995  13.883  0.00  0.00    +0.000 C 
ATOM      2  C   UNL     1      46.687   5.371  14.340  0.00  0.00    +0.000 C 
ENDROOT
BRANCH   2   3
ATOM      3  C   UNL     1      45.960   4.693  13.174  0.00  0.00    +0.000 A 
ATOM      4  C   UNL     1      45.918   3.303  12.991  0.00  0.00    +0.000 A 
ATOM      5  C   UNL     1      45.167   2.723  11.963  0.00  0.00    +0.000 A 
ATOM      6  C   UNL     1      44.442   3.520  11.082  0.00  0.00    +0.000 A 
ATOM      7  C   UNL     1      44.499   4.902  11.231  0.00  0.00    +0.000 A 
ATOM      8  F   UNL     1      43.845   5.721  10.397  0.00  0.00    +0.000 F 
ATOM      9  C   UNL     1      45.237   5.483  12.262  0.00  0.00    +0.000 A 
BRANCH   6  10
ATOM     10  O   UNL     1      43.745   2.832  10.121  0.00  0.00    +0.000 OA
BRANCH  10  11
ATOM     11  C   UNL     1      44.410   2.486   8.888  0.00  0.00    +0.000 C 
ATOM     12  C   UNL     1      45.957   2.461   8.899  0.00  0.00    +0.000 C 
ATOM     13  C   UNL     1      45.973   3.332   7.617  0.00  0.00    +0.000 C 
ATOM     14  C   UNL     1      46.204   2.555   6.323  0.00  0.00    +0.000 C 
ATOM     15  C   UNL     1      46.895   4.545   7.714  0.00  0.00    +0.000 C 
ATOM     16  C   UNL     1      44.479   3.647   7.870  0.00  0.00    +0.000 C 
ENDBRANCH  10  11
ENDBRANCH   6  10
ENDBRANCH   2   3
BRANCH   2  17
ATOM     17  C   UNL     1      46.961   4.465  15.571  0.00  0.00    +0.000 C 
BRANCH  17  18
ATOM     18  N   UNL     1      48.046   5.005  16.400  0.00  0.00    +0.000 N 
ATOM     19  C   UNL     1      49.090   4.129  16.712  0.00  0.00    +0.000 A 
ATOM     20  C   UNL     1      50.205   4.607  17.420  0.00  0.00    +0.000 A 
ATOM     21  N   UNL     1      51.234   3.828  17.843  0.00  0.00    +0.000 NA
ATOM     22  C   UNL     1      51.112   2.519  17.500  0.00  0.00    +0.000 A 
ATOM     23  C   UNL     1      50.047   2.036  16.763  0.00  0.00    +0.000 A 
ATOM     24  N   UNL     1      49.025   2.832  16.350  0.00  0.00    +0.000 NA
ATOM     25  H   UNL     1      47.700   5.434  17.254  0.00  0.00    +0.000 HD
BRANCH  22  26
ATOM     26  C   UNL     1      52.155   1.572  17.985  0.00  0.00    +0.000 C 
ATOM     27  N   UNL     1      51.782   0.258  18.053  0.00  0.00    +0.000 N 
ATOM     28  O   UNL     1      53.283   1.942  18.285  0.00  0.00    +0.000 OA
ATOM     29  H   UNL     1      50.848  -0.021  17.772  0.00  0.00    +0.000 HD
ATOM     30  H   UNL     1      52.460  -0.434  18.337  0.00  0.00    +0.000 HD
ENDBRANCH  22  26
ENDBRANCH  17  18
ENDBRANCH   2  17
TORSDOF 6
ENDMDL
MODEL 7
REMARK VINA RESULT:    -6.440      4.528      8.815
REMARK INTER + INTRA:          -9.730
REMARK INTER:                  -8.826
REMARK INTRA:                  -0.904
REMARK UNBOUND:                -1.031
REMARK  Name = 
REMARK  9 active torsions:
REMARK  status: ('A' for Active; 'I' for Inactive)
REMARK    1  A    between atoms: C_1  and  C_2
REMARK    2  A    between atoms: C_2  and  C_3
REMARK    3  A    between atoms: C_2  and  C_14
REMARK    4  A    between atoms: C_3  and  N_4
REMARK    5  A    between atoms: C_8  and  C_9
REMARK    6  A    between atoms: C_17  and  O_18
REMARK    7  A    between atoms: O_18  and  C_19
REMARK    8  A    between atoms: C_21  and  C_22
REMARK    9  A    between atoms: C_21  and  C_23
REMARK                            x       y       z     vdW  Elec       q    Type
REMARK                         _______ _______ _______ _____ _____    ______ ____
ROOT
ATOM      1  C   UNL     1      49.566   8.109  11.861  0.00  0.00    +0.000 C 
ATOM      2  C   UNL     1      48.755   8.022  13.163  0.00  0.00    +0.000 C 
ENDROOT
BRANCH   2   3
ATOM      3  C   UNL     1      47.548   7.091  13.005  0.00  0.00    +0.000 A 
ATOM      4  C   UNL     1      47.474   5.816  13.586  0.00  0.00    +0.000 A 
ATOM      5  C   UNL     1      46.316   5.037  13.491  0.00  0.00    +0.000 A 
ATOM      6  C   UNL     1      45.201   5.509  12.805  0.00  0.00    +0.000 A 
ATOM      7  C   UNL     1      45.270   6.758  12.197  0.00  0.00    +0.000 A 
ATOM      8  F   UNL     1      44.239   7.253  11.500  0.00  0.00    +0.000 F 
ATOM      9  C   UNL     1      46.419   7.543  12.300  0.00  0.00    +0.000 A 
BRANCH   6  10
ATOM     10  O   UNL     1      44.128   4.653  12.787  0.00  0.00    +0.000 OA
BRANCH  10  11
ATOM     11  C   UNL     1      44.073   3.622  11.778  0.00  0.00    +0.000 C 
ATOM     12  C   UNL     1      45.400   3.246  11.075  0.00  0.00    +0.000 C 
ATOM     13  C   UNL     1      44.698   3.379   9.698  0.00  0.00    +0.000 C 
ATOM     14  C   UNL     1      44.266   2.054   9.075  0.00  0.00    +0.000 C 
ATOM     15  C   UNL     1      45.467   4.242   8.701  0.00  0.00    +0.000 C 
ATOM     16  C   UNL     1      43.539   4.113  10.414  0.00  0.00    +0.000 C 
ENDBRANCH  10  11
ENDBRANCH   6  10
ENDBRANCH   2   3
BRANCH   2  17
ATOM     17  C   UNL     1      49.720   7.670  14.327  0.00  0.00    +0.000 C 
BRANCH  17  18
ATOM     18  N   UNL     1      49.178   8.108  15.620  0.00  0.00    +0.000 N 
ATOM     19  C   UNL     1      49.163   7.158  16.646  0.00  0.00    +0.000 A 
ATOM     20  C   UNL     1      48.746   7.537  17.932  0.00  0.00    +0.000 A 
ATOM     21  N   UNL     1      48.617   6.681  18.978  0.00  0.00    +0.000 NA
ATOM     22  C   UNL     1      48.951   5.397  18.684  0.00  0.00    +0.000 A 
ATOM     23  C   UNL     1      49.408   5.010  17.438  0.00  0.00    +0.000 A 
ATOM     24  N   UNL     1      49.529   5.884  16.403  0.00  0.00    +0.000 NA
ATOM     25  H   UNL     1      48.254   8.521  15.529  0.00  0.00    +0.000 HD
BRANCH  22  26
ATOM     26  C   UNL     1      48.769   4.369  19.747  0.00  0.00    +0.000 C 
ATOM     27  N   UNL     1      48.360   3.135  19.320  0.00  0.00    +0.000 N 
ATOM     28  O   UNL     1      48.991   4.606  20.928  0.00  0.00    +0.000 OA
ATOM     29  H   UNL     1      48.209   2.964  18.333  0.00  0.00    +0.000 HD
ATOM     30  H   UNL     1      48.258   2.389  19.992  0.00  0.00    +0.000 HD
ENDBRANCH  22  26
ENDBRANCH  17  18
ENDBRANCH   2  17
TORSDOF 6
ENDMDL
MODEL 8
REMARK VINA RESULT:    -6.255      4.604      8.132
REMARK INTER + INTRA:          -9.479
REMARK INTER:                  -8.568
REMARK INTRA:                  -0.911
REMARK UNBOUND:                -1.031
REMARK  Name = 
REMARK  9 active torsions:
REMARK  status: ('A' for Active; 'I' for Inactive)
REMARK    1  A    between atoms: C_1  and  C_2
REMARK    2  A    between atoms: C_2  and  C_3
REMARK    3  A    between atoms: C_2  and  C_14
REMARK    4  A    between atoms: C_3  and  N_4
REMARK    5  A    between atoms: C_8  and  C_9
REMARK    6  A    between atoms: C_17  and  O_18
REMARK    7  A    between atoms: O_18  and  C_19
REMARK    8  A    between atoms: C_21  and  C_22
REMARK    9  A    between atoms: C_21  and  C_23
REMARK                            x       y       z     vdW  Elec       q    Type
REMARK                         _______ _______ _______ _____ _____    ______ ____
ROOT
ATOM      1  C   UNL     1      50.898   8.763  15.322  0.00  0.00    +0.000 C 
ATOM      2  C   UNL     1      49.378   8.801  15.543  0.00  0.00    +0.000 C 
ENDROOT
BRANCH   2   3
ATOM      3  C   UNL     1      48.625   8.239  14.332  0.00  0.00    +0.000 A 
ATOM      4  C   UNL     1      49.106   7.184  13.543  0.00  0.00    +0.000 A 
ATOM      5  C   UNL     1      48.344   6.644  12.502  0.00  0.00    +0.000 A 
ATOM      6  C   UNL     1      47.080   7.152  12.214  0.00  0.00    +0.000 A 
ATOM      7  C   UNL     1      46.602   8.219  12.967  0.00  0.00    +0.000 A 
ATOM      8  F   UNL     1      45.406   8.768  12.719  0.00  0.00    +0.000 F 
ATOM      9  C   UNL     1      47.355   8.752  14.014  0.00  0.00    +0.000 A 
BRANCH   6  10
ATOM     10  O   UNL     1      46.432   6.535  11.174  0.00  0.00    +0.000 OA
BRANCH  10  11
ATOM     11  C   UNL     1      45.721   5.304  11.424  0.00  0.00    +0.000 C 
ATOM     12  C   UNL     1      44.496   4.998  10.529  0.00  0.00    +0.000 C 
ATOM     13  C   UNL     1      43.656   4.694  11.796  0.00  0.00    +0.000 C 
ATOM     14  C   UNL     1      43.499   3.208  12.113  0.00  0.00    +0.000 C 
ATOM     15  C   UNL     1      42.312   5.418  11.827  0.00  0.00    +0.000 C 
ATOM     16  C   UNL     1      44.764   5.374  12.636  0.00  0.00    +0.000 C 
ENDBRANCH  10  11
ENDBRANCH   6  10
ENDBRANCH   2   3
BRANCH   2  17
ATOM     17  C   UNL     1      49.056   8.121  16.900  0.00  0.00    +0.000 C 
BRANCH  17  18
ATOM     18  N   UNL     1      48.381   6.831  16.704  0.00  0.00    +0.000 N 
ATOM     19  C   UNL     1      49.125   5.684  16.996  0.00  0.00    +0.000 A 
ATOM     20  C   UNL     1      48.512   4.423  16.921  0.00  0.00    +0.000 A 
ATOM     21  N   UNL     1      49.160   3.244  17.105  0.00  0.00    +0.000 NA
ATOM     22  C   UNL     1      50.480   3.381  17.397  0.00  0.00    +0.000 A 
ATOM     23  C   UNL     1      51.094   4.612  17.522  0.00  0.00    +0.000 A 
ATOM     24  N   UNL     1      50.428   5.782  17.332  0.00  0.00    +0.000 NA
ATOM     25  H   UNL     1      47.980   6.744  15.774  0.00  0.00    +0.000 HD
BRANCH  22  26
ATOM     26  C   UNL     1      51.292   2.140  17.541  0.00  0.00    +0.000 C 
ATOM     27  N   UNL     1      52.369   2.227  18.381  0.00  0.00    +0.000 N 
ATOM     28  O   UNL     1      51.004   1.101  16.962  0.00  0.00    +0.000 OA
ATOM     29  H   UNL     1      52.566   3.095  18.866  0.00  0.00    +0.000 HD
ATOM     30  H   UNL     1      52.933   1.406  18.548  0.00  0.00    +0.000 HD
ENDBRANCH  22  26
ENDBRANCH  17  18
ENDBRANCH   2  17
TORSDOF 6
ENDMDL
MODEL 9
REMARK VINA RESULT:    -6.246      4.867      9.279
REMARK INTER + INTRA:          -9.468
REMARK INTER:                  -8.890
REMARK INTRA:                  -0.577
REMARK UNBOUND:                -1.031
REMARK  Name = 
REMARK  9 active torsions:
REMARK  status: ('A' for Active; 'I' for Inactive)
REMARK    1  A    between atoms: C_1  and  C_2
REMARK    2  A    between atoms: C_2  and  C_3
REMARK    3  A    between atoms: C_2  and  C_14
REMARK    4  A    between atoms: C_3  and  N_4
REMARK    5  A    between atoms: C_8  and  C_9
REMARK    6  A    between atoms: C_17  and  O_18
REMARK    7  A    between atoms: O_18  and  C_19
REMARK    8  A    between atoms: C_21  and  C_22
REMARK    9  A    between atoms: C_21  and  C_23
REMARK                            x       y       z     vdW  Elec       q    Type
REMARK                         _______ _______ _______ _____ _____    ______ ____
ROOT
ATOM      1  C   UNL     1      48.005   6.315  14.219  0.00  0.00    +0.000 C 
ATOM      2  C   UNL     1      46.842   5.332  14.427  0.00  0.00    +0.000 C 
ENDROOT
BRANCH   2   3
ATOM      3  C   UNL     1      46.180   4.964  13.095  0.00  0.00    +0.000 A 
ATOM      4  C   UNL     1      45.532   3.741  12.866  0.00  0.00    +0.000 A 
ATOM      5  C   UNL     1      44.863   3.482  11.665  0.00  0.00    +0.000 A 
ATOM      6  C   UNL     1      44.829   4.439  10.654  0.00  0.00    +0.000 A 
ATOM      7  C   UNL     1      45.493   5.645  10.855  0.00  0.00    +0.000 A 
ATOM      8  F   UNL     1      45.519   6.592   9.909  0.00  0.00    +0.000 F 
ATOM      9  C   UNL     1      46.151   5.911  12.056  0.00  0.00    +0.000 A 
BRANCH   6  10
ATOM     10  O   UNL     1      44.139   4.067   9.529  0.00  0.00    +0.000 OA
BRANCH  10  11
ATOM     11  C   UNL     1      44.839   4.003   8.268  0.00  0.00    +0.000 C 
ATOM     12  C   UNL     1      44.701   2.699   7.446  0.00  0.00    +0.000 C 
ATOM     13  C   UNL     1      46.241   2.649   7.281  0.00  0.00    +0.000 C 
ATOM     14  C   UNL     1      46.754   3.165   5.938  0.00  0.00    +0.000 C 
ATOM     15  C   UNL     1      46.850   1.293   7.629  0.00  0.00    +0.000 C 
ATOM     16  C   UNL     1      46.348   3.703   8.410  0.00  0.00    +0.000 C 
ENDBRANCH  10  11
ENDBRANCH   6  10
ENDBRANCH   2   3
BRANCH   2  17
ATOM     17  C   UNL     1      47.350   4.133  15.272  0.00  0.00    +0.000 C 
BRANCH  17  18
ATOM     18  N   UNL     1      47.172   4.381  16.710  0.00  0.00    +0.000 N 
ATOM     19  C   UNL     1      48.337   4.537  17.466  0.00  0.00    +0.000 A 
ATOM     20  C   UNL     1      48.239   4.870  18.827  0.00  0.00    +0.000 A 
ATOM     21  N   UNL     1      49.299   4.967  19.670  0.00  0.00    +0.000 NA
ATOM     22  C   UNL     1      50.498   4.733  19.076  0.00  0.00    +0.000 A 
ATOM     23  C   UNL     1      50.623   4.450  17.729  0.00  0.00    +0.000 A 
ATOM     24  N   UNL     1      49.548   4.356  16.901  0.00  0.00    +0.000 NA
ATOM     25  H   UNL     1      46.577   3.684  17.149  0.00  0.00    +0.000 HD
BRANCH  22  26
ATOM     26  C   UNL     1      51.715   4.742  19.937  0.00  0.00    +0.000 C 
ATOM     27  N   UNL     1      52.567   3.684  19.776  0.00  0.00    +0.000 N 
ATOM     28  O   UNL     1      51.949   5.649  20.725  0.00  0.00    +0.000 OA
ATOM     29  H   UNL     1      52.357   2.961  19.097  0.00  0.00    +0.000 HD
ATOM     30  H   UNL     1      53.426   3.657  20.305  0.00  0.00    +0.000 HD
ENDBRANCH  22  26
ENDBRANCH  17  18
ENDBRANCH   2  17
TORSDOF 6
ENDMDL
