MODEL 1
REMARK VINA RESULT:    -9.106      0.000      0.000
REMARK INTER + INTRA:         -11.660
REMARK INTER:                 -11.235
REMARK INTRA:                  -0.425
REMARK UNBOUND:                -0.425
REMARK  Name = 
REMARK  4 active torsions:
REMARK  status: ('A' for Active; 'I' for Inactive)
REMARK    1  A    between atoms: C_2  and  C_4
REMARK    2  A    between atoms: C_7  and  C_8
REMARK    3  A    between atoms: C_8  and  N_9
REMARK    4  A    between atoms: C_12  and  C_13
REMARK                            x       y       z     vdW  Elec       q    Type
REMARK                         _______ _______ _______ _____ _____    ______ ____
ROOT
ATOM      1  N   UNL     1      44.375   4.217  11.811  0.00  0.00    +0.000 N 
ATOM      2  C   UNL     1      45.476   4.928  12.334  0.00  0.00    +0.000 A 
ATOM      3  C   UNL     1      45.941   4.609  13.611  0.00  0.00    +0.000 A 
ATOM      4  C   UNL     1      47.031   5.302  14.170  0.00  0.00    +0.000 A 
ATOM      5  C   UNL     1      47.598   6.317  13.392  0.00  0.00    +0.000 A 
ATOM      6  C   UNL     1      47.082   6.575  12.137  0.00  0.00    +0.000 A 
ATOM      7  N   UNL     1      46.039   5.911  11.607  0.00  0.00    +0.000 NA
ATOM      8  H   UNL     1      44.582   3.222  11.838  0.00  0.00    +0.000 HD
ENDROOT
BRANCH   4   9
ATOM      9  C   UNL     1      47.581   4.964  15.505  0.00  0.00    +0.000 A 
ATOM     10  C   UNL     1      48.531   5.779  16.153  0.00  0.00    +0.000 A 
ATOM     11  C   UNL     1      49.018   5.468  17.430  0.00  0.00    +0.000 A 
ATOM     12  C   UNL     1      48.576   4.323  18.085  0.00  0.00    +0.000 A 
ATOM     13  C   UNL     1      47.657   3.499  17.455  0.00  0.00    +0.000 A 
ATOM     14  F   UNL     1      47.229   2.390  18.074  0.00  0.00    +0.000 F 
ATOM     15  C   UNL     1      47.161   3.808  16.190  0.00  0.00    +0.000 A 
ENDBRANCH   4   9
BRANCH   1  16
ATOM     16  C   UNL     1      44.034   4.652  10.459  0.00  0.00    +0.000 C 
BRANCH  16  20
ATOM     17  C   UNL     1      46.473   2.479   7.629  0.00  0.00    +0.000 A 
ATOM     18  C   UNL     1      46.408   3.876   7.566  0.00  0.00    +0.000 A 
ATOM     19  C   UNL     1      45.594   4.580   8.460  0.00  0.00    +0.000 A 
ATOM     20  C   UNL     1      44.839   3.898   9.425  0.00  0.00    +0.000 A 
ATOM     21  C   UNL     1      44.890   2.496   9.461  0.00  0.00    +0.000 A 
ATOM     22  C   UNL     1      45.696   1.790   8.567  0.00  0.00    +0.000 A 
BRANCH  17  24
ATOM     23  N   UNL     1      48.398   2.341   6.145  0.00  0.00    +0.000 N 
ATOM     24  C   UNL     1      47.345   1.686   6.725  0.00  0.00    +0.000 C 
ATOM     25  O   UNL     1      47.170   0.491   6.543  0.00  0.00    +0.000 OA
ATOM     26  H   UNL     1      49.056   1.761   5.640  0.00  0.00    +0.000 HD
ATOM     27  H   UNL     1      48.723   3.235   6.482  0.00  0.00    +0.000 HD
ENDBRANCH  17  24
ENDBRANCH  16  20
ENDBRANCH   1  16
TORSDOF 4
ENDMDL
MODEL 2
REMARK VINA RESULT:    -8.302      2.812      3.669
REMARK INTER + INTRA:         -10.668
REMARK INTER:                 -10.249
REMARK INTRA:                  -0.419
REMARK UNBOUND:                -0.425
REMARK  Name = 
REMARK  4 active torsions:
REMARK  status: ('A' for Active; 'I' for Inactive)
REMARK    1  A    between atoms: C_2  and  C_4
REMARK    2  A    between atoms: C_7  and  C_8
REMARK    3  A    between atoms: C_8  and  N_9
REMARK    4  A    between atoms: C_12  and  C_13
REMARK                            x       y       z     vdW  Elec       q    Type
REMARK                         _______ _______ _______ _____ _____    ______ ____
ROOT
ATOM      1  N   UNL     1      44.594   5.980  10.633  0.00  0.00    +0.000 N 
ATOM      2  C   UNL     1      45.469   5.842  11.731  0.00  0.00    +0.000 A 
ATOM      3  C   UNL     1      46.173   6.961  12.179  0.00  0.00    +0.000 A 
ATOM      4  C   UNL     1      47.063   6.860  13.265  0.00  0.00    +0.000 A 
ATOM      5  C   UNL     1      47.207   5.596  13.846  0.00  0.00    +0.000 A 
ATOM      6  C   UNL     1      46.476   4.535  13.346  0.00  0.00    +0.000 A 
ATOM      7  N   UNL     1      45.629   4.636  12.307  0.00  0.00    +0.000 NA
ATOM      8  H   UNL     1      43.926   6.719  10.835  0.00  0.00    +0.000 HD
ENDROOT
BRANCH   4   9
ATOM      9  C   UNL     1      47.795   8.035  13.798  0.00  0.00    +0.000 A 
ATOM     10  C   UNL     1      48.414   8.021  15.064  0.00  0.00    +0.000 A 
ATOM     11  C   UNL     1      49.134   9.125  15.543  0.00  0.00    +0.000 A 
ATOM     12  C   UNL     1      49.238  10.277  14.771  0.00  0.00    +0.000 A 
ATOM     13  C   UNL     1      48.618  10.316  13.532  0.00  0.00    +0.000 A 
ATOM     14  F   UNL     1      48.706  11.424  12.783  0.00  0.00    +0.000 F 
ATOM     15  C   UNL     1      47.911   9.219  13.046  0.00  0.00    +0.000 A 
ENDBRANCH   4   9
BRANCH   1  16
ATOM     16  C   UNL     1      43.918   4.727  10.310  0.00  0.00    +0.000 C 
BRANCH  16  20
ATOM     17  C   UNL     1      46.423   2.316   7.741  0.00  0.00    +0.000 A 
ATOM     18  C   UNL     1      46.409   3.708   7.595  0.00  0.00    +0.000 A 
ATOM     19  C   UNL     1      45.576   4.489   8.404  0.00  0.00    +0.000 A 
ATOM     20  C   UNL     1      44.748   3.888   9.364  0.00  0.00    +0.000 A 
ATOM     21  C   UNL     1      44.750   2.489   9.483  0.00  0.00    +0.000 A 
ATOM     22  C   UNL     1      45.575   1.708   8.674  0.00  0.00    +0.000 A 
BRANCH  17  24
ATOM     23  N   UNL     1      48.352   2.051   6.280  0.00  0.00    +0.000 N 
ATOM     24  C   UNL     1      47.312   1.444   6.931  0.00  0.00    +0.000 C 
ATOM     25  O   UNL     1      47.162   0.232   6.885  0.00  0.00    +0.000 OA
ATOM     26  H   UNL     1      49.022   1.432   5.843  0.00  0.00    +0.000 HD
ATOM     27  H   UNL     1      48.658   2.984   6.514  0.00  0.00    +0.000 HD
ENDBRANCH  17  24
ENDBRANCH  16  20
ENDBRANCH   1  16
TORSDOF 4
ENDMDL
MODEL 3
REMARK VINA RESULT:    -7.408      4.960      8.580
REMARK INTER + INTRA:          -9.565
REMARK INTER:                  -9.018
REMARK INTRA:                  -0.547
REMARK UNBOUND:                -0.425
REMARK  Name = 
REMARK  4 active torsions:
REMARK  status: ('A' for Active; 'I' for Inactive)
REMARK    1  A    between atoms: C_2  and  C_4
REMARK    2  A    between atoms: C_7  and  C_8
REMARK    3  A    between atoms: C_8  and  N_9
REMARK    4  A    between atoms: C_12  and  C_13
REMARK                            x       y       z     vdW  Elec       q    Type
REMARK                         _______ _______ _______ _____ _____    ______ ____
ROOT
ATOM      1  N   UNL     1      48.135   4.056  16.903  0.00  0.00    +0.000 N 
ATOM      2  C   UNL     1      47.839   4.781  15.729  0.00  0.00    +0.000 A 
ATOM      3  C   UNL     1      46.768   4.370  14.933  0.00  0.00    +0.000 A 
ATOM      4  C   UNL     1      46.449   5.062  13.750  0.00  0.00    +0.000 A 
ATOM      5  C   UNL     1      47.260   6.152  13.419  0.00  0.00    +0.000 A 
ATOM      6  C   UNL     1      48.303   6.498  14.257  0.00  0.00    +0.000 A 
ATOM      7  N   UNL     1      48.606   5.833  15.386  0.00  0.00    +0.000 NA
ATOM      8  H   UNL     1      47.302   4.015  17.484  0.00  0.00    +0.000 HD
ENDROOT
BRANCH   4   9
ATOM      9  C   UNL     1      45.292   4.683  12.902  0.00  0.00    +0.000 A 
ATOM     10  C   UNL     1      45.271   3.488  12.155  0.00  0.00    +0.000 A 
ATOM     11  C   UNL     1      44.158   3.123  11.385  0.00  0.00    +0.000 A 
ATOM     12  C   UNL     1      43.043   3.953  11.332  0.00  0.00    +0.000 A 
ATOM     13  C   UNL     1      43.055   5.142  12.044  0.00  0.00    +0.000 A 
ATOM     14  F   UNL     1      41.989   5.953  11.995  0.00  0.00    +0.000 F 
ATOM     15  C   UNL     1      44.153   5.506  12.820  0.00  0.00    +0.000 A 
ENDBRANCH   4   9
BRANCH   1  16
ATOM     16  C   UNL     1      49.263   4.631  17.632  0.00  0.00    +0.000 C 
BRANCH  16  20
ATOM     17  C   UNL     1      52.540   1.825  17.899  0.00  0.00    +0.000 A 
ATOM     18  C   UNL     1      52.724   3.153  18.301  0.00  0.00    +0.000 A 
ATOM     19  C   UNL     1      51.674   4.071  18.186  0.00  0.00    +0.000 A 
ATOM     20  C   UNL     1      50.433   3.673  17.669  0.00  0.00    +0.000 A 
ATOM     21  C   UNL     1      50.268   2.346  17.244  0.00  0.00    +0.000 A 
ATOM     22  C   UNL     1      51.314   1.429  17.351  0.00  0.00    +0.000 A 
BRANCH  17  24
ATOM     23  N   UNL     1      53.223  -0.458  18.396  0.00  0.00    +0.000 N 
ATOM     24  C   UNL     1      53.609   0.803  18.030  0.00  0.00    +0.000 C 
ATOM     25  O   UNL     1      54.777   1.053  17.773  0.00  0.00    +0.000 OA
ATOM     26  H   UNL     1      53.940  -1.171  18.353  0.00  0.00    +0.000 HD
ATOM     27  H   UNL     1      52.261  -0.758  18.349  0.00  0.00    +0.000 HD
ENDBRANCH  17  24
ENDBRANCH  16  20
ENDBRANCH   1  16
TORSDOF 4
ENDMDL
MODEL 4
REMARK VINA RESULT:    -6.971      1.987      2.611
REMARK INTER + INTRA:          -9.027
REMARK INTER:                  -8.513
REMARK INTRA:                  -0.514
REMARK UNBOUND:                -0.425
REMARK  Name = 
REMARK  4 active torsions:
REMARK  status: ('A' for Active; 'I' for Inactive)
REMARK    1  A    between atoms: C_2  and  C_4
REMARK    2  A    between atoms: C_7  and  C_8
REMARK    3  A    between atoms: C_8  and  N_9
REMARK    4  A    between atoms: C_12  and  C_13
REMARK                            x       y       z     vdW  Elec       q    Type
REMARK                         _______ _______ _______ _____ _____    ______ ____
ROOT
ATOM      1  N   UNL     1      45.299   4.519  11.992  0.00  0.00    +0.000 N 
ATOM      2  C   UNL     1      45.740   5.845  12.191  0.00  0.00    +0.000 A 
ATOM      3  C   UNL     1      46.584   6.122  13.268  0.00  0.00    +0.000 A 
ATOM      4  C   UNL     1      47.036   7.434  13.504  0.00  0.00    +0.000 A 
ATOM      5  C   UNL     1      46.589   8.423  12.623  0.00  0.00    +0.000 A 
ATOM      6  C   UNL     1      45.754   8.072  11.580  0.00  0.00    +0.000 A 
ATOM      7  N   UNL     1      45.322   6.817  11.359  0.00  0.00    +0.000 NA
ATOM      8  H   UNL     1      46.110   3.909  11.930  0.00  0.00    +0.000 HD
ENDROOT
BRANCH   4   9
ATOM      9  C   UNL     1      47.968   7.760  14.612  0.00  0.00    +0.000 A 
ATOM     10  C   UNL     1      48.086   9.065  15.131  0.00  0.00    +0.000 A 
ATOM     11  C   UNL     1      48.944   9.354  16.202  0.00  0.00    +0.000 A 
ATOM     12  C   UNL     1      49.716   8.346  16.770  0.00  0.00    +0.000 A 
ATOM     13  C   UNL     1      49.627   7.061  16.259  0.00  0.00    +0.000 A 
ATOM     14  F   UNL     1      50.371   6.083  16.793  0.00  0.00    +0.000 F 
ATOM     15  C   UNL     1      48.769   6.764  15.202  0.00  0.00    +0.000 A 
ENDBRANCH   4   9
BRANCH   1  16
ATOM     16  C   UNL     1      44.450   4.396  10.810  0.00  0.00    +0.000 C 
BRANCH  16  20
ATOM     17  C   UNL     1      46.476   2.693   7.392  0.00  0.00    +0.000 A 
ATOM     18  C   UNL     1      45.906   1.853   8.356  0.00  0.00    +0.000 A 
ATOM     19  C   UNL     1      45.278   2.401   9.480  0.00  0.00    +0.000 A 
ATOM     20  C   UNL     1      45.212   3.791   9.652  0.00  0.00    +0.000 A 
ATOM     21  C   UNL     1      45.810   4.623   8.694  0.00  0.00    +0.000 A 
ATOM     22  C   UNL     1      46.443   4.080   7.575  0.00  0.00    +0.000 A 
BRANCH  17  24
ATOM     23  N   UNL     1      46.852   2.808   4.991  0.00  0.00    +0.000 N 
ATOM     24  C   UNL     1      47.126   2.164   6.166  0.00  0.00    +0.000 C 
ATOM     25  O   UNL     1      47.913   1.230   6.203  0.00  0.00    +0.000 OA
ATOM     26  H   UNL     1      47.400   2.522   4.190  0.00  0.00    +0.000 HD
ATOM     27  H   UNL     1      46.434   3.727   4.968  0.00  0.00    +0.000 HD
ENDBRANCH  17  24
ENDBRANCH  16  20
ENDBRANCH   1  16
TORSDOF 4
ENDMDL
MODEL 5
REMARK VINA RESULT:    -6.566      4.842      9.061
REMARK INTER + INTRA:          -8.527
REMARK INTER:                  -7.963
REMARK INTRA:                  -0.564
REMARK UNBOUND:                -0.425
REMARK  Name = 
REMARK  4 active torsions:
REMARK  status: ('A' for Active; 'I' for Inactive)
REMARK    1  A    between atoms: C_2  and  C_4
REMARK    2  A    between atoms: C_7  and  C_8
REMARK    3  A    between atoms: C_8  and  N_9
REMARK    4  A    between atoms: C_12  and  C_13
REMARK                            x       y       z     vdW  Elec       q    Type
REMARK                         _______ _______ _______ _____ _____    ______ ____
ROOT
ATOM      1  N   UNL     1      48.597   7.315  13.554  0.00  0.00    +0.000 N 
ATOM      2  C   UNL     1      47.337   7.309  12.921  0.00  0.00    +0.000 A 
ATOM      3  C   UNL     1      47.011   6.247  12.074  0.00  0.00    +0.000 A 
ATOM      4  C   UNL     1      45.767   6.210  11.418  0.00  0.00    +0.000 A 
ATOM      5  C   UNL     1      44.901   7.285  11.647  0.00  0.00    +0.000 A 
ATOM      6  C   UNL     1      45.295   8.300  12.498  0.00  0.00    +0.000 A 
ATOM      7  N   UNL     1      46.486   8.332  13.122  0.00  0.00    +0.000 NA
ATOM      8  H   UNL     1      48.711   6.447  14.070  0.00  0.00    +0.000 HD
ENDROOT
BRANCH   4   9
ATOM      9  C   UNL     1      45.367   5.078  10.546  0.00  0.00    +0.000 A 
ATOM     10  C   UNL     1      44.569   4.016  11.017  0.00  0.00    +0.000 A 
ATOM     11  C   UNL     1      44.168   2.970  10.175  0.00  0.00    +0.000 A 
ATOM     12  C   UNL     1      44.568   2.953   8.843  0.00  0.00    +0.000 A 
ATOM     13  C   UNL     1      45.370   3.979   8.368  0.00  0.00    +0.000 A 
ATOM     14  F   UNL     1      45.768   3.970   7.089  0.00  0.00    +0.000 F 
ATOM     15  C   UNL     1      45.764   5.028   9.197  0.00  0.00    +0.000 A 
ENDBRANCH   4   9
BRANCH   1  16
ATOM     16  C   UNL     1      48.768   8.477  14.423  0.00  0.00    +0.000 C 
BRANCH  16  20
ATOM     17  C   UNL     1      48.209   7.308  18.547  0.00  0.00    +0.000 A 
ATOM     18  C   UNL     1      47.993   8.637  18.163  0.00  0.00    +0.000 A 
ATOM     19  C   UNL     1      48.204   9.025  16.835  0.00  0.00    +0.000 A 
ATOM     20  C   UNL     1      48.632   8.092  15.879  0.00  0.00    +0.000 A 
ATOM     21  C   UNL     1      48.872   6.769  16.281  0.00  0.00    +0.000 A 
ATOM     22  C   UNL     1      48.668   6.380  17.606  0.00  0.00    +0.000 A 
BRANCH  17  24
ATOM     23  N   UNL     1      47.135   5.764  20.091  0.00  0.00    +0.000 N 
ATOM     24  C   UNL     1      47.969   6.837  19.935  0.00  0.00    +0.000 C 
ATOM     25  O   UNL     1      48.529   7.344  20.895  0.00  0.00    +0.000 OA
ATOM     26  H   UNL     1      47.085   5.374  21.023  0.00  0.00    +0.000 HD
ATOM     27  H   UNL     1      46.881   5.166  19.319  0.00  0.00    +0.000 HD
ENDBRANCH  17  24
ENDBRANCH  16  20
ENDBRANCH   1  16
TORSDOF 4
ENDMDL
