MODEL 1
REMARK VINA RESULT:    -7.551      0.000      0.000
REMARK INTER + INTRA:         -11.373
REMARK INTER:                 -10.420
REMARK INTRA:                  -0.953
REMARK UNBOUND:                -0.953
REMARK  Name = 
REMARK  9 active torsions:
REMARK  status: ('A' for Active; 'I' for Inactive)
REMARK    1  A    between atoms: C_1  and  N_2
REMARK    2  A    between atoms: N_2  and  C_3
REMARK    3  A    between atoms: N_2  and  C_4
REMARK    4  A    between atoms: C_4  and  C_5
REMARK    5  A    between atoms: C_5  and  O_6
REMARK    6  A    between atoms: C_5  and  C_7
REMARK    7  A    between atoms: C_10  and  C_11
REMARK    8  A    between atoms: C_11  and  N_12
REMARK    9  A    between atoms: C_17  and  C_18
REMARK                            x       y       z     vdW  Elec       q    Type
REMARK                         _______ _______ _______ _____ _____    ______ ____
ROOT
ATOM      1  C   UNL     1      43.773   5.393  11.242  0.00  0.00    +0.000 C 
ENDROOT
BRANCH   1   2
ATOM      2  N   UNL     1      43.782   4.105  10.563  0.00  0.00    +0.000 N 
ATOM      3  C   UNL     1      43.390   2.939  11.169  0.00  0.00    +0.000 A 
ATOM      4  N   UNL     1      43.863   1.885  10.549  0.00  0.00    +0.000 NA
ATOM      5  C   UNL     1      44.627   2.395   9.537  0.00  0.00    +0.000 A 
ATOM      6  C   UNL     1      45.549   1.730   8.735  0.00  0.00    +0.000 A 
ATOM      7  C   UNL     1      46.314   2.476   7.842  0.00  0.00    +0.000 A 
ATOM      8  C   UNL     1      46.021   3.832   7.599  0.00  0.00    +0.000 A 
ATOM      9  C   UNL     1      45.066   4.510   8.377  0.00  0.00    +0.000 A 
ATOM     10  C   UNL     1      44.468   3.775   9.412  0.00  0.00    +0.000 A 
BRANCH   7  11
ATOM     11  C   UNL     1      47.500   1.846   7.215  0.00  0.00    +0.000 C 
ATOM     12  N   UNL     1      48.343   2.689   6.541  0.00  0.00    +0.000 N 
ATOM     13  O   UNL     1      47.692   0.637   7.251  0.00  0.00    +0.000 OA
ATOM     14  H   UNL     1      48.099   3.653   6.326  0.00  0.00    +0.000 HD
ATOM     15  H   UNL     1      49.110   2.271   6.036  0.00  0.00    +0.000 HD
ENDBRANCH   7  11
ENDBRANCH   1   2
BRANCH   1  19
ATOM     16  C   UNL     1      47.666   6.381  12.947  0.00  0.00    +0.000 A 
ATOM     17  C   UNL     1      46.839   5.415  13.534  0.00  0.00    +0.000 A 
ATOM     18  C   UNL     1      45.597   5.083  12.977  0.00  0.00    +0.000 A 
ATOM     19  C   UNL     1      45.139   5.713  11.815  0.00  0.00    +0.000 A 
ATOM     20  C   UNL     1      45.961   6.682  11.221  0.00  0.00    +0.000 A 
ATOM     21  C   UNL     1      47.202   7.013  11.781  0.00  0.00    +0.000 A 
BRANCH  16  22
ATOM     22  C   UNL     1      49.021   6.787  13.521  0.00  0.00    +0.000 C 
BRANCH  22  23
ATOM     23  O   UNL     1      49.093   6.280  14.857  0.00  0.00    +0.000 OA
ATOM     24  H   UNL     1      48.973   5.318  14.801  0.00  0.00    +0.000 HD
ENDBRANCH  22  23
BRANCH  22  25
ATOM     25  C   UNL     1      49.327   8.322  13.489  0.00  0.00    +0.000 C 
BRANCH  25  27
ATOM     26  C   UNL     1      51.739   8.466  13.739  0.00  0.00    +0.000 C 
ATOM     27  N   UNL     1      50.602   8.747  12.863  0.00  0.00    +0.000 NA
ATOM     28  C   UNL     1      50.793   8.056  11.581  0.00  0.00    +0.000 C 
ENDBRANCH  25  27
ENDBRANCH  22  25
ENDBRANCH  16  22
ENDBRANCH   1  19
TORSDOF 7
ENDMDL
MODEL 2
REMARK VINA RESULT:    -7.518      2.479      3.019
REMARK INTER + INTRA:         -11.328
REMARK INTER:                 -11.371
REMARK INTRA:                   0.043
REMARK UNBOUND:                -0.953
REMARK  Name = 
REMARK  9 active torsions:
REMARK  status: ('A' for Active; 'I' for Inactive)
REMARK    1  A    between atoms: C_1  and  N_2
REMARK    2  A    between atoms: N_2  and  C_3
REMARK    3  A    between atoms: N_2  and  C_4
REMARK    4  A    between atoms: C_4  and  C_5
REMARK    5  A    between atoms: C_5  and  O_6
REMARK    6  A    between atoms: C_5  and  C_7
REMARK    7  A    between atoms: C_10  and  C_11
REMARK    8  A    between atoms: C_11  and  N_12
REMARK    9  A    between atoms: C_17  and  C_18
REMARK                            x       y       z     vdW  Elec       q    Type
REMARK                         _______ _______ _______ _____ _____    ______ ____
ROOT
ATOM      1  C   UNL     1      44.807   5.993  10.955  0.00  0.00    +0.000 C 
ENDROOT
BRANCH   1   2
ATOM      2  N   UNL     1      44.382   4.719  10.390  0.00  0.00    +0.000 N 
ATOM      3  C   UNL     1      43.617   3.815  11.081  0.00  0.00    +0.000 A 
ATOM      4  N   UNL     1      43.707   2.610  10.571  0.00  0.00    +0.000 NA
ATOM      5  C   UNL     1      44.603   2.737   9.547  0.00  0.00    +0.000 A 
ATOM      6  C   UNL     1      45.249   1.729   8.838  0.00  0.00    +0.000 A 
ATOM      7  C   UNL     1      46.225   2.087   7.911  0.00  0.00    +0.000 A 
ATOM      8  C   UNL     1      46.409   3.433   7.542  0.00  0.00    +0.000 A 
ATOM      9  C   UNL     1      45.736   4.463   8.224  0.00  0.00    +0.000 A 
ATOM     10  C   UNL     1      44.920   4.072   9.297  0.00  0.00    +0.000 A 
BRANCH   7  11
ATOM     11  C   UNL     1      47.131   1.039   7.384  0.00  0.00    +0.000 C 
ATOM     12  N   UNL     1      46.798  -0.254   7.692  0.00  0.00    +0.000 N 
ATOM     13  O   UNL     1      48.145   1.310   6.754  0.00  0.00    +0.000 OA
ATOM     14  H   UNL     1      46.084  -0.488   8.378  0.00  0.00    +0.000 HD
ATOM     15  H   UNL     1      47.445  -0.976   7.416  0.00  0.00    +0.000 HD
ENDBRANCH   7  11
ENDBRANCH   1   2
BRANCH   1  19
ATOM     16  C   UNL     1      47.273   5.415  14.508  0.00  0.00    +0.000 A 
ATOM     17  C   UNL     1      46.398   4.417  14.059  0.00  0.00    +0.000 A 
ATOM     18  C   UNL     1      45.620   4.594  12.907  0.00  0.00    +0.000 A 
ATOM     19  C   UNL     1      45.687   5.780  12.169  0.00  0.00    +0.000 A 
ATOM     20  C   UNL     1      46.560   6.784  12.612  0.00  0.00    +0.000 A 
ATOM     21  C   UNL     1      47.337   6.606  13.764  0.00  0.00    +0.000 A 
BRANCH  16  22
ATOM     22  C   UNL     1      48.132   5.276  15.761  0.00  0.00    +0.000 C 
BRANCH  22  23
ATOM     23  O   UNL     1      49.376   5.936  15.507  0.00  0.00    +0.000 OA
ATOM     24  H   UNL     1      50.008   5.612  16.170  0.00  0.00    +0.000 HD
ENDBRANCH  22  23
BRANCH  22  25
ATOM     25  C   UNL     1      48.368   3.809  16.251  0.00  0.00    +0.000 C 
BRANCH  25  27
ATOM     26  C   UNL     1      49.425   4.018  18.428  0.00  0.00    +0.000 C 
ATOM     27  N   UNL     1      49.588   3.547  17.052  0.00  0.00    +0.000 NA
ATOM     28  C   UNL     1      49.890   2.110  17.062  0.00  0.00    +0.000 C 
ENDBRANCH  25  27
ENDBRANCH  22  25
ENDBRANCH  16  22
ENDBRANCH   1  19
TORSDOF 7
ENDMDL
MODEL 3
REMARK VINA RESULT:    -7.478      1.669      2.222
REMARK INTER + INTRA:         -11.272
REMARK INTER:                 -10.753
REMARK INTRA:                  -0.519
REMARK UNBOUND:                -0.953
REMARK  Name = 
REMARK  9 active torsions:
REMARK  status: ('A' for Active; 'I' for Inactive)
REMARK    1  A    between atoms: C_1  and  N_2
REMARK    2  A    between atoms: N_2  and  C_3
REMARK    3  A    between atoms: N_2  and  C_4
REMARK    4  A    between atoms: C_4  and  C_5
REMARK    5  A    between atoms: C_5  and  O_6
REMARK    6  A    between atoms: C_5  and  C_7
REMARK    7  A    between atoms: C_10  and  C_11
REMARK    8  A    between atoms: C_11  and  N_12
REMARK    9  A    between atoms: C_17  and  C_18
REMARK                            x       y       z     vdW  Elec       q    Type
REMARK                         _______ _______ _______ _____ _____    ______ ____
ROOT
ATOM      1  C   UNL     1      43.575   6.113  11.027  0.00  0.00    +0.000 C 
ENDROOT
BRANCH   1   2
ATOM      2  N   UNL     1      43.471   4.690  10.732  0.00  0.00    +0.000 N 
ATOM      3  C   UNL     1      43.113   3.757  11.672  0.00  0.00    +0.000 A 
ATOM      4  N   UNL     1      43.483   2.548  11.324  0.00  0.00    +0.000 NA
ATOM      5  C   UNL     1      44.148   2.719  10.142  0.00  0.00    +0.000 A 
ATOM      6  C   UNL     1      44.956   1.809   9.470  0.00  0.00    +0.000 A 
ATOM      7  C   UNL     1      45.642   2.237   8.336  0.00  0.00    +0.000 A 
ATOM      8  C   UNL     1      45.366   3.491   7.758  0.00  0.00    +0.000 A 
ATOM      9  C   UNL     1      44.522   4.410   8.407  0.00  0.00    +0.000 A 
ATOM     10  C   UNL     1      44.018   4.020   9.657  0.00  0.00    +0.000 A 
BRANCH   7  11
ATOM     11  C   UNL     1      46.734   1.392   7.797  0.00  0.00    +0.000 C 
ATOM     12  N   UNL     1      47.682   2.039   7.050  0.00  0.00    +0.000 N 
ATOM     13  O   UNL     1      46.762   0.179   7.963  0.00  0.00    +0.000 OA
ATOM     14  H   UNL     1      47.568   2.998   6.730  0.00  0.00    +0.000 HD
ATOM     15  H   UNL     1      48.386   1.471   6.603  0.00  0.00    +0.000 HD
ENDBRANCH   7  11
ENDBRANCH   1   2
BRANCH   1  19
ATOM     16  C   UNL     1      47.272   7.009  13.164  0.00  0.00    +0.000 A 
ATOM     17  C   UNL     1      46.292   7.990  12.962  0.00  0.00    +0.000 A 
ATOM     18  C   UNL     1      45.097   7.698  12.293  0.00  0.00    +0.000 A 
ATOM     19  C   UNL     1      44.844   6.415  11.798  0.00  0.00    +0.000 A 
ATOM     20  C   UNL     1      45.820   5.427  11.996  0.00  0.00    +0.000 A 
ATOM     21  C   UNL     1      47.016   5.721  12.664  0.00  0.00    +0.000 A 
BRANCH  16  22
ATOM     22  C   UNL     1      48.595   7.279  13.875  0.00  0.00    +0.000 C 
BRANCH  22  23
ATOM     23  O   UNL     1      49.607   6.518  13.208  0.00  0.00    +0.000 OA
ATOM     24  H   UNL     1      49.195   5.683  12.930  0.00  0.00    +0.000 HD
ENDBRANCH  22  23
BRANCH  22  25
ATOM     25  C   UNL     1      48.599   6.986  15.412  0.00  0.00    +0.000 C 
BRANCH  25  27
ATOM     26  C   UNL     1      49.968   5.736  16.984  0.00  0.00    +0.000 C 
ATOM     27  N   UNL     1      49.051   5.642  15.847  0.00  0.00    +0.000 NA
ATOM     28  C   UNL     1      47.896   4.814  16.220  0.00  0.00    +0.000 C 
ENDBRANCH  25  27
ENDBRANCH  22  25
ENDBRANCH  16  22
ENDBRANCH   1  19
TORSDOF 7
ENDMDL
MODEL 4
REMARK VINA RESULT:    -6.167      5.477      7.454
REMARK INTER + INTRA:          -9.464
REMARK INTER:                  -8.680
REMARK INTRA:                  -0.783
REMARK UNBOUND:                -0.953
REMARK  Name = 
REMARK  9 active torsions:
REMARK  status: ('A' for Active; 'I' for Inactive)
REMARK    1  A    between atoms: C_1  and  N_2
REMARK    2  A    between atoms: N_2  and  C_3
REMARK    3  A    between atoms: N_2  and  C_4
REMARK    4  A    between atoms: C_4  and  C_5
REMARK    5  A    between atoms: C_5  and  O_6
REMARK    6  A    between atoms: C_5  and  C_7
REMARK    7  A    between atoms: C_10  and  C_11
REMARK    8  A    between atoms: C_11  and  N_12
REMARK    9  A    between atoms: C_17  and  C_18
REMARK                            x       y       z     vdW  Elec       q    Type
REMARK                         _______ _______ _______ _____ _____    ______ ____
ROOT
ATOM      1  C   UNL     1      47.968   5.130  16.771  0.00  0.00    +0.000 C 
ENDROOT
BRANCH   1   2
ATOM      2  N   UNL     1      48.067   5.701  15.435  0.00  0.00    +0.000 N 
ATOM      3  C   UNL     1      48.673   6.905  15.180  0.00  0.00    +0.000 A 
ATOM      4  N   UNL     1      48.289   7.411  14.034  0.00  0.00    +0.000 NA
ATOM      5  C   UNL     1      47.365   6.523  13.558  0.00  0.00    +0.000 A 
ATOM      6  C   UNL     1      46.467   6.693  12.510  0.00  0.00    +0.000 A 
ATOM      7  C   UNL     1      45.521   5.698  12.274  0.00  0.00    +0.000 A 
ATOM      8  C   UNL     1      45.601   4.457  12.936  0.00  0.00    +0.000 A 
ATOM      9  C   UNL     1      46.528   4.256  13.974  0.00  0.00    +0.000 A 
ATOM     10  C   UNL     1      47.321   5.359  14.325  0.00  0.00    +0.000 A 
BRANCH   7  11
ATOM     11  C   UNL     1      44.375   5.995  11.383  0.00  0.00    +0.000 C 
ATOM     12  N   UNL     1      43.943   7.295  11.372  0.00  0.00    +0.000 N 
ATOM     13  O   UNL     1      43.812   5.124  10.732  0.00  0.00    +0.000 OA
ATOM     14  H   UNL     1      44.259   7.984  12.051  0.00  0.00    +0.000 HD
ATOM     15  H   UNL     1      43.113   7.502  10.839  0.00  0.00    +0.000 HD
ENDBRANCH   7  11
ENDBRANCH   1   2
BRANCH   1  19
ATOM     16  C   UNL     1      51.052   2.089  17.305  0.00  0.00    +0.000 A 
ATOM     17  C   UNL     1      51.278   3.426  17.660  0.00  0.00    +0.000 A 
ATOM     18  C   UNL     1      50.283   4.399  17.507  0.00  0.00    +0.000 A 
ATOM     19  C   UNL     1      49.027   4.068  16.987  0.00  0.00    +0.000 A 
ATOM     20  C   UNL     1      48.793   2.732  16.629  0.00  0.00    +0.000 A 
ATOM     21  C   UNL     1      49.790   1.761  16.782  0.00  0.00    +0.000 A 
BRANCH  16  22
ATOM     22  C   UNL     1      52.106   0.995  17.441  0.00  0.00    +0.000 C 
BRANCH  22  23
ATOM     23  O   UNL     1      51.637   0.061  18.418  0.00  0.00    +0.000 OA
ATOM     24  H   UNL     1      52.386  -0.515  18.640  0.00  0.00    +0.000 HD
ENDBRANCH  22  23
BRANCH  22  25
ATOM     25  C   UNL     1      53.547   1.495  17.793  0.00  0.00    +0.000 C 
BRANCH  25  27
ATOM     26  C   UNL     1      55.159   0.463  19.290  0.00  0.00    +0.000 C 
ATOM     27  N   UNL     1      53.994   1.344  19.199  0.00  0.00    +0.000 NA
ATOM     28  C   UNL     1      54.330   2.656  19.767  0.00  0.00    +0.000 C 
ENDBRANCH  25  27
ENDBRANCH  22  25
ENDBRANCH  16  22
ENDBRANCH   1  19
TORSDOF 7
ENDMDL
MODEL 5
REMARK VINA RESULT:    -5.819      2.390      7.120
REMARK INTER + INTRA:          -8.983
REMARK INTER:                  -8.561
REMARK INTRA:                  -0.422
REMARK UNBOUND:                -0.953
REMARK  Name = 
REMARK  9 active torsions:
REMARK  status: ('A' for Active; 'I' for Inactive)
REMARK    1  A    between atoms: C_1  and  N_2
REMARK    2  A    between atoms: N_2  and  C_3
REMARK    3  A    between atoms: N_2  and  C_4
REMARK    4  A    between atoms: C_4  and  C_5
REMARK    5  A    between atoms: C_5  and  O_6
REMARK    6  A    between atoms: C_5  and  C_7
REMARK    7  A    between atoms: C_10  and  C_11
REMARK    8  A    between atoms: C_11  and  N_12
REMARK    9  A    between atoms: C_17  and  C_18
REMARK                            x       y       z     vdW  Elec       q    Type
REMARK                         _______ _______ _______ _____ _____    ______ ____
ROOT
ATOM      1  C   UNL     1      44.936   6.490  13.121  0.00  0.00    +0.000 C 
ENDROOT
BRANCH   1   2
ATOM      2  N   UNL     1      45.764   7.684  13.012  0.00  0.00    +0.000 N 
ATOM      3  C   UNL     1      45.289   8.881  12.541  0.00  0.00    +0.000 A 
ATOM      4  N   UNL     1      46.259   9.666  12.139  0.00  0.00    +0.000 NA
ATOM      5  C   UNL     1      47.395   8.925  12.312  0.00  0.00    +0.000 A 
ATOM      6  C   UNL     1      48.670   9.176  11.817  0.00  0.00    +0.000 A 
ATOM      7  C   UNL     1      49.661   8.216  12.011  0.00  0.00    +0.000 A 
ATOM      8  C   UNL     1      49.443   7.118  12.865  0.00  0.00    +0.000 A 
ATOM      9  C   UNL     1      48.167   6.870  13.403  0.00  0.00    +0.000 A 
ATOM     10  C   UNL     1      47.143   7.744  13.010  0.00  0.00    +0.000 A 
BRANCH   7  11
ATOM     11  C   UNL     1      50.919   8.319  11.235  0.00  0.00    +0.000 C 
ATOM     12  N   UNL     1      51.434   7.139  10.766  0.00  0.00    +0.000 N 
ATOM     13  O   UNL     1      51.496   9.386  11.064  0.00  0.00    +0.000 OA
ATOM     14  H   UNL     1      51.087   6.231  11.067  0.00  0.00    +0.000 HD
ATOM     15  H   UNL     1      52.332   7.175  10.309  0.00  0.00    +0.000 HD
ENDBRANCH   7  11
ENDBRANCH   1   2
BRANCH   1  19
ATOM     16  C   UNL     1      45.257   4.061   9.510  0.00  0.00    +0.000 A 
ATOM     17  C   UNL     1      44.718   3.539  10.693  0.00  0.00    +0.000 A 
ATOM     18  C   UNL     1      44.596   4.324  11.847  0.00  0.00    +0.000 A 
ATOM     19  C   UNL     1      45.018   5.658  11.858  0.00  0.00    +0.000 A 
ATOM     20  C   UNL     1      45.559   6.188  10.678  0.00  0.00    +0.000 A 
ATOM     21  C   UNL     1      45.680   5.402   9.525  0.00  0.00    +0.000 A 
BRANCH  16  22
ATOM     22  C   UNL     1      45.422   3.246   8.231  0.00  0.00    +0.000 C 
BRANCH  22  23
ATOM     23  O   UNL     1      44.157   3.230   7.562  0.00  0.00    +0.000 OA
ATOM     24  H   UNL     1      43.707   2.412   7.829  0.00  0.00    +0.000 HD
ENDBRANCH  22  23
BRANCH  22  25
ATOM     25  C   UNL     1      45.966   1.792   8.431  0.00  0.00    +0.000 C 
BRANCH  25  27
ATOM     26  C   UNL     1      47.893   1.759   6.951  0.00  0.00    +0.000 C 
ATOM     27  N   UNL     1      46.605   1.139   7.264  0.00  0.00    +0.000 NA
ATOM     28  C   UNL     1      46.805  -0.292   7.530  0.00  0.00    +0.000 C 
ENDBRANCH  25  27
ENDBRANCH  22  25
ENDBRANCH  16  22
ENDBRANCH   1  19
TORSDOF 7
ENDMDL
MODEL 6
REMARK VINA RESULT:    -5.720      3.470      8.053
REMARK INTER + INTRA:          -8.847
REMARK INTER:                  -8.344
REMARK INTRA:                  -0.503
REMARK UNBOUND:                -0.953
REMARK  Name = 
REMARK  9 active torsions:
REMARK  status: ('A' for Active; 'I' for Inactive)
REMARK    1  A    between atoms: C_1  and  N_2
REMARK    2  A    between atoms: N_2  and  C_3
REMARK    3  A    between atoms: N_2  and  C_4
REMARK    4  A    between atoms: C_4  and  C_5
REMARK    5  A    between atoms: C_5  and  O_6
REMARK    6  A    between atoms: C_5  and  C_7
REMARK    7  A    between atoms: C_10  and  C_11
REMARK    8  A    between atoms: C_11  and  N_12
REMARK    9  A    between atoms: C_17  and  C_18
REMARK                            x       y       z     vdW  Elec       q    Type
REMARK                         _______ _______ _______ _____ _____    ______ ____
ROOT
ATOM      1  C   UNL     1      48.762   7.804  13.372  0.00  0.00    +0.000 C 
ENDROOT
BRANCH   1   2
ATOM      2  N   UNL     1      48.719   7.669  14.822  0.00  0.00    +0.000 N 
ATOM      3  C   UNL     1      49.373   8.526  15.671  0.00  0.00    +0.000 A 
ATOM      4  N   UNL     1      49.549   7.996  16.857  0.00  0.00    +0.000 NA
ATOM      5  C   UNL     1      49.033   6.735  16.751  0.00  0.00    +0.000 A 
ATOM      6  C   UNL     1      49.183   5.666  17.628  0.00  0.00    +0.000 A 
ATOM      7  C   UNL     1      48.673   4.424  17.258  0.00  0.00    +0.000 A 
ATOM      8  C   UNL     1      47.842   4.294  16.129  0.00  0.00    +0.000 A 
ATOM      9  C   UNL     1      47.650   5.375  15.250  0.00  0.00    +0.000 A 
ATOM     10  C   UNL     1      48.356   6.551  15.545  0.00  0.00    +0.000 A 
BRANCH   7  11
ATOM     11  C   UNL     1      49.089   3.223  18.020  0.00  0.00    +0.000 C 
ATOM     12  N   UNL     1      48.568   3.100  19.281  0.00  0.00    +0.000 N 
ATOM     13  O   UNL     1      49.892   2.413  17.573  0.00  0.00    +0.000 OA
ATOM     14  H   UNL     1      48.069   3.856  19.744  0.00  0.00    +0.000 HD
ATOM     15  H   UNL     1      48.904   2.336  19.848  0.00  0.00    +0.000 HD
ENDBRANCH   7  11
ENDBRANCH   1   2
BRANCH   1  19
ATOM     16  C   UNL     1      44.848   6.880  11.679  0.00  0.00    +0.000 A 
ATOM     17  C   UNL     1      45.010   7.902  12.624  0.00  0.00    +0.000 A 
ATOM     18  C   UNL     1      46.268   8.212  13.153  0.00  0.00    +0.000 A 
ATOM     19  C   UNL     1      47.409   7.504  12.760  0.00  0.00    +0.000 A 
ATOM     20  C   UNL     1      47.256   6.479  11.815  0.00  0.00    +0.000 A 
ATOM     21  C   UNL     1      45.996   6.170  11.287  0.00  0.00    +0.000 A 
BRANCH  16  22
ATOM     22  C   UNL     1      43.498   6.495  11.081  0.00  0.00    +0.000 C 
BRANCH  22  23
ATOM     23  O   UNL     1      42.679   7.668  11.071  0.00  0.00    +0.000 OA
ATOM     24  H   UNL     1      41.861   7.437  10.602  0.00  0.00    +0.000 HD
ENDBRANCH  22  23
BRANCH  22  25
ATOM     25  C   UNL     1      42.766   5.309  11.794  0.00  0.00    +0.000 C 
BRANCH  25  27
ATOM     26  C   UNL     1      43.814   3.988  10.044  0.00  0.00    +0.000 C 
ATOM     27  N   UNL     1      43.005   3.945  11.264  0.00  0.00    +0.000 NA
ATOM     28  C   UNL     1      43.687   3.122  12.271  0.00  0.00    +0.000 C 
ENDBRANCH  25  27
ENDBRANCH  22  25
ENDBRANCH  16  22
ENDBRANCH   1  19
TORSDOF 7
ENDMDL
MODEL 7
REMARK VINA RESULT:    -5.682      1.632      2.223
REMARK INTER + INTRA:          -8.794
REMARK INTER:                  -8.118
REMARK INTRA:                  -0.677
REMARK UNBOUND:                -0.953
REMARK  Name = 
REMARK  9 active torsions:
REMARK  status: ('A' for Active; 'I' for Inactive)
REMARK    1  A    between atoms: C_1  and  N_2
REMARK    2  A    between atoms: N_2  and  C_3
REMARK    3  A    between atoms: N_2  and  C_4
REMARK    4  A    between atoms: C_4  and  C_5
REMARK    5  A    between atoms: C_5  and  O_6
REMARK    6  A    between atoms: C_5  and  C_7
REMARK    7  A    between atoms: C_10  and  C_11
REMARK    8  A    between atoms: C_11  and  N_12
REMARK    9  A    between atoms: C_17  and  C_18
REMARK                            x       y       z     vdW  Elec       q    Type
REMARK                         _______ _______ _______ _____ _____    ______ ____
ROOT
ATOM      1  C   UNL     1      44.441   6.922  11.830  0.00  0.00    +0.000 C 
ENDROOT
BRANCH   1   2
ATOM      2  N   UNL     1      44.318   5.471  11.803  0.00  0.00    +0.000 N 
ATOM      3  C   UNL     1      44.501   4.686  12.913  0.00  0.00    +0.000 A 
ATOM      4  N   UNL     1      44.758   3.441  12.593  0.00  0.00    +0.000 NA
ATOM      5  C   UNL     1      44.792   3.437  11.226  0.00  0.00    +0.000 A 
ATOM      6  C   UNL     1      45.266   2.442  10.379  0.00  0.00    +0.000 A 
ATOM      7  C   UNL     1      45.321   2.701   9.012  0.00  0.00    +0.000 A 
ATOM      8  C   UNL     1      44.718   3.854   8.472  0.00  0.00    +0.000 A 
ATOM      9  C   UNL     1      44.201   4.854   9.314  0.00  0.00    +0.000 A 
ATOM     10  C   UNL     1      44.357   4.651  10.693  0.00  0.00    +0.000 A 
BRANCH   7  11
ATOM     11  C   UNL     1      46.102   1.791   8.141  0.00  0.00    +0.000 C 
ATOM     12  N   UNL     1      46.839   2.389   7.154  0.00  0.00    +0.000 N 
ATOM     13  O   UNL     1      46.053   0.573   8.260  0.00  0.00    +0.000 OA
ATOM     14  H   UNL     1      46.734   3.371   6.909  0.00  0.00    +0.000 HD
ATOM     15  H   UNL     1      47.310   1.785   6.497  0.00  0.00    +0.000 HD
ENDBRANCH   7  11
ENDBRANCH   1   2
BRANCH   1  19
ATOM     16  C   UNL     1      48.494   8.191  12.830  0.00  0.00    +0.000 A 
ATOM     17  C   UNL     1      47.376   8.795  13.420  0.00  0.00    +0.000 A 
ATOM     18  C   UNL     1      46.075   8.375  13.115  0.00  0.00    +0.000 A 
ATOM     19  C   UNL     1      45.849   7.340  12.201  0.00  0.00    +0.000 A 
ATOM     20  C   UNL     1      46.963   6.731  11.605  0.00  0.00    +0.000 A 
ATOM     21  C   UNL     1      48.263   7.153  11.911  0.00  0.00    +0.000 A 
BRANCH  16  22
ATOM     22  C   UNL     1      49.930   8.619  13.119  0.00  0.00    +0.000 C 
BRANCH  22  23
ATOM     23  O   UNL     1      49.886   9.606  14.155  0.00  0.00    +0.000 OA
ATOM     24  H   UNL     1      50.668  10.170  14.040  0.00  0.00    +0.000 HD
ENDBRANCH  22  23
BRANCH  22  25
ATOM     25  C   UNL     1      50.732   9.143  11.882  0.00  0.00    +0.000 C 
BRANCH  25  27
ATOM     26  C   UNL     1      51.666   7.395  10.477  0.00  0.00    +0.000 C 
ATOM     27  N   UNL     1      51.957   8.398  11.501  0.00  0.00    +0.000 NA
ATOM     28  C   UNL     1      52.979   9.326  10.998  0.00  0.00    +0.000 C 
ENDBRANCH  25  27
ENDBRANCH  22  25
ENDBRANCH  16  22
ENDBRANCH   1  19
TORSDOF 7
ENDMDL
MODEL 8
REMARK VINA RESULT:    -5.673      2.290      7.807
REMARK INTER + INTRA:          -8.782
REMARK INTER:                  -8.030
REMARK INTRA:                  -0.753
REMARK UNBOUND:                -0.953
REMARK  Name = 
REMARK  9 active torsions:
REMARK  status: ('A' for Active; 'I' for Inactive)
REMARK    1  A    between atoms: C_1  and  N_2
REMARK    2  A    between atoms: N_2  and  C_3
REMARK    3  A    between atoms: N_2  and  C_4
REMARK    4  A    between atoms: C_4  and  C_5
REMARK    5  A    between atoms: C_5  and  O_6
REMARK    6  A    between atoms: C_5  and  C_7
REMARK    7  A    between atoms: C_10  and  C_11
REMARK    8  A    between atoms: C_11  and  N_12
REMARK    9  A    between atoms: C_17  and  C_18
REMARK                            x       y       z     vdW  Elec       q    Type
REMARK                         _______ _______ _______ _____ _____    ______ ____
ROOT
ATOM      1  C   UNL     1      46.155   8.881  12.796  0.00  0.00    +0.000 C 
ENDROOT
BRANCH   1   2
ATOM      2  N   UNL     1      47.609   8.940  12.878  0.00  0.00    +0.000 N 
ATOM      3  C   UNL     1      48.423   8.846  11.778  0.00  0.00    +0.000 A 
ATOM      4  N   UNL     1      49.645   8.503  12.105  0.00  0.00    +0.000 NA
ATOM      5  C   UNL     1      49.602   8.321  13.459  0.00  0.00    +0.000 A 
ATOM      6  C   UNL     1      50.549   7.716  14.277  0.00  0.00    +0.000 A 
ATOM      7  C   UNL     1      50.242   7.524  15.622  0.00  0.00    +0.000 A 
ATOM      8  C   UNL     1      49.096   8.112  16.191  0.00  0.00    +0.000 A 
ATOM      9  C   UNL     1      48.145   8.759  15.382  0.00  0.00    +0.000 A 
ATOM     10  C   UNL     1      48.388   8.745  14.000  0.00  0.00    +0.000 A 
BRANCH   7  11
ATOM     11  C   UNL     1      51.092   6.615  16.428  0.00  0.00    +0.000 C 
ATOM     12  N   UNL     1      52.287   7.131  16.855  0.00  0.00    +0.000 N 
ATOM     13  O   UNL     1      50.773   5.455  16.656  0.00  0.00    +0.000 OA
ATOM     14  H   UNL     1      52.660   8.011  16.508  0.00  0.00    +0.000 HD
ATOM     15  H   UNL     1      52.917   6.504  17.331  0.00  0.00    +0.000 HD
ENDBRANCH   7  11
ENDBRANCH   1   2
BRANCH   1  19
ATOM     16  C   UNL     1      44.738   4.824  12.042  0.00  0.00    +0.000 A 
ATOM     17  C   UNL     1      44.142   5.930  11.423  0.00  0.00    +0.000 A 
ATOM     18  C   UNL     1      44.608   7.231  11.649  0.00  0.00    +0.000 A 
ATOM     19  C   UNL     1      45.685   7.470  12.509  0.00  0.00    +0.000 A 
ATOM     20  C   UNL     1      46.287   6.368  13.134  0.00  0.00    +0.000 A 
ATOM     21  C   UNL     1      45.819   5.068  12.907  0.00  0.00    +0.000 A 
BRANCH  16  22
ATOM     22  C   UNL     1      44.260   3.389  11.839  0.00  0.00    +0.000 C 
BRANCH  22  23
ATOM     23  O   UNL     1      45.220   2.523  12.453  0.00  0.00    +0.000 OA
ATOM     24  H   UNL     1      45.290   2.794  13.383  0.00  0.00    +0.000 HD
ENDBRANCH  22  23
BRANCH  22  25
ATOM     25  C   UNL     1      44.004   2.975  10.352  0.00  0.00    +0.000 C 
BRANCH  25  27
ATOM     26  C   UNL     1      45.440   1.760   8.813  0.00  0.00    +0.000 C 
ATOM     27  N   UNL     1      45.151   3.062   9.415  0.00  0.00    +0.000 NA
ATOM     28  C   UNL     1      44.865   4.037   8.354  0.00  0.00    +0.000 C 
ENDBRANCH  25  27
ENDBRANCH  22  25
ENDBRANCH  16  22
ENDBRANCH   1  19
TORSDOF 7
ENDMDL
MODEL 9
REMARK VINA RESULT:    -5.587      2.269      3.539
REMARK INTER + INTRA:          -8.663
REMARK INTER:                  -7.890
REMARK INTRA:                  -0.774
REMARK UNBOUND:                -0.953
REMARK  Name = 
REMARK  9 active torsions:
REMARK  status: ('A' for Active; 'I' for Inactive)
REMARK    1  A    between atoms: C_1  and  N_2
REMARK    2  A    between atoms: N_2  and  C_3
REMARK    3  A    between atoms: N_2  and  C_4
REMARK    4  A    between atoms: C_4  and  C_5
REMARK    5  A    between atoms: C_5  and  O_6
REMARK    6  A    between atoms: C_5  and  C_7
REMARK    7  A    between atoms: C_10  and  C_11
REMARK    8  A    between atoms: C_11  and  N_12
REMARK    9  A    between atoms: C_17  and  C_18
REMARK                            x       y       z     vdW  Elec       q    Type
REMARK                         _______ _______ _______ _____ _____    ______ ____
ROOT
ATOM      1  C   UNL     1      45.756   7.430  13.173  0.00  0.00    +0.000 C 
ENDROOT
BRANCH   1   2
ATOM      2  N   UNL     1      45.500   5.996  13.149  0.00  0.00    +0.000 N 
ATOM      3  C   UNL     1      46.203   5.100  13.913  0.00  0.00    +0.000 A 
ATOM      4  N   UNL     1      46.111   3.880  13.441  0.00  0.00    +0.000 NA
ATOM      5  C   UNL     1      45.364   4.006  12.304  0.00  0.00    +0.000 A 
ATOM      6  C   UNL     1      45.175   3.075  11.289  0.00  0.00    +0.000 A 
ATOM      7  C   UNL     1      44.470   3.461  10.152  0.00  0.00    +0.000 A 
ATOM      8  C   UNL     1      43.783   4.689  10.113  0.00  0.00    +0.000 A 
ATOM      9  C   UNL     1      43.934   5.629  11.149  0.00  0.00    +0.000 A 
ATOM     10  C   UNL     1      44.824   5.287  12.178  0.00  0.00    +0.000 A 
BRANCH   7  11
ATOM     11  C   UNL     1      44.528   2.601   8.946  0.00  0.00    +0.000 C 
ATOM     12  N   UNL     1      44.462   3.249   7.742  0.00  0.00    +0.000 N 
ATOM     13  O   UNL     1      44.578   1.379   9.018  0.00  0.00    +0.000 OA
ATOM     14  H   UNL     1      44.215   4.233   7.660  0.00  0.00    +0.000 HD
ATOM     15  H   UNL     1      44.414   2.679   6.911  0.00  0.00    +0.000 HD
ENDBRANCH   7  11
ENDBRANCH   1   2
BRANCH   1  19
ATOM     16  C   UNL     1      50.004   8.182  12.523  0.00  0.00    +0.000 A 
ATOM     17  C   UNL     1      49.185   7.699  11.495  0.00  0.00    +0.000 A 
ATOM     18  C   UNL     1      47.817   7.476  11.696  0.00  0.00    +0.000 A 
ATOM     19  C   UNL     1      47.224   7.722  12.939  0.00  0.00    +0.000 A 
ATOM     20  C   UNL     1      48.037   8.206  13.974  0.00  0.00    +0.000 A 
ATOM     21  C   UNL     1      49.405   8.427  13.770  0.00  0.00    +0.000 A 
BRANCH  16  22
ATOM     22  C   UNL     1      51.501   8.430  12.358  0.00  0.00    +0.000 C 
BRANCH  22  23
ATOM     23  O   UNL     1      51.916   9.292  13.423  0.00  0.00    +0.000 OA
ATOM     24  H   UNL     1      51.452  10.136  13.300  0.00  0.00    +0.000 HD
ENDBRANCH  22  23
BRANCH  22  25
ATOM     25  C   UNL     1      51.933   9.010  10.970  0.00  0.00    +0.000 C 
BRANCH  25  27
ATOM     26  C   UNL     1      54.032   7.790  11.062  0.00  0.00    +0.000 C 
ATOM     27  N   UNL     1      52.942   8.245  10.198  0.00  0.00    +0.000 NA
ATOM     28  C   UNL     1      52.314   7.084   9.554  0.00  0.00    +0.000 C 
ENDBRANCH  25  27
ENDBRANCH  22  25
ENDBRANCH  16  22
ENDBRANCH   1  19
TORSDOF 7
ENDMDL
