MODEL 1
REMARK VINA RESULT:    -7.415      0.000      0.000
REMARK INTER + INTRA:          -9.598
REMARK INTER:                  -9.149
REMARK INTRA:                  -0.449
REMARK UNBOUND:                -0.449
REMARK  Name = 
REMARK  4 active torsions:
REMARK  status: ('A' for Active; 'I' for Inactive)
REMARK    1  A    between atoms: C_2  and  C_3
REMARK    2  A    between atoms: C_6  and  C_7
REMARK    3  A    between atoms: C_7  and  C_8
REMARK    4  A    between atoms: C_11  and  C_12
REMARK                            x       y       z     vdW  Elec       q    Type
REMARK                         _______ _______ _______ _____ _____    ______ ____
ROOT
ATOM      1  C   UNL     1      45.350   4.846  11.957  0.00  0.00    +0.000 A 
ATOM      2  C   UNL     1      45.847   4.260  13.131  0.00  0.00    +0.000 A 
ATOM      3  C   UNL     1      46.781   4.918  13.929  0.00  0.00    +0.000 A 
ATOM      4  C   UNL     1      47.234   6.199  13.591  0.00  0.00    +0.000 A 
ATOM      5  C   UNL     1      46.682   6.828  12.470  0.00  0.00    +0.000 A 
ATOM      6  C   UNL     1      45.745   6.163  11.673  0.00  0.00    +0.000 A 
ENDROOT
BRANCH   4   7
ATOM      7  C   UNL     1      48.282   6.908  14.427  0.00  0.00    +0.000 C 
ATOM      8  C   UNL     1      49.539   7.275  13.620  0.00  0.00    +0.000 C 
ATOM      9  C   UNL     1      50.612   7.852  14.534  0.00  0.00    +0.000 C 
ATOM     10  O   UNL     1      50.904   6.953  15.602  0.00  0.00    +0.000 OA
ATOM     11  C   UNL     1      49.772   6.722  16.439  0.00  0.00    +0.000 C 
ATOM     12  C   UNL     1      48.651   6.065  15.653  0.00  0.00    +0.000 C 
ENDBRANCH   4   7
BRANCH   1  13
ATOM     13  C   UNL     1      44.512   4.023  10.983  0.00  0.00    +0.000 C 
ATOM     14  C   UNL     1      43.392   3.154  11.556  0.00  0.00    +0.000 C 
ATOM     15  C   UNL     1      43.039   4.442  10.890  0.00  0.00    +0.000 C 
BRANCH  13  19
ATOM     16  C   UNL     1      46.530   2.709   7.413  0.00  0.00    +0.000 A 
ATOM     17  C   UNL     1      46.341   4.072   7.616  0.00  0.00    +0.000 A 
ATOM     18  C   UNL     1      45.657   4.504   8.756  0.00  0.00    +0.000 A 
ATOM     19  C   UNL     1      45.182   3.572   9.683  0.00  0.00    +0.000 A 
ATOM     20  N   UNL     1      45.359   2.238   9.472  0.00  0.00    +0.000 NA
ATOM     21  C   UNL     1      46.016   1.839   8.357  0.00  0.00    +0.000 A 
BRANCH  16  23
ATOM     22  N   UNL     1      47.826   1.819   5.358  0.00  0.00    +0.000 NA
ATOM     23  C   UNL     1      47.243   2.214   6.276  0.00  0.00    +0.000 C 
ENDBRANCH  16  23
ENDBRANCH  13  19
ENDBRANCH   1  13
TORSDOF 4
ENDMDL
MODEL 2
REMARK VINA RESULT:    -7.229      3.706      7.514
REMARK INTER + INTRA:          -9.368
REMARK INTER:                  -9.159
REMARK INTRA:                  -0.209
REMARK UNBOUND:                -0.449
REMARK  Name = 
REMARK  4 active torsions:
REMARK  status: ('A' for Active; 'I' for Inactive)
REMARK    1  A    between atoms: C_2  and  C_3
REMARK    2  A    between atoms: C_6  and  C_7
REMARK    3  A    between atoms: C_7  and  C_8
REMARK    4  A    between atoms: C_11  and  C_12
REMARK                            x       y       z     vdW  Elec       q    Type
REMARK                         _______ _______ _______ _____ _____    ______ ____
ROOT
ATOM      1  C   UNL     1      44.504   4.615  10.911  0.00  0.00    +0.000 A 
ATOM      2  C   UNL     1      45.200   5.295   9.901  0.00  0.00    +0.000 A 
ATOM      3  C   UNL     1      45.655   4.632   8.762  0.00  0.00    +0.000 A 
ATOM      4  C   UNL     1      45.409   3.266   8.585  0.00  0.00    +0.000 A 
ATOM      5  C   UNL     1      44.642   2.596   9.544  0.00  0.00    +0.000 A 
ATOM      6  C   UNL     1      44.189   3.265  10.685  0.00  0.00    +0.000 A 
ENDROOT
BRANCH   4   7
ATOM      7  C   UNL     1      45.936   2.524   7.372  0.00  0.00    +0.000 C 
ATOM      8  C   UNL     1      46.700   1.241   7.744  0.00  0.00    +0.000 C 
ATOM      9  C   UNL     1      47.328   0.615   6.506  0.00  0.00    +0.000 C 
ATOM     10  O   UNL     1      48.158   1.556   5.828  0.00  0.00    +0.000 OA
ATOM     11  C   UNL     1      47.422   2.682   5.355  0.00  0.00    +0.000 C 
ATOM     12  C   UNL     1      46.810   3.447   6.516  0.00  0.00    +0.000 C 
ENDBRANCH   4   7
BRANCH   1  13
ATOM     13  C   UNL     1      44.219   5.300  12.244  0.00  0.00    +0.000 C 
ATOM     14  C   UNL     1      42.761   5.583  12.607  0.00  0.00    +0.000 C 
ATOM     15  C   UNL     1      43.459   4.438  13.261  0.00  0.00    +0.000 C 
BRANCH  13  19
ATOM     16  C   UNL     1      47.284   7.972  13.661  0.00  0.00    +0.000 A 
ATOM     17  C   UNL     1      47.505   6.601  13.724  0.00  0.00    +0.000 A 
ATOM     18  C   UNL     1      46.502   5.727  13.297  0.00  0.00    +0.000 A 
ATOM     19  C   UNL     1      45.296   6.232  12.802  0.00  0.00    +0.000 A 
ATOM     20  N   UNL     1      45.080   7.576  12.755  0.00  0.00    +0.000 NA
ATOM     21  C   UNL     1      46.062   8.407  13.182  0.00  0.00    +0.000 A 
BRANCH  16  23
ATOM     22  N   UNL     1      49.092   9.676  14.385  0.00  0.00    +0.000 NA
ATOM     23  C   UNL     1      48.286   8.911  14.062  0.00  0.00    +0.000 C 
ENDBRANCH  16  23
ENDBRANCH  13  19
ENDBRANCH   1  13
TORSDOF 4
ENDMDL
MODEL 3
REMARK VINA RESULT:    -6.573      1.537      1.916
REMARK INTER + INTRA:          -8.559
REMARK INTER:                  -8.165
REMARK INTRA:                  -0.394
REMARK UNBOUND:                -0.449
REMARK  Name = 
REMARK  4 active torsions:
REMARK  status: ('A' for Active; 'I' for Inactive)
REMARK    1  A    between atoms: C_2  and  C_3
REMARK    2  A    between atoms: C_6  and  C_7
REMARK    3  A    between atoms: C_7  and  C_8
REMARK    4  A    between atoms: C_11  and  C_12
REMARK                            x       y       z     vdW  Elec       q    Type
REMARK                         _______ _______ _______ _____ _____    ______ ____
ROOT
ATOM      1  C   UNL     1      45.447   5.785  11.714  0.00  0.00    +0.000 A 
ATOM      2  C   UNL     1      45.345   7.152  11.418  0.00  0.00    +0.000 A 
ATOM      3  C   UNL     1      46.020   8.110  12.173  0.00  0.00    +0.000 A 
ATOM      4  C   UNL     1      46.842   7.728  13.240  0.00  0.00    +0.000 A 
ATOM      5  C   UNL     1      47.020   6.363  13.491  0.00  0.00    +0.000 A 
ATOM      6  C   UNL     1      46.339   5.408  12.730  0.00  0.00    +0.000 A 
ENDROOT
BRANCH   4   7
ATOM      7  C   UNL     1      47.549   8.761  14.096  0.00  0.00    +0.000 C 
ATOM      8  C   UNL     1      48.158   9.905  13.268  0.00  0.00    +0.000 C 
ATOM      9  C   UNL     1      48.976  10.833  14.157  0.00  0.00    +0.000 C 
ATOM     10  O   UNL     1      49.969  10.102  14.874  0.00  0.00    +0.000 OA
ATOM     11  C   UNL     1      49.399   9.135  15.753  0.00  0.00    +0.000 C 
ATOM     12  C   UNL     1      48.619   8.094  14.968  0.00  0.00    +0.000 C 
ENDBRANCH   4   7
BRANCH   1  13
ATOM     13  C   UNL     1      44.526   4.779  11.029  0.00  0.00    +0.000 C 
ATOM     14  C   UNL     1      43.453   4.097  11.878  0.00  0.00    +0.000 C 
ATOM     15  C   UNL     1      43.054   5.201  10.957  0.00  0.00    +0.000 C 
BRANCH  13  19
ATOM     16  C   UNL     1      46.219   2.587   7.732  0.00  0.00    +0.000 A 
ATOM     17  C   UNL     1      46.298   3.976   7.728  0.00  0.00    +0.000 A 
ATOM     18  C   UNL     1      45.722   4.696   8.779  0.00  0.00    +0.000 A 
ATOM     19  C   UNL     1      45.084   4.020   9.824  0.00  0.00    +0.000 A 
ATOM     20  N   UNL     1      44.999   2.661   9.816  0.00  0.00    +0.000 NA
ATOM     21  C   UNL     1      45.556   1.981   8.784  0.00  0.00    +0.000 A 
BRANCH  16  23
ATOM     22  N   UNL     1      47.291   1.159   5.859  0.00  0.00    +0.000 NA
ATOM     23  C   UNL     1      46.813   1.801   6.695  0.00  0.00    +0.000 C 
ENDBRANCH  16  23
ENDBRANCH  13  19
ENDBRANCH   1  13
TORSDOF 4
ENDMDL
MODEL 4
REMARK VINA RESULT:    -5.918      4.416      8.408
REMARK INTER + INTRA:          -7.750
REMARK INTER:                  -7.525
REMARK INTRA:                  -0.225
REMARK UNBOUND:                -0.449
REMARK  Name = 
REMARK  4 active torsions:
REMARK  status: ('A' for Active; 'I' for Inactive)
REMARK    1  A    between atoms: C_2  and  C_3
REMARK    2  A    between atoms: C_6  and  C_7
REMARK    3  A    between atoms: C_7  and  C_8
REMARK    4  A    between atoms: C_11  and  C_12
REMARK                            x       y       z     vdW  Elec       q    Type
REMARK                         _______ _______ _______ _____ _____    ______ ____
ROOT
ATOM      1  C   UNL     1      48.107   5.472  15.542  0.00  0.00    +0.000 A 
ATOM      2  C   UNL     1      47.206   4.398  15.502  0.00  0.00    +0.000 A 
ATOM      3  C   UNL     1      46.267   4.278  14.478  0.00  0.00    +0.000 A 
ATOM      4  C   UNL     1      46.213   5.221  13.444  0.00  0.00    +0.000 A 
ATOM      5  C   UNL     1      47.163   6.249  13.428  0.00  0.00    +0.000 A 
ATOM      6  C   UNL     1      48.102   6.364  14.458  0.00  0.00    +0.000 A 
ENDROOT
BRANCH   4   7
ATOM      7  C   UNL     1      45.170   5.127  12.349  0.00  0.00    +0.000 C 
ATOM      8  C   UNL     1      43.748   5.424  12.853  0.00  0.00    +0.000 C 
ATOM      9  C   UNL     1      42.726   5.175  11.751  0.00  0.00    +0.000 C 
ATOM     10  O   UNL     1      42.847   3.850  11.239  0.00  0.00    +0.000 OA
ATOM     11  C   UNL     1      44.120   3.617  10.640  0.00  0.00    +0.000 C 
ATOM     12  C   UNL     1      45.229   3.754  11.669  0.00  0.00    +0.000 C 
ENDBRANCH   4   7
BRANCH   1  13
ATOM     13  C   UNL     1      48.965   5.710  16.782  0.00  0.00    +0.000 C 
ATOM     14  C   UNL     1      49.178   7.152  17.240  0.00  0.00    +0.000 C 
ATOM     15  C   UNL     1      48.210   6.293  17.983  0.00  0.00    +0.000 C 
BRANCH  13  19
ATOM     16  C   UNL     1      51.969   2.793  17.787  0.00  0.00    +0.000 A 
ATOM     17  C   UNL     1      52.306   4.142  17.813  0.00  0.00    +0.000 A 
ATOM     18  C   UNL     1      51.345   5.093  17.456  0.00  0.00    +0.000 A 
ATOM     19  C   UNL     1      50.060   4.686  17.089  0.00  0.00    +0.000 A 
ATOM     20  N   UNL     1      49.739   3.362  17.053  0.00  0.00    +0.000 NA
ATOM     21  C   UNL     1      50.687   2.456  17.395  0.00  0.00    +0.000 A 
BRANCH  16  23
ATOM     22  N   UNL     1      53.665   0.965  18.481  0.00  0.00    +0.000 NA
ATOM     23  C   UNL     1      52.906   1.781  18.167  0.00  0.00    +0.000 C 
ENDBRANCH  16  23
ENDBRANCH  13  19
ENDBRANCH   1  13
TORSDOF 4
ENDMDL
MODEL 5
REMARK VINA RESULT:    -5.798      4.817      8.483
REMARK INTER + INTRA:          -7.602
REMARK INTER:                  -7.216
REMARK INTRA:                  -0.386
REMARK UNBOUND:                -0.449
REMARK  Name = 
REMARK  4 active torsions:
REMARK  status: ('A' for Active; 'I' for Inactive)
REMARK    1  A    between atoms: C_2  and  C_3
REMARK    2  A    between atoms: C_6  and  C_7
REMARK    3  A    between atoms: C_7  and  C_8
REMARK    4  A    between atoms: C_11  and  C_12
REMARK                            x       y       z     vdW  Elec       q    Type
REMARK                         _______ _______ _______ _____ _____    ______ ____
ROOT
ATOM      1  C   UNL     1      48.521   5.165  16.703  0.00  0.00    +0.000 A 
ATOM      2  C   UNL     1      48.789   6.249  15.854  0.00  0.00    +0.000 A 
ATOM      3  C   UNL     1      48.162   6.371  14.615  0.00  0.00    +0.000 A 
ATOM      4  C   UNL     1      47.225   5.421  14.192  0.00  0.00    +0.000 A 
ATOM      5  C   UNL     1      46.885   4.383  15.067  0.00  0.00    +0.000 A 
ATOM      6  C   UNL     1      47.518   4.265  16.308  0.00  0.00    +0.000 A 
ENDROOT
BRANCH   4   7
ATOM      7  C   UNL     1      46.567   5.519  12.829  0.00  0.00    +0.000 C 
ATOM      8  C   UNL     1      45.753   6.812  12.652  0.00  0.00    +0.000 C 
ATOM      9  C   UNL     1      45.000   6.792  11.328  0.00  0.00    +0.000 C 
ATOM     10  O   UNL     1      44.184   5.626  11.227  0.00  0.00    +0.000 OA
ATOM     11  C   UNL     1      44.952   4.426  11.247  0.00  0.00    +0.000 C 
ATOM     12  C   UNL     1      45.694   4.287  12.566  0.00  0.00    +0.000 C 
ENDBRANCH   4   7
BRANCH   1  13
ATOM     13  C   UNL     1      49.380   4.928  17.942  0.00  0.00    +0.000 C 
ATOM     14  C   UNL     1      49.705   6.128  18.830  0.00  0.00    +0.000 C 
ATOM     15  C   UNL     1      48.661   5.161  19.277  0.00  0.00    +0.000 C 
BRANCH  13  19
ATOM     16  C   UNL     1      52.279   1.754  17.680  0.00  0.00    +0.000 A 
ATOM     17  C   UNL     1      50.974   1.509  17.269  0.00  0.00    +0.000 A 
ATOM     18  C   UNL     1      50.019   2.524  17.382  0.00  0.00    +0.000 A 
ATOM     19  C   UNL     1      50.383   3.773  17.893  0.00  0.00    +0.000 A 
ATOM     20  N   UNL     1      51.660   4.004  18.305  0.00  0.00    +0.000 NA
ATOM     21  C   UNL     1      52.569   3.005  18.196  0.00  0.00    +0.000 A 
BRANCH  16  23
ATOM     22  N   UNL     1      54.124  -0.047  17.462  0.00  0.00    +0.000 NA
ATOM     23  C   UNL     1      53.300   0.759  17.563  0.00  0.00    +0.000 C 
ENDBRANCH  16  23
ENDBRANCH  13  19
ENDBRANCH   1  13
TORSDOF 4
ENDMDL
MODEL 6
REMARK VINA RESULT:    -5.529      4.105      8.325
REMARK INTER + INTRA:          -7.271
REMARK INTER:                  -7.064
REMARK INTRA:                  -0.207
REMARK UNBOUND:                -0.449
REMARK  Name = 
REMARK  4 active torsions:
REMARK  status: ('A' for Active; 'I' for Inactive)
REMARK    1  A    between atoms: C_2  and  C_3
REMARK    2  A    between atoms: C_6  and  C_7
REMARK    3  A    between atoms: C_7  and  C_8
REMARK    4  A    between atoms: C_11  and  C_12
REMARK                            x       y       z     vdW  Elec       q    Type
REMARK                         _______ _______ _______ _____ _____    ______ ____
ROOT
ATOM      1  C   UNL     1      48.125   6.945  13.795  0.00  0.00    +0.000 A 
ATOM      2  C   UNL     1      47.498   5.765  14.220  0.00  0.00    +0.000 A 
ATOM      3  C   UNL     1      46.540   5.129  13.432  0.00  0.00    +0.000 A 
ATOM      4  C   UNL     1      46.193   5.641  12.176  0.00  0.00    +0.000 A 
ATOM      5  C   UNL     1      46.874   6.769  11.704  0.00  0.00    +0.000 A 
ATOM      6  C   UNL     1      47.833   7.403  12.500  0.00  0.00    +0.000 A 
ENDROOT
BRANCH   4   7
ATOM      7  C   UNL     1      45.123   4.984  11.327  0.00  0.00    +0.000 C 
ATOM      8  C   UNL     1      44.792   3.554  11.788  0.00  0.00    +0.000 C 
ATOM      9  C   UNL     1      43.822   2.891  10.819  0.00  0.00    +0.000 C 
ATOM     10  O   UNL     1      44.335   2.921   9.488  0.00  0.00    +0.000 OA
ATOM     11  C   UNL     1      44.508   4.251   9.006  0.00  0.00    +0.000 C 
ATOM     12  C   UNL     1      45.527   4.998   9.849  0.00  0.00    +0.000 C 
ENDBRANCH   4   7
BRANCH   1  13
ATOM     13  C   UNL     1      48.992   7.746  14.761  0.00  0.00    +0.000 C 
ATOM     14  C   UNL     1      49.235   9.223  14.450  0.00  0.00    +0.000 C 
ATOM     15  C   UNL     1      48.254   8.860  15.514  0.00  0.00    +0.000 C 
BRANCH  13  19
ATOM     16  C   UNL     1      51.966   5.677  17.088  0.00  0.00    +0.000 A 
ATOM     17  C   UNL     1      52.370   6.700  16.237  0.00  0.00    +0.000 A 
ATOM     18  C   UNL     1      51.415   7.354  15.454  0.00  0.00    +0.000 A 
ATOM     19  C   UNL     1      50.069   6.986  15.539  0.00  0.00    +0.000 A 
ATOM     20  N   UNL     1      49.681   5.975  16.365  0.00  0.00    +0.000 NA
ATOM     21  C   UNL     1      50.623   5.347  17.109  0.00  0.00    +0.000 A 
BRANCH  16  23
ATOM     22  N   UNL     1      53.648   4.436  18.615  0.00  0.00    +0.000 NA
ATOM     23  C   UNL     1      52.899   4.992  17.929  0.00  0.00    +0.000 C 
ENDBRANCH  16  23
ENDBRANCH  13  19
ENDBRANCH   1  13
TORSDOF 4
ENDMDL
MODEL 7
REMARK VINA RESULT:    -5.355      3.178      5.593
REMARK INTER + INTRA:          -7.056
REMARK INTER:                  -6.760
REMARK INTRA:                  -0.296
REMARK UNBOUND:                -0.449
REMARK  Name = 
REMARK  4 active torsions:
REMARK  status: ('A' for Active; 'I' for Inactive)
REMARK    1  A    between atoms: C_2  and  C_3
REMARK    2  A    between atoms: C_6  and  C_7
REMARK    3  A    between atoms: C_7  and  C_8
REMARK    4  A    between atoms: C_11  and  C_12
REMARK                            x       y       z     vdW  Elec       q    Type
REMARK                         _______ _______ _______ _____ _____    ______ ____
ROOT
ATOM      1  C   UNL     1      48.492   7.652  14.291  0.00  0.00    +0.000 A 
ATOM      2  C   UNL     1      48.096   8.888  14.821  0.00  0.00    +0.000 A 
ATOM      3  C   UNL     1      48.102   9.123  16.196  0.00  0.00    +0.000 A 
ATOM      4  C   UNL     1      48.529   8.132  17.088  0.00  0.00    +0.000 A 
ATOM      5  C   UNL     1      49.008   6.926  16.565  0.00  0.00    +0.000 A 
ATOM      6  C   UNL     1      48.998   6.695  15.186  0.00  0.00    +0.000 A 
ENDROOT
BRANCH   4   7
ATOM      7  C   UNL     1      48.501   8.359  18.586  0.00  0.00    +0.000 C 
ATOM      8  C   UNL     1      47.825   7.207  19.350  0.00  0.00    +0.000 C 
ATOM      9  C   UNL     1      47.694   7.550  20.829  0.00  0.00    +0.000 C 
ATOM     10  O   UNL     1      47.005   8.786  21.003  0.00  0.00    +0.000 OA
ATOM     11  C   UNL     1      47.704   9.882  20.417  0.00  0.00    +0.000 C 
ATOM     12  C   UNL     1      47.827   9.696  18.914  0.00  0.00    +0.000 C 
ENDBRANCH   4   7
BRANCH   1  13
ATOM     13  C   UNL     1      48.260   7.338  12.816  0.00  0.00    +0.000 C 
ATOM     14  C   UNL     1      48.529   8.444  11.797  0.00  0.00    +0.000 C 
ATOM     15  C   UNL     1      49.526   7.345  11.951  0.00  0.00    +0.000 C 
BRANCH  13  19
ATOM     16  C   UNL     1      45.164   4.488  11.899  0.00  0.00    +0.000 A 
ATOM     17  C   UNL     1      45.927   4.307  13.047  0.00  0.00    +0.000 A 
ATOM     18  C   UNL     1      46.955   5.209  13.334  0.00  0.00    +0.000 A 
ATOM     19  C   UNL     1      47.201   6.286  12.478  0.00  0.00    +0.000 A 
ATOM     20  N   UNL     1      46.459   6.452  11.347  0.00  0.00    +0.000 NA
ATOM     21  C   UNL     1      45.473   5.562  11.082  0.00  0.00    +0.000 A 
BRANCH  16  23
ATOM     22  N   UNL     1      43.215   2.894  11.302  0.00  0.00    +0.000 NA
ATOM     23  C   UNL     1      44.084   3.610  11.571  0.00  0.00    +0.000 C 
ENDBRANCH  16  23
ENDBRANCH  13  19
ENDBRANCH   1  13
TORSDOF 4
ENDMDL
MODEL 8
REMARK VINA RESULT:    -5.253      3.460      5.224
REMARK INTER + INTRA:          -6.930
REMARK INTER:                  -6.825
REMARK INTRA:                  -0.105
REMARK UNBOUND:                -0.449
REMARK  Name = 
REMARK  4 active torsions:
REMARK  status: ('A' for Active; 'I' for Inactive)
REMARK    1  A    between atoms: C_2  and  C_3
REMARK    2  A    between atoms: C_6  and  C_7
REMARK    3  A    between atoms: C_7  and  C_8
REMARK    4  A    between atoms: C_11  and  C_12
REMARK                            x       y       z     vdW  Elec       q    Type
REMARK                         _______ _______ _______ _____ _____    ______ ____
ROOT
ATOM      1  C   UNL     1      47.351   8.245  12.059  0.00  0.00    +0.000 A 
ATOM      2  C   UNL     1      48.093   7.075  12.275  0.00  0.00    +0.000 A 
ATOM      3  C   UNL     1      49.473   7.045  12.077  0.00  0.00    +0.000 A 
ATOM      4  C   UNL     1      50.162   8.196  11.676  0.00  0.00    +0.000 A 
ATOM      5  C   UNL     1      49.445   9.390  11.542  0.00  0.00    +0.000 A 
ATOM      6  C   UNL     1      48.062   9.414  11.741  0.00  0.00    +0.000 A 
ENDROOT
BRANCH   4   7
ATOM      7  C   UNL     1      51.656   8.167  11.416  0.00  0.00    +0.000 C 
ATOM      8  C   UNL     1      52.258   9.573  11.250  0.00  0.00    +0.000 C 
ATOM      9  C   UNL     1      53.725   9.482  10.849  0.00  0.00    +0.000 C 
ATOM     10  O   UNL     1      53.880   8.690   9.673  0.00  0.00    +0.000 OA
ATOM     11  C   UNL     1      53.453   7.344   9.868  0.00  0.00    +0.000 C 
ATOM     12  C   UNL     1      51.970   7.295  10.196  0.00  0.00    +0.000 C 
ENDBRANCH   4   7
BRANCH   1  13
ATOM     13  C   UNL     1      45.826   8.199  12.057  0.00  0.00    +0.000 C 
ATOM     14  C   UNL     1      45.075   9.280  12.834  0.00  0.00    +0.000 C 
ATOM     15  C   UNL     1      45.149   9.378  11.346  0.00  0.00    +0.000 C 
BRANCH  13  19
ATOM     16  C   UNL     1      44.071   4.281  11.721  0.00  0.00    +0.000 A 
ATOM     17  C   UNL     1      44.756   4.807  10.632  0.00  0.00    +0.000 A 
ATOM     18  C   UNL     1      45.300   6.092  10.721  0.00  0.00    +0.000 A 
ATOM     19  C   UNL     1      45.162   6.829  11.901  0.00  0.00    +0.000 A 
ATOM     20  N   UNL     1      44.479   6.314  12.961  0.00  0.00    +0.000 NA
ATOM     21  C   UNL     1      43.952   5.070  12.851  0.00  0.00    +0.000 A 
BRANCH  16  23
ATOM     22  N   UNL     1      43.074   1.894  11.664  0.00  0.00    +0.000 NA
ATOM     23  C   UNL     1      43.516   2.963  11.692  0.00  0.00    +0.000 C 
ENDBRANCH  16  23
ENDBRANCH  13  19
ENDBRANCH   1  13
TORSDOF 4
ENDMDL
MODEL 9
REMARK VINA RESULT:    -5.185      4.462      7.316
REMARK INTER + INTRA:          -6.845
REMARK INTER:                  -6.445
REMARK INTRA:                  -0.400
REMARK UNBOUND:                -0.449
REMARK  Name = 
REMARK  4 active torsions:
REMARK  status: ('A' for Active; 'I' for Inactive)
REMARK    1  A    between atoms: C_2  and  C_3
REMARK    2  A    between atoms: C_6  and  C_7
REMARK    3  A    between atoms: C_7  and  C_8
REMARK    4  A    between atoms: C_11  and  C_12
REMARK                            x       y       z     vdW  Elec       q    Type
REMARK                         _______ _______ _______ _____ _____    ______ ____
ROOT
ATOM      1  C   UNL     1      48.755   8.154  12.619  0.00  0.00    +0.000 A 
ATOM      2  C   UNL     1      47.526   8.587  12.100  0.00  0.00    +0.000 A 
ATOM      3  C   UNL     1      46.458   7.706  11.936  0.00  0.00    +0.000 A 
ATOM      4  C   UNL     1      46.577   6.362  12.309  0.00  0.00    +0.000 A 
ATOM      5  C   UNL     1      47.769   5.938  12.908  0.00  0.00    +0.000 A 
ATOM      6  C   UNL     1      48.836   6.826  13.069  0.00  0.00    +0.000 A 
ENDROOT
BRANCH   4   7
ATOM      7  C   UNL     1      45.439   5.384  12.096  0.00  0.00    +0.000 C 
ATOM      8  C   UNL     1      45.002   5.288  10.624  0.00  0.00    +0.000 C 
ATOM      9  C   UNL     1      43.768   4.406  10.488  0.00  0.00    +0.000 C 
ATOM     10  O   UNL     1      42.716   4.875  11.330  0.00  0.00    +0.000 OA
ATOM     11  C   UNL     1      43.068   4.829  12.710  0.00  0.00    +0.000 C 
ATOM     12  C   UNL     1      44.248   5.743  12.992  0.00  0.00    +0.000 C 
ENDBRANCH   4   7
BRANCH   1  13
ATOM     13  C   UNL     1      49.974   9.071  12.576  0.00  0.00    +0.000 C 
ATOM     14  C   UNL     1      49.837  10.474  13.166  0.00  0.00    +0.000 C 
ATOM     15  C   UNL     1      50.559   9.428  13.948  0.00  0.00    +0.000 C 
BRANCH  13  19
ATOM     16  C   UNL     1      52.672   8.536   9.262  0.00  0.00    +0.000 A 
ATOM     17  C   UNL     1      52.149   7.412   9.893  0.00  0.00    +0.000 A 
ATOM     18  C   UNL     1      51.299   7.577  10.990  0.00  0.00    +0.000 A 
ATOM     19  C   UNL     1      50.973   8.861  11.436  0.00  0.00    +0.000 A 
ATOM     20  N   UNL     1      51.498   9.958  10.822  0.00  0.00    +0.000 NA
ATOM     21  C   UNL     1      52.326   9.777   9.766  0.00  0.00    +0.000 A 
BRANCH  16  23
ATOM     22  N   UNL     1      54.221   8.327   7.200  0.00  0.00    +0.000 NA
ATOM     23  C   UNL     1      53.526   8.424   8.121  0.00  0.00    +0.000 C 
ENDBRANCH  16  23
ENDBRANCH  13  19
ENDBRANCH   1  13
TORSDOF 4
ENDMDL
