MODEL 1
REMARK VINA RESULT:    -8.139      0.000      0.000
REMARK INTER + INTRA:         -13.531
REMARK INTER:                 -12.184
REMARK INTRA:                  -1.346
REMARK UNBOUND:                -1.346
REMARK  Name = 
REMARK  9 active torsions:
REMARK  status: ('A' for Active; 'I' for Inactive)
REMARK    1  A    between atoms: N_1  and  C_2
REMARK    2  A    between atoms: C_2  and  C_3
REMARK    3  A    between atoms: C_2  and  C_24
REMARK    4  A    between atoms: C_3  and  C_4
REMARK    5  A    between atoms: C_7  and  C_8
REMARK    6  A    between atoms: C_8  and  N_9
REMARK    7  A    between atoms: C_10  and  C_12
REMARK    8  A    between atoms: N_26  and  C_27
REMARK    9  A    between atoms: C_27  and  C_28
REMARK                            x       y       z     vdW  Elec       q    Type
REMARK                         _______ _______ _______ _____ _____    ______ ____
ROOT
ATOM      1  C   UNL     1      44.736   6.687  11.550  0.00  0.00    +0.000 A 
ATOM      2  C   UNL     1      44.837   7.927  12.193  0.00  0.00    +0.000 A 
ATOM      3  C   UNL     1      46.061   8.377  12.705  0.00  0.00    +0.000 A 
ATOM      4  C   UNL     1      47.215   7.589  12.591  0.00  0.00    +0.000 A 
ATOM      5  C   UNL     1      47.106   6.342  11.958  0.00  0.00    +0.000 A 
ATOM      6  C   UNL     1      45.887   5.898  11.436  0.00  0.00    +0.000 A 
ENDROOT
BRANCH   1   7
ATOM      7  C   UNL     1      43.396   6.215  11.030  0.00  0.00    +0.000 C 
BRANCH   7   8
ATOM      8  C   UNL     1      42.686   5.143  11.889  0.00  0.00    +0.000 C 
BRANCH   8   9
ATOM      9  C   UNL     1      43.382   3.781  11.659  0.00  0.00    +0.000 C 
ATOM     10  O   UNL     1      43.642   3.012  12.583  0.00  0.00    +0.000 OA
ATOM     11  N   UNL     1      43.735   3.509  10.359  0.00  0.00    +0.000 N 
ATOM     12  H   UNL     1      43.285   4.054   9.630  0.00  0.00    +0.000 HD
BRANCH  11  13
ATOM     13  C   UNL     1      44.391   2.266  10.028  0.00  0.00    +0.000 C 
BRANCH  13  14
ATOM     14  C   UNL     1      45.292   2.469   8.873  0.00  0.00    +0.000 A 
ATOM     15  C   UNL     1      45.566   3.559   8.072  0.00  0.00    +0.000 A 
ATOM     16  C   UNL     1      46.574   3.148   7.168  0.00  0.00    +0.000 A 
ATOM     17  C   UNL     1      46.844   1.834   7.469  0.00  0.00    +0.000 A 
ATOM     18  O   UNL     1      46.066   1.409   8.498  0.00  0.00    +0.000 OA
ENDBRANCH  13  14
ENDBRANCH  11  13
ENDBRANCH   8   9
BRANCH   8  19
ATOM     19  N   UNL     1      42.687   5.455  13.341  0.00  0.00    +0.000 NA
ATOM     20  H   UNL     1      43.510   6.029  13.533  0.00  0.00    +0.000 HD
ATOM     21  H   UNL     1      42.840   4.587  13.856  0.00  0.00    +0.000 HD
ENDBRANCH   8  19
ENDBRANCH   7   8
ENDBRANCH   1   7
BRANCH   4  22
ATOM     22  C   UNL     1      48.555   8.035  13.130  0.00  0.00    +0.000 C 
BRANCH  22  23
ATOM     23  N   UNL     1      48.937   7.309  14.316  0.00  0.00    +0.000 N 
ATOM     24  C   UNL     1      48.694   7.810  15.574  0.00  0.00    +0.000 C 
ATOM     25  O   UNL     1      48.123   8.873  15.762  0.00  0.00    +0.000 OA
ATOM     26  H   UNL     1      49.709   6.661  14.212  0.00  0.00    +0.000 HD
BRANCH  24  27
ATOM     27  C   UNL     1      49.121   6.949  16.688  0.00  0.00    +0.000 A 
ATOM     28  C   UNL     1      49.999   7.435  17.647  0.00  0.00    +0.000 A 
ATOM     29  S   UNL     1      50.381   6.298  18.862  0.00  0.00    +0.000 S 
ATOM     30  C   UNL     1      49.419   5.097  18.126  0.00  0.00    +0.000 A 
ATOM     31  N   UNL     1      49.334   3.847  18.646  0.00  0.00    +0.000 NA
ATOM     32  C   UNL     1      48.583   3.042  17.968  0.00  0.00    +0.000 A 
ATOM     33  N   UNL     1      47.895   3.379  16.832  0.00  0.00    +0.000 N 
ATOM     34  C   UNL     1      47.913   4.648  16.299  0.00  0.00    +0.000 A 
ATOM     35  O   UNL     1      47.221   4.938  15.328  0.00  0.00    +0.000 OA
ATOM     36  C   UNL     1      48.776   5.579  16.996  0.00  0.00    +0.000 A 
ATOM     37  H   UNL     1      47.300   2.713  16.368  0.00  0.00    +0.000 HD
ENDBRANCH  24  27
ENDBRANCH  22  23
ENDBRANCH   4  22
TORSDOF 9
ENDMDL
MODEL 2
REMARK VINA RESULT:    -7.757      1.933      2.489
REMARK INTER + INTRA:         -12.958
REMARK INTER:                 -11.987
REMARK INTRA:                  -0.971
REMARK UNBOUND:                -1.346
REMARK  Name = 
REMARK  9 active torsions:
REMARK  status: ('A' for Active; 'I' for Inactive)
REMARK    1  A    between atoms: N_1  and  C_2
REMARK    2  A    between atoms: C_2  and  C_3
REMARK    3  A    between atoms: C_2  and  C_24
REMARK    4  A    between atoms: C_3  and  C_4
REMARK    5  A    between atoms: C_7  and  C_8
REMARK    6  A    between atoms: C_8  and  N_9
REMARK    7  A    between atoms: C_10  and  C_12
REMARK    8  A    between atoms: N_26  and  C_27
REMARK    9  A    between atoms: C_27  and  C_28
REMARK                            x       y       z     vdW  Elec       q    Type
REMARK                         _______ _______ _______ _____ _____    ______ ____
ROOT
ATOM      1  C   UNL     1      44.912   6.656  11.801  0.00  0.00    +0.000 A 
ATOM      2  C   UNL     1      44.936   7.961  12.309  0.00  0.00    +0.000 A 
ATOM      3  C   UNL     1      46.010   8.414  13.085  0.00  0.00    +0.000 A 
ATOM      4  C   UNL     1      47.088   7.565  13.377  0.00  0.00    +0.000 A 
ATOM      5  C   UNL     1      47.053   6.255  12.878  0.00  0.00    +0.000 A 
ATOM      6  C   UNL     1      45.986   5.806  12.093  0.00  0.00    +0.000 A 
ENDROOT
BRANCH   1   7
ATOM      7  C   UNL     1      43.726   6.185  10.989  0.00  0.00    +0.000 C 
BRANCH   7   8
ATOM      8  C   UNL     1      42.795   5.171  11.692  0.00  0.00    +0.000 C 
BRANCH   8   9
ATOM      9  C   UNL     1      43.342   3.745  11.453  0.00  0.00    +0.000 C 
ATOM     10  O   UNL     1      43.332   2.882  12.329  0.00  0.00    +0.000 OA
ATOM     11  N   UNL     1      43.885   3.519  10.210  0.00  0.00    +0.000 N 
ATOM     12  H   UNL     1      43.646   4.174   9.471  0.00  0.00    +0.000 HD
BRANCH  11  13
ATOM     13  C   UNL     1      44.426   2.224   9.876  0.00  0.00    +0.000 C 
BRANCH  13  14
ATOM     14  C   UNL     1      45.365   2.352   8.741  0.00  0.00    +0.000 A 
ATOM     15  C   UNL     1      45.678   3.393   7.891  0.00  0.00    +0.000 A 
ATOM     16  C   UNL     1      46.708   2.921   7.042  0.00  0.00    +0.000 A 
ATOM     17  C   UNL     1      46.951   1.623   7.423  0.00  0.00    +0.000 A 
ATOM     18  O   UNL     1      46.136   1.264   8.449  0.00  0.00    +0.000 OA
ENDBRANCH  13  14
ENDBRANCH  11  13
ENDBRANCH   8   9
BRANCH   8  19
ATOM     19  N   UNL     1      42.662   5.406  13.153  0.00  0.00    +0.000 NA
ATOM     20  H   UNL     1      42.939   6.372  13.336  0.00  0.00    +0.000 HD
ATOM     21  H   UNL     1      43.354   4.832  13.635  0.00  0.00    +0.000 HD
ENDBRANCH   8  19
ENDBRANCH   7   8
ENDBRANCH   1   7
BRANCH   4  22
ATOM     22  C   UNL     1      48.267   8.012  14.211  0.00  0.00    +0.000 C 
BRANCH  22  23
ATOM     23  N   UNL     1      48.134   7.631  15.595  0.00  0.00    +0.000 N 
ATOM     24  C   UNL     1      49.050   6.806  16.205  0.00  0.00    +0.000 C 
ATOM     25  O   UNL     1      50.034   6.372  15.626  0.00  0.00    +0.000 OA
ATOM     26  H   UNL     1      47.193   7.645  15.972  0.00  0.00    +0.000 HD
BRANCH  24  27
ATOM     27  C   UNL     1      48.794   6.521  17.625  0.00  0.00    +0.000 A 
ATOM     28  C   UNL     1      49.014   5.247  18.131  0.00  0.00    +0.000 A 
ATOM     29  S   UNL     1      48.665   5.104  19.796  0.00  0.00    +0.000 S 
ATOM     30  C   UNL     1      48.165   6.731  19.894  0.00  0.00    +0.000 A 
ATOM     31  N   UNL     1      47.699   7.256  21.055  0.00  0.00    +0.000 NA
ATOM     32  C   UNL     1      47.339   8.496  20.969  0.00  0.00    +0.000 A 
ATOM     33  N   UNL     1      47.423   9.261  19.836  0.00  0.00    +0.000 N 
ATOM     34  C   UNL     1      47.936   8.784  18.650  0.00  0.00    +0.000 A 
ATOM     35  O   UNL     1      48.073   9.519  17.677  0.00  0.00    +0.000 OA
ATOM     36  C   UNL     1      48.313   7.385  18.679  0.00  0.00    +0.000 A 
ATOM     37  H   UNL     1      47.156  10.232  19.842  0.00  0.00    +0.000 HD
ENDBRANCH  24  27
ENDBRANCH  22  23
ENDBRANCH   4  22
TORSDOF 9
ENDMDL
MODEL 3
REMARK VINA RESULT:    -7.673      2.800      3.738
REMARK INTER + INTRA:         -12.833
REMARK INTER:                 -11.595
REMARK INTRA:                  -1.238
REMARK UNBOUND:                -1.346
REMARK  Name = 
REMARK  9 active torsions:
REMARK  status: ('A' for Active; 'I' for Inactive)
REMARK    1  A    between atoms: N_1  and  C_2
REMARK    2  A    between atoms: C_2  and  C_3
REMARK    3  A    between atoms: C_2  and  C_24
REMARK    4  A    between atoms: C_3  and  C_4
REMARK    5  A    between atoms: C_7  and  C_8
REMARK    6  A    between atoms: C_8  and  N_9
REMARK    7  A    between atoms: C_10  and  C_12
REMARK    8  A    between atoms: N_26  and  C_27
REMARK    9  A    between atoms: C_27  and  C_28
REMARK                            x       y       z     vdW  Elec       q    Type
REMARK                         _______ _______ _______ _____ _____    ______ ____
ROOT
ATOM      1  C   UNL     1      46.778   4.636  14.032  0.00  0.00    +0.000 A 
ATOM      2  C   UNL     1      46.793   3.958  15.258  0.00  0.00    +0.000 A 
ATOM      3  C   UNL     1      47.533   4.445  16.343  0.00  0.00    +0.000 A 
ATOM      4  C   UNL     1      48.282   5.624  16.224  0.00  0.00    +0.000 A 
ATOM      5  C   UNL     1      48.275   6.292  14.990  0.00  0.00    +0.000 A 
ATOM      6  C   UNL     1      47.527   5.812  13.911  0.00  0.00    +0.000 A 
ENDROOT
BRANCH   1   7
ATOM      7  C   UNL     1      45.992   4.072  12.869  0.00  0.00    +0.000 C 
BRANCH   7   8
ATOM      8  C   UNL     1      44.948   5.026  12.243  0.00  0.00    +0.000 C 
BRANCH   8   9
ATOM      9  C   UNL     1      44.327   4.339  11.004  0.00  0.00    +0.000 C 
ATOM     10  O   UNL     1      43.335   3.617  11.082  0.00  0.00    +0.000 OA
ATOM     11  N   UNL     1      44.987   4.551   9.817  0.00  0.00    +0.000 N 
ATOM     12  H   UNL     1      45.634   5.333   9.777  0.00  0.00    +0.000 HD
BRANCH  11  13
ATOM     13  C   UNL     1      44.497   3.958   8.596  0.00  0.00    +0.000 C 
BRANCH  13  14
ATOM     14  C   UNL     1      45.562   3.141   7.974  0.00  0.00    +0.000 A 
ATOM     15  C   UNL     1      46.514   3.409   7.012  0.00  0.00    +0.000 A 
ATOM     16  C   UNL     1      47.295   2.236   6.884  0.00  0.00    +0.000 A 
ATOM     17  C   UNL     1      46.766   1.327   7.769  0.00  0.00    +0.000 A 
ATOM     18  O   UNL     1      45.707   1.864   8.431  0.00  0.00    +0.000 OA
ENDBRANCH  13  14
ENDBRANCH  11  13
ENDBRANCH   8   9
BRANCH   8  19
ATOM     19  N   UNL     1      43.864   5.413  13.182  0.00  0.00    +0.000 NA
ATOM     20  H   UNL     1      43.660   4.601  13.770  0.00  0.00    +0.000 HD
ATOM     21  H   UNL     1      43.013   5.574  12.642  0.00  0.00    +0.000 HD
ENDBRANCH   8  19
ENDBRANCH   7   8
ENDBRANCH   1   7
BRANCH   4  22
ATOM     22  C   UNL     1      49.095   6.185  17.368  0.00  0.00    +0.000 C 
BRANCH  22  23
ATOM     23  N   UNL     1      50.119   5.272  17.811  0.00  0.00    +0.000 N 
ATOM     24  C   UNL     1      51.405   5.343  17.327  0.00  0.00    +0.000 C 
ATOM     25  O   UNL     1      51.760   6.191  16.522  0.00  0.00    +0.000 OA
ATOM     26  H   UNL     1      49.797   4.373  18.151  0.00  0.00    +0.000 HD
BRANCH  24  27
ATOM     27  C   UNL     1      52.344   4.359  17.886  0.00  0.00    +0.000 A 
ATOM     28  C   UNL     1      53.484   4.786  18.555  0.00  0.00    +0.000 A 
ATOM     29  S   UNL     1      54.454   3.507  19.135  0.00  0.00    +0.000 S 
ATOM     30  C   UNL     1      53.407   2.333  18.476  0.00  0.00    +0.000 A 
ATOM     31  N   UNL     1      53.680   1.007  18.583  0.00  0.00    +0.000 NA
ATOM     32  C   UNL     1      52.805   0.241  18.017  0.00  0.00    +0.000 A 
ATOM     33  N   UNL     1      51.676   0.677  17.375  0.00  0.00    +0.000 N 
ATOM     34  C   UNL     1      51.336   2.008  17.287  0.00  0.00    +0.000 A 
ATOM     35  O   UNL     1      50.277   2.359  16.776  0.00  0.00    +0.000 OA
ATOM     36  C   UNL     1      52.306   2.915  17.866  0.00  0.00    +0.000 A 
ATOM     37  H   UNL     1      51.016   0.025  16.983  0.00  0.00    +0.000 HD
ENDBRANCH  24  27
ENDBRANCH  22  23
ENDBRANCH   4  22
TORSDOF 9
ENDMDL
MODEL 4
REMARK VINA RESULT:    -7.076      3.008      4.138
REMARK INTER + INTRA:         -11.939
REMARK INTER:                 -11.020
REMARK INTRA:                  -0.919
REMARK UNBOUND:                -1.346
REMARK  Name = 
REMARK  9 active torsions:
REMARK  status: ('A' for Active; 'I' for Inactive)
REMARK    1  A    between atoms: N_1  and  C_2
REMARK    2  A    between atoms: C_2  and  C_3
REMARK    3  A    between atoms: C_2  and  C_24
REMARK    4  A    between atoms: C_3  and  C_4
REMARK    5  A    between atoms: C_7  and  C_8
REMARK    6  A    between atoms: C_8  and  N_9
REMARK    7  A    between atoms: C_10  and  C_12
REMARK    8  A    between atoms: N_26  and  C_27
REMARK    9  A    between atoms: C_27  and  C_28
REMARK                            x       y       z     vdW  Elec       q    Type
REMARK                         _______ _______ _______ _____ _____    ______ ____
ROOT
ATOM      1  C   UNL     1      47.005   5.887  13.164  0.00  0.00    +0.000 A 
ATOM      2  C   UNL     1      46.779   4.791  14.007  0.00  0.00    +0.000 A 
ATOM      3  C   UNL     1      47.345   4.736  15.287  0.00  0.00    +0.000 A 
ATOM      4  C   UNL     1      48.158   5.779  15.753  0.00  0.00    +0.000 A 
ATOM      5  C   UNL     1      48.392   6.868  14.901  0.00  0.00    +0.000 A 
ATOM      6  C   UNL     1      47.817   6.928  13.627  0.00  0.00    +0.000 A 
ENDROOT
BRANCH   1   7
ATOM      7  C   UNL     1      46.403   5.906  11.776  0.00  0.00    +0.000 C 
BRANCH   7   8
ATOM      8  C   UNL     1      44.882   6.176  11.712  0.00  0.00    +0.000 C 
BRANCH   8   9
ATOM      9  C   UNL     1      44.217   5.069  10.860  0.00  0.00    +0.000 C 
ATOM     10  O   UNL     1      43.074   5.176  10.421  0.00  0.00    +0.000 OA
ATOM     11  N   UNL     1      44.972   3.936  10.668  0.00  0.00    +0.000 N 
ATOM     12  H   UNL     1      45.970   4.006  10.840  0.00  0.00    +0.000 HD
BRANCH  11  13
ATOM     13  C   UNL     1      44.452   2.838   9.890  0.00  0.00    +0.000 C 
BRANCH  13  14
ATOM     14  C   UNL     1      45.330   2.590   8.726  0.00  0.00    +0.000 A 
ATOM     15  C   UNL     1      45.716   3.370   7.655  0.00  0.00    +0.000 A 
ATOM     16  C   UNL     1      46.628   2.593   6.902  0.00  0.00    +0.000 A 
ATOM     17  C   UNL     1      46.734   1.388   7.556  0.00  0.00    +0.000 A 
ATOM     18  O   UNL     1      45.943   1.373   8.661  0.00  0.00    +0.000 OA
ENDBRANCH  13  14
ENDBRANCH  11  13
ENDBRANCH   8   9
BRANCH   8  19
ATOM     19  N   UNL     1      44.233   6.222  13.047  0.00  0.00    +0.000 NA
ATOM     20  H   UNL     1      44.757   6.885  13.622  0.00  0.00    +0.000 HD
ATOM     21  H   UNL     1      44.361   5.315  13.499  0.00  0.00    +0.000 HD
ENDBRANCH   8  19
ENDBRANCH   7   8
ENDBRANCH   1   7
BRANCH   4  22
ATOM     22  C   UNL     1      48.789   5.760  17.127  0.00  0.00    +0.000 C 
BRANCH  22  23
ATOM     23  N   UNL     1      49.948   4.905  17.185  0.00  0.00    +0.000 N 
ATOM     24  C   UNL     1      49.917   3.696  17.839  0.00  0.00    +0.000 C 
ATOM     25  O   UNL     1      48.911   3.265  18.381  0.00  0.00    +0.000 OA
ATOM     26  H   UNL     1      50.846   5.368  17.099  0.00  0.00    +0.000 HD
BRANCH  24  27
ATOM     27  C   UNL     1      51.169   2.925  17.798  0.00  0.00    +0.000 A 
ATOM     28  C   UNL     1      51.166   1.616  17.334  0.00  0.00    +0.000 A 
ATOM     29  S   UNL     1      52.706   0.880  17.356  0.00  0.00    +0.000 S 
ATOM     30  C   UNL     1      53.429   2.271  18.029  0.00  0.00    +0.000 A 
ATOM     31  N   UNL     1      54.749   2.299  18.339  0.00  0.00    +0.000 NA
ATOM     32  C   UNL     1      55.148   3.414  18.859  0.00  0.00    +0.000 A 
ATOM     33  N   UNL     1      54.352   4.508  19.077  0.00  0.00    +0.000 N 
ATOM     34  C   UNL     1      53.019   4.541  18.730  0.00  0.00    +0.000 A 
ATOM     35  O   UNL     1      52.355   5.564  18.863  0.00  0.00    +0.000 OA
ATOM     36  C   UNL     1      52.511   3.299  18.184  0.00  0.00    +0.000 A 
ATOM     37  H   UNL     1      54.731   5.360  19.456  0.00  0.00    +0.000 HD
ENDBRANCH  24  27
ENDBRANCH  22  23
ENDBRANCH   4  22
TORSDOF 9
ENDMDL
MODEL 5
REMARK VINA RESULT:    -6.897      3.900      5.046
REMARK INTER + INTRA:         -11.670
REMARK INTER:                 -10.518
REMARK INTRA:                  -1.152
REMARK UNBOUND:                -1.346
REMARK  Name = 
REMARK  9 active torsions:
REMARK  status: ('A' for Active; 'I' for Inactive)
REMARK    1  A    between atoms: N_1  and  C_2
REMARK    2  A    between atoms: C_2  and  C_3
REMARK    3  A    between atoms: C_2  and  C_24
REMARK    4  A    between atoms: C_3  and  C_4
REMARK    5  A    between atoms: C_7  and  C_8
REMARK    6  A    between atoms: C_8  and  N_9
REMARK    7  A    between atoms: C_10  and  C_12
REMARK    8  A    between atoms: N_26  and  C_27
REMARK    9  A    between atoms: C_27  and  C_28
REMARK                            x       y       z     vdW  Elec       q    Type
REMARK                         _______ _______ _______ _____ _____    ______ ____
ROOT
ATOM      1  C   UNL     1      45.591   6.765  12.630  0.00  0.00    +0.000 A 
ATOM      2  C   UNL     1      46.899   6.310  12.421  0.00  0.00    +0.000 A 
ATOM      3  C   UNL     1      47.945   7.209  12.175  0.00  0.00    +0.000 A 
ATOM      4  C   UNL     1      47.703   8.589  12.126  0.00  0.00    +0.000 A 
ATOM      5  C   UNL     1      46.388   9.039  12.323  0.00  0.00    +0.000 A 
ATOM      6  C   UNL     1      45.347   8.142  12.581  0.00  0.00    +0.000 A 
ENDROOT
BRANCH   1   7
ATOM      7  C   UNL     1      44.476   5.769  12.867  0.00  0.00    +0.000 C 
BRANCH   7   8
ATOM      8  C   UNL     1      43.759   5.255  11.597  0.00  0.00    +0.000 C 
BRANCH   8   9
ATOM      9  C   UNL     1      44.308   3.851  11.251  0.00  0.00    +0.000 C 
ATOM     10  O   UNL     1      44.930   3.170  12.064  0.00  0.00    +0.000 OA
ATOM     11  N   UNL     1      44.096   3.435   9.958  0.00  0.00    +0.000 N 
ATOM     12  H   UNL     1      43.382   3.920   9.423  0.00  0.00    +0.000 HD
BRANCH  11  13
ATOM     13  C   UNL     1      44.566   2.141   9.524  0.00  0.00    +0.000 C 
BRANCH  13  14
ATOM     14  C   UNL     1      45.574   2.308   8.455  0.00  0.00    +0.000 A 
ATOM     15  C   UNL     1      45.909   3.366   7.633  0.00  0.00    +0.000 A 
ATOM     16  C   UNL     1      47.008   2.934   6.853  0.00  0.00    +0.000 A 
ATOM     17  C   UNL     1      47.268   1.641   7.243  0.00  0.00    +0.000 A 
ATOM     18  O   UNL     1      46.398   1.248   8.210  0.00  0.00    +0.000 OA
ENDBRANCH  13  14
ENDBRANCH  11  13
ENDBRANCH   8   9
BRANCH   8  19
ATOM     19  N   UNL     1      42.283   5.181  11.742  0.00  0.00    +0.000 NA
ATOM     20  H   UNL     1      41.871   5.527  10.872  0.00  0.00    +0.000 HD
ATOM     21  H   UNL     1      41.996   5.849  12.459  0.00  0.00    +0.000 HD
ENDBRANCH   8  19
ENDBRANCH   7   8
ENDBRANCH   1   7
BRANCH   4  22
ATOM     22  C   UNL     1      48.801   9.595  11.863  0.00  0.00    +0.000 C 
BRANCH  22  23
ATOM     23  N   UNL     1      50.070   8.963  11.600  0.00  0.00    +0.000 N 
ATOM     24  C   UNL     1      51.089   9.635  10.967  0.00  0.00    +0.000 C 
ATOM     25  O   UNL     1      50.993  10.801  10.617  0.00  0.00    +0.000 OA
ATOM     26  H   UNL     1      50.056   7.953  11.522  0.00  0.00    +0.000 HD
BRANCH  24  27
ATOM     27  C   UNL     1      52.332   8.868  10.787  0.00  0.00    +0.000 A 
ATOM     28  C   UNL     1      52.831   8.641   9.511  0.00  0.00    +0.000 A 
ATOM     29  S   UNL     1      54.278   7.736   9.495  0.00  0.00    +0.000 S 
ATOM     30  C   UNL     1      54.269   7.577  11.194  0.00  0.00    +0.000 A 
ATOM     31  N   UNL     1      55.230   6.869  11.840  0.00  0.00    +0.000 NA
ATOM     32  C   UNL     1      55.078   6.822  13.124  0.00  0.00    +0.000 A 
ATOM     33  N   UNL     1      54.069   7.433  13.819  0.00  0.00    +0.000 N 
ATOM     34  C   UNL     1      53.103   8.202  13.209  0.00  0.00    +0.000 A 
ATOM     35  O   UNL     1      52.261   8.803  13.869  0.00  0.00    +0.000 OA
ATOM     36  C   UNL     1      53.200   8.252  11.764  0.00  0.00    +0.000 A 
ATOM     37  H   UNL     1      54.026   7.385  14.823  0.00  0.00    +0.000 HD
ENDBRANCH  24  27
ENDBRANCH  22  23
ENDBRANCH   4  22
TORSDOF 9
ENDMDL
MODEL 6
REMARK VINA RESULT:    -6.816      3.009      8.084
REMARK INTER + INTRA:         -11.550
REMARK INTER:                  -9.953
REMARK INTRA:                  -1.597
REMARK UNBOUND:                -1.346
REMARK  Name = 
REMARK  9 active torsions:
REMARK  status: ('A' for Active; 'I' for Inactive)
REMARK    1  A    between atoms: N_1  and  C_2
REMARK    2  A    between atoms: C_2  and  C_3
REMARK    3  A    between atoms: C_2  and  C_24
REMARK    4  A    between atoms: C_3  and  C_4
REMARK    5  A    between atoms: C_7  and  C_8
REMARK    6  A    between atoms: C_8  and  N_9
REMARK    7  A    between atoms: C_10  and  C_12
REMARK    8  A    between atoms: N_26  and  C_27
REMARK    9  A    between atoms: C_27  and  C_28
REMARK                            x       y       z     vdW  Elec       q    Type
REMARK                         _______ _______ _______ _____ _____    ______ ____
ROOT
ATOM      1  C   UNL     1      49.382   8.398  15.765  0.00  0.00    +0.000 A 
ATOM      2  C   UNL     1      49.438   7.144  15.145  0.00  0.00    +0.000 A 
ATOM      3  C   UNL     1      48.907   6.946  13.864  0.00  0.00    +0.000 A 
ATOM      4  C   UNL     1      48.300   8.004  13.173  0.00  0.00    +0.000 A 
ATOM      5  C   UNL     1      48.234   9.256  13.803  0.00  0.00    +0.000 A 
ATOM      6  C   UNL     1      48.775   9.455  15.077  0.00  0.00    +0.000 A 
ENDROOT
BRANCH   1   7
ATOM      7  C   UNL     1      49.940   8.576  17.160  0.00  0.00    +0.000 C 
BRANCH   7   8
ATOM      8  C   UNL     1      48.897   8.860  18.265  0.00  0.00    +0.000 C 
BRANCH   8   9
ATOM      9  C   UNL     1      48.494   7.520  18.924  0.00  0.00    +0.000 C 
ATOM     10  O   UNL     1      49.075   7.072  19.911  0.00  0.00    +0.000 OA
ATOM     11  N   UNL     1      47.474   6.838  18.304  0.00  0.00    +0.000 N 
ATOM     12  H   UNL     1      46.887   7.361  17.661  0.00  0.00    +0.000 HD
BRANCH  11  13
ATOM     13  C   UNL     1      47.015   5.575  18.832  0.00  0.00    +0.000 C 
BRANCH  13  14
ATOM     14  C   UNL     1      47.599   4.464  18.050  0.00  0.00    +0.000 A 
ATOM     15  C   UNL     1      47.230   3.847  16.872  0.00  0.00    +0.000 A 
ATOM     16  C   UNL     1      48.231   2.885  16.594  0.00  0.00    +0.000 A 
ATOM     17  C   UNL     1      49.140   2.972  17.622  0.00  0.00    +0.000 A 
ATOM     18  O   UNL     1      48.762   3.923  18.516  0.00  0.00    +0.000 OA
ENDBRANCH  13  14
ENDBRANCH  11  13
ENDBRANCH   8   9
BRANCH   8  19
ATOM     19  N   UNL     1      49.384   9.793  19.313  0.00  0.00    +0.000 NA
ATOM     20  H   UNL     1      49.501   9.256  20.174  0.00  0.00    +0.000 HD
ATOM     21  H   UNL     1      48.644  10.466  19.514  0.00  0.00    +0.000 HD
ENDBRANCH   8  19
ENDBRANCH   7   8
ENDBRANCH   1   7
BRANCH   4  22
ATOM     22  C   UNL     1      47.713   7.836  11.790  0.00  0.00    +0.000 C 
BRANCH  22  23
ATOM     23  N   UNL     1      46.944   6.623  11.665  0.00  0.00    +0.000 N 
ATOM     24  C   UNL     1      45.572   6.629  11.749  0.00  0.00    +0.000 C 
ATOM     25  O   UNL     1      44.925   7.654  11.906  0.00  0.00    +0.000 OA
ATOM     26  H   UNL     1      47.424   5.765  11.914  0.00  0.00    +0.000 HD
BRANCH  24  27
ATOM     27  C   UNL     1      44.924   5.319  11.583  0.00  0.00    +0.000 A 
ATOM     28  C   UNL     1      44.195   4.764  12.627  0.00  0.00    +0.000 A 
ATOM     29  S   UNL     1      43.516   3.244  12.253  0.00  0.00    +0.000 S 
ATOM     30  C   UNL     1      44.208   3.250  10.694  0.00  0.00    +0.000 A 
ATOM     31  N   UNL     1      44.045   2.202   9.847  0.00  0.00    +0.000 NA
ATOM     32  C   UNL     1      44.644   2.343   8.709  0.00  0.00    +0.000 A 
ATOM     33  N   UNL     1      45.371   3.442   8.335  0.00  0.00    +0.000 N 
ATOM     34  C   UNL     1      45.520   4.547   9.143  0.00  0.00    +0.000 A 
ATOM     35  O   UNL     1      46.109   5.548   8.746  0.00  0.00    +0.000 OA
ATOM     36  C   UNL     1      44.905   4.423  10.449  0.00  0.00    +0.000 A 
ATOM     37  H   UNL     1      45.787   3.504   7.421  0.00  0.00    +0.000 HD
ENDBRANCH  24  27
ENDBRANCH  22  23
ENDBRANCH   4  22
TORSDOF 9
ENDMDL
MODEL 7
REMARK VINA RESULT:    -6.727      5.535      9.457
REMARK INTER + INTRA:         -11.416
REMARK INTER:                 -10.565
REMARK INTRA:                  -0.851
REMARK UNBOUND:                -1.346
REMARK  Name = 
REMARK  9 active torsions:
REMARK  status: ('A' for Active; 'I' for Inactive)
REMARK    1  A    between atoms: N_1  and  C_2
REMARK    2  A    between atoms: C_2  and  C_3
REMARK    3  A    between atoms: C_2  and  C_24
REMARK    4  A    between atoms: C_3  and  C_4
REMARK    5  A    between atoms: C_7  and  C_8
REMARK    6  A    between atoms: C_8  and  N_9
REMARK    7  A    between atoms: C_10  and  C_12
REMARK    8  A    between atoms: N_26  and  C_27
REMARK    9  A    between atoms: C_27  and  C_28
REMARK                            x       y       z     vdW  Elec       q    Type
REMARK                         _______ _______ _______ _____ _____    ______ ____
ROOT
ATOM      1  C   UNL     1      51.283   2.183  17.421  0.00  0.00    +0.000 A 
ATOM      2  C   UNL     1      51.821   3.450  17.679  0.00  0.00    +0.000 A 
ATOM      3  C   UNL     1      51.012   4.594  17.666  0.00  0.00    +0.000 A 
ATOM      4  C   UNL     1      49.642   4.495  17.387  0.00  0.00    +0.000 A 
ATOM      5  C   UNL     1      49.110   3.226  17.116  0.00  0.00    +0.000 A 
ATOM      6  C   UNL     1      49.916   2.083  17.141  0.00  0.00    +0.000 A 
ENDROOT
BRANCH   1   7
ATOM      7  C   UNL     1      52.186   0.968  17.415  0.00  0.00    +0.000 C 
BRANCH   7   8
ATOM      8  C   UNL     1      53.611   1.193  17.970  0.00  0.00    +0.000 C 
BRANCH   8   9
ATOM      9  C   UNL     1      54.169  -0.161  18.469  0.00  0.00    +0.000 C 
ATOM     10  O   UNL     1      54.538  -0.331  19.629  0.00  0.00    +0.000 OA
ATOM     11  N   UNL     1      54.270  -1.146  17.516  0.00  0.00    +0.000 N 
ATOM     12  H   UNL     1      53.734  -1.026  16.662  0.00  0.00    +0.000 HD
BRANCH  11  13
ATOM     13  C   UNL     1      54.778  -2.450  17.869  0.00  0.00    +0.000 C 
BRANCH  13  14
ATOM     14  C   UNL     1      54.615  -3.376  16.727  0.00  0.00    +0.000 A 
ATOM     15  C   UNL     1      54.371  -4.732  16.642  0.00  0.00    +0.000 A 
ATOM     16  C   UNL     1      54.252  -5.031  15.264  0.00  0.00    +0.000 A 
ATOM     17  C   UNL     1      54.437  -3.843  14.598  0.00  0.00    +0.000 A 
ATOM     18  O   UNL     1      54.666  -2.832  15.477  0.00  0.00    +0.000 OA
ENDBRANCH  13  14
ENDBRANCH  11  13
ENDBRANCH   8   9
BRANCH   8  19
ATOM     19  N   UNL     1      54.548   1.772  16.974  0.00  0.00    +0.000 NA
ATOM     20  H   UNL     1      55.286   2.257  17.490  0.00  0.00    +0.000 HD
ATOM     21  H   UNL     1      54.058   2.503  16.457  0.00  0.00    +0.000 HD
ENDBRANCH   8  19
ENDBRANCH   7   8
ENDBRANCH   1   7
BRANCH   4  22
ATOM     22  C   UNL     1      48.732   5.703  17.361  0.00  0.00    +0.000 C 
BRANCH  22  23
ATOM     23  N   UNL     1      47.919   5.750  16.172  0.00  0.00    +0.000 N 
ATOM     24  C   UNL     1      48.409   6.243  14.985  0.00  0.00    +0.000 C 
ATOM     25  O   UNL     1      49.557   6.640  14.860  0.00  0.00    +0.000 OA
ATOM     26  H   UNL     1      46.917   5.798  16.321  0.00  0.00    +0.000 HD
BRANCH  24  27
ATOM     27  C   UNL     1      47.470   6.210  13.854  0.00  0.00    +0.000 A 
ATOM     28  C   UNL     1      47.141   7.382  13.186  0.00  0.00    +0.000 A 
ATOM     29  S   UNL     1      46.040   7.151  11.902  0.00  0.00    +0.000 S 
ATOM     30  C   UNL     1      45.928   5.479  12.218  0.00  0.00    +0.000 A 
ATOM     31  N   UNL     1      45.107   4.679  11.491  0.00  0.00    +0.000 NA
ATOM     32  C   UNL     1      45.115   3.439  11.861  0.00  0.00    +0.000 A 
ATOM     33  N   UNL     1      45.881   2.926  12.874  0.00  0.00    +0.000 N 
ATOM     34  C   UNL     1      46.763   3.691  13.603  0.00  0.00    +0.000 A 
ATOM     35  O   UNL     1      47.494   3.184  14.449  0.00  0.00    +0.000 OA
ATOM     36  C   UNL     1      46.761   5.099  13.259  0.00  0.00    +0.000 A 
ATOM     37  H   UNL     1      45.864   1.943  13.091  0.00  0.00    +0.000 HD
ENDBRANCH  24  27
ENDBRANCH  22  23
ENDBRANCH   4  22
TORSDOF 9
ENDMDL
MODEL 8
REMARK VINA RESULT:    -6.722      3.294      9.568
REMARK INTER + INTRA:         -11.408
REMARK INTER:                 -10.087
REMARK INTRA:                  -1.321
REMARK UNBOUND:                -1.346
REMARK  Name = 
REMARK  9 active torsions:
REMARK  status: ('A' for Active; 'I' for Inactive)
REMARK    1  A    between atoms: N_1  and  C_2
REMARK    2  A    between atoms: C_2  and  C_3
REMARK    3  A    between atoms: C_2  and  C_24
REMARK    4  A    between atoms: C_3  and  C_4
REMARK    5  A    between atoms: C_7  and  C_8
REMARK    6  A    between atoms: C_8  and  N_9
REMARK    7  A    between atoms: C_10  and  C_12
REMARK    8  A    between atoms: N_26  and  C_27
REMARK    9  A    between atoms: C_27  and  C_28
REMARK                            x       y       z     vdW  Elec       q    Type
REMARK                         _______ _______ _______ _____ _____    ______ ____
ROOT
ATOM      1  C   UNL     1      51.419   4.090  17.543  0.00  0.00    +0.000 A 
ATOM      2  C   UNL     1      50.889   2.794  17.489  0.00  0.00    +0.000 A 
ATOM      3  C   UNL     1      49.529   2.580  17.233  0.00  0.00    +0.000 A 
ATOM      4  C   UNL     1      48.662   3.664  17.030  0.00  0.00    +0.000 A 
ATOM      5  C   UNL     1      49.194   4.960  17.098  0.00  0.00    +0.000 A 
ATOM      6  C   UNL     1      50.555   5.172  17.342  0.00  0.00    +0.000 A 
ENDROOT
BRANCH   1   7
ATOM      7  C   UNL     1      52.887   4.291  17.848  0.00  0.00    +0.000 C 
BRANCH   7   8
ATOM      8  C   UNL     1      53.215   4.725  19.296  0.00  0.00    +0.000 C 
BRANCH   8   9
ATOM      9  C   UNL     1      52.577   6.110  19.556  0.00  0.00    +0.000 C 
ATOM     10  O   UNL     1      52.967   7.129  18.989  0.00  0.00    +0.000 OA
ATOM     11  N   UNL     1      51.578   6.134  20.499  0.00  0.00    +0.000 N 
ATOM     12  H   UNL     1      51.145   5.248  20.742  0.00  0.00    +0.000 HD
BRANCH  11  13
ATOM     13  C   UNL     1      50.912   7.373  20.822  0.00  0.00    +0.000 C 
BRANCH  13  14
ATOM     14  C   UNL     1      49.550   7.374  20.247  0.00  0.00    +0.000 A 
ATOM     15  C   UNL     1      48.957   8.095  19.230  0.00  0.00    +0.000 A 
ATOM     16  C   UNL     1      47.639   7.596  19.101  0.00  0.00    +0.000 A 
ATOM     17  C   UNL     1      47.509   6.611  20.051  0.00  0.00    +0.000 A 
ATOM     18  O   UNL     1      48.661   6.473  20.758  0.00  0.00    +0.000 OA
ENDBRANCH  13  14
ENDBRANCH  11  13
ENDBRANCH   8   9
BRANCH   8  19
ATOM     19  N   UNL     1      52.735   3.765  20.323  0.00  0.00    +0.000 NA
ATOM     20  H   UNL     1      51.742   3.950  20.477  0.00  0.00    +0.000 HD
ATOM     21  H   UNL     1      53.190   3.988  21.209  0.00  0.00    +0.000 HD
ENDBRANCH   8  19
ENDBRANCH   7   8
ENDBRANCH   1   7
BRANCH   4  22
ATOM     22  C   UNL     1      47.188   3.479  16.752  0.00  0.00    +0.000 C 
BRANCH  22  23
ATOM     23  N   UNL     1      46.695   4.411  15.768  0.00  0.00    +0.000 N 
ATOM     24  C   UNL     1      46.781   4.147  14.422  0.00  0.00    +0.000 C 
ATOM     25  O   UNL     1      47.250   3.108  13.982  0.00  0.00    +0.000 OA
ATOM     26  H   UNL     1      46.665   5.383  16.054  0.00  0.00    +0.000 HD
BRANCH  24  27
ATOM     27  C   UNL     1      46.219   5.181  13.539  0.00  0.00    +0.000 A 
ATOM     28  C   UNL     1      46.905   6.371  13.336  0.00  0.00    +0.000 A 
ATOM     29  S   UNL     1      46.103   7.450  12.283  0.00  0.00    +0.000 S 
ATOM     30  C   UNL     1      44.786   6.382  12.094  0.00  0.00    +0.000 A 
ATOM     31  N   UNL     1      43.713   6.716  11.334  0.00  0.00    +0.000 NA
ATOM     32  C   UNL     1      42.786   5.814  11.302  0.00  0.00    +0.000 A 
ATOM     33  N   UNL     1      42.845   4.604  11.941  0.00  0.00    +0.000 N 
ATOM     34  C   UNL     1      43.936   4.204  12.681  0.00  0.00    +0.000 A 
ATOM     35  O   UNL     1      43.991   3.082  13.174  0.00  0.00    +0.000 OA
ATOM     36  C   UNL     1      44.985   5.198  12.787  0.00  0.00    +0.000 A 
ATOM     37  H   UNL     1      42.102   3.931  11.850  0.00  0.00    +0.000 HD
ENDBRANCH  24  27
ENDBRANCH  22  23
ENDBRANCH   4  22
TORSDOF 9
ENDMDL
MODEL 9
REMARK VINA RESULT:    -6.622      2.698      3.567
REMARK INTER + INTRA:         -11.259
REMARK INTER:                 -10.365
REMARK INTRA:                  -0.894
REMARK UNBOUND:                -1.346
REMARK  Name = 
REMARK  9 active torsions:
REMARK  status: ('A' for Active; 'I' for Inactive)
REMARK    1  A    between atoms: N_1  and  C_2
REMARK    2  A    between atoms: C_2  and  C_3
REMARK    3  A    between atoms: C_2  and  C_24
REMARK    4  A    between atoms: C_3  and  C_4
REMARK    5  A    between atoms: C_7  and  C_8
REMARK    6  A    between atoms: C_8  and  N_9
REMARK    7  A    between atoms: C_10  and  C_12
REMARK    8  A    between atoms: N_26  and  C_27
REMARK    9  A    between atoms: C_27  and  C_28
REMARK                            x       y       z     vdW  Elec       q    Type
REMARK                         _______ _______ _______ _____ _____    ______ ____
ROOT
ATOM      1  C   UNL     1      47.911   6.582  13.215  0.00  0.00    +0.000 A 
ATOM      2  C   UNL     1      48.799   7.665  13.181  0.00  0.00    +0.000 A 
ATOM      3  C   UNL     1      49.547   8.021  14.310  0.00  0.00    +0.000 A 
ATOM      4  C   UNL     1      49.419   7.302  15.507  0.00  0.00    +0.000 A 
ATOM      5  C   UNL     1      48.519   6.226  15.540  0.00  0.00    +0.000 A 
ATOM      6  C   UNL     1      47.781   5.863  14.409  0.00  0.00    +0.000 A 
ENDROOT
BRANCH   1   7
ATOM      7  C   UNL     1      47.096   6.236  11.988  0.00  0.00    +0.000 C 
BRANCH   7   8
ATOM      8  C   UNL     1      45.770   7.014  11.827  0.00  0.00    +0.000 C 
BRANCH   8   9
ATOM      9  C   UNL     1      44.788   6.155  10.996  0.00  0.00    +0.000 C 
ATOM     10  O   UNL     1      43.568   6.257  11.108  0.00  0.00    +0.000 OA
ATOM     11  N   UNL     1      45.371   5.235  10.157  0.00  0.00    +0.000 N 
ATOM     12  H   UNL     1      46.352   5.366   9.930  0.00  0.00    +0.000 HD
BRANCH  11  13
ATOM     13  C   UNL     1      44.551   4.379   9.333  0.00  0.00    +0.000 C 
BRANCH  13  14
ATOM     14  C   UNL     1      45.413   3.516   8.496  0.00  0.00    +0.000 A 
ATOM     15  C   UNL     1      45.669   2.159   8.495  0.00  0.00    +0.000 A 
ATOM     16  C   UNL     1      46.538   1.918   7.404  0.00  0.00    +0.000 A 
ATOM     17  C   UNL     1      46.762   3.140   6.817  0.00  0.00    +0.000 A 
ATOM     18  O   UNL     1      46.090   4.119   7.477  0.00  0.00    +0.000 OA
ENDBRANCH  13  14
ENDBRANCH  11  13
ENDBRANCH   8   9
BRANCH   8  19
ATOM     19  N   UNL     1      45.133   7.370  13.120  0.00  0.00    +0.000 NA
ATOM     20  H   UNL     1      45.828   7.227  13.856  0.00  0.00    +0.000 HD
ATOM     21  H   UNL     1      44.395   6.692  13.313  0.00  0.00    +0.000 HD
ENDBRANCH   8  19
ENDBRANCH   7   8
ENDBRANCH   1   7
BRANCH   4  22
ATOM     22  C   UNL     1      50.205   7.652  16.749  0.00  0.00    +0.000 C 
BRANCH  22  23
ATOM     23  N   UNL     1      51.093   6.590  17.153  0.00  0.00    +0.000 N 
ATOM     24  C   UNL     1      50.845   5.833  18.274  0.00  0.00    +0.000 C 
ATOM     25  O   UNL     1      49.856   5.994  18.973  0.00  0.00    +0.000 OA
ATOM     26  H   UNL     1      52.057   6.678  16.851  0.00  0.00    +0.000 HD
BRANCH  24  27
ATOM     27  C   UNL     1      51.827   4.774  18.549  0.00  0.00    +0.000 A 
ATOM     28  C   UNL     1      52.970   5.057  19.286  0.00  0.00    +0.000 A 
ATOM     29  S   UNL     1      53.992   3.707  19.505  0.00  0.00    +0.000 S 
ATOM     30  C   UNL     1      52.966   2.703  18.585  0.00  0.00    +0.000 A 
ATOM     31  N   UNL     1      53.281   1.405  18.346  0.00  0.00    +0.000 NA
ATOM     32  C   UNL     1      52.416   0.776  17.617  0.00  0.00    +0.000 A 
ATOM     33  N   UNL     1      51.260   1.321  17.125  0.00  0.00    +0.000 N 
ATOM     34  C   UNL     1      50.877   2.618  17.385  0.00  0.00    +0.000 A 
ATOM     35  O   UNL     1      49.795   3.050  16.998  0.00  0.00    +0.000 OA
ATOM     36  C   UNL     1      51.833   3.381  18.161  0.00  0.00    +0.000 A 
ATOM     37  H   UNL     1      50.611   0.768  16.590  0.00  0.00    +0.000 HD
ENDBRANCH  24  27
ENDBRANCH  22  23
ENDBRANCH   4  22
TORSDOF 9
ENDMDL
