MODEL 1
REMARK VINA RESULT:    -8.072      0.000      0.000
REMARK INTER + INTRA:         -12.530
REMARK INTER:                 -11.375
REMARK INTRA:                  -1.155
REMARK UNBOUND:                -1.155
REMARK  Name = 
REMARK  7 active torsions:
REMARK  status: ('A' for Active; 'I' for Inactive)
REMARK    1  A    between atoms: C_2  and  C_4
REMARK    2  A    between atoms: C_7  and  O_8
REMARK    3  A    between atoms: O_8  and  C_9
REMARK    4  A    between atoms: C_9  and  C_10
REMARK    5  A    between atoms: C_14  and  C_15
REMARK    6  A    between atoms: C_19  and  O_20
REMARK    7  A    between atoms: O_20  and  C_21
REMARK                            x       y       z     vdW  Elec       q    Type
REMARK                         _______ _______ _______ _____ _____    ______ ____
ROOT
ATOM      1  C   UNL     1      45.089   5.231  12.036  0.00  0.00    +0.000 A 
ATOM      2  C   UNL     1      45.491   4.235  12.937  0.00  0.00    +0.000 A 
ATOM      3  C   UNL     1      46.721   4.305  13.588  0.00  0.00    +0.000 A 
ATOM      4  C   UNL     1      47.583   5.374  13.338  0.00  0.00    +0.000 A 
ATOM      5  C   UNL     1      47.227   6.403  12.452  0.00  0.00    +0.000 A 
ATOM      6  C   UNL     1      45.959   6.322  11.844  0.00  0.00    +0.000 A 
ENDROOT
BRANCH   5   7
ATOM      7  C   UNL     1      48.169   7.485  12.097  0.00  0.00    +0.000 A 
ATOM      8  C   UNL     1      47.752   8.821  12.091  0.00  0.00    +0.000 A 
ATOM      9  C   UNL     1      48.673   9.814  11.808  0.00  0.00    +0.000 A 
ATOM     10  N   UNL     1      49.973   9.577  11.552  0.00  0.00    +0.000 NA
ATOM     11  C   UNL     1      50.385   8.294  11.562  0.00  0.00    +0.000 A 
ATOM     12  C   UNL     1      49.521   7.232  11.806  0.00  0.00    +0.000 A 
BRANCH  11  13
ATOM     13  O   UNL     1      51.711   8.164  11.274  0.00  0.00    +0.000 OA
BRANCH  13  14
ATOM     14  C   UNL     1      51.973   7.346  10.156  0.00  0.00    +0.000 C 
ATOM     15  F   UNL     1      52.357   8.140   9.123  0.00  0.00    +0.000 F 
ATOM     16  F   UNL     1      53.042   6.565  10.458  0.00  0.00    +0.000 F 
ENDBRANCH  13  14
ENDBRANCH  11  13
ENDBRANCH   5   7
BRANCH   1  17
ATOM     17  C   UNL     1      43.793   5.093  11.259  0.00  0.00    +0.000 C 
ATOM     18  C   UNL     1      42.462   5.377  11.954  0.00  0.00    +0.000 C 
ATOM     19  C   UNL     1      43.008   6.364  10.984  0.00  0.00    +0.000 C 
BRANCH  17  20
ATOM     20  O   UNL     1      43.686   3.928  10.409  0.00  0.00    +0.000 OA
BRANCH  20  24
ATOM     21  C   UNL     1      46.442   2.783   7.677  0.00  0.00    +0.000 A 
ATOM     22  C   UNL     1      46.114   4.126   7.797  0.00  0.00    +0.000 A 
ATOM     23  N   UNL     1      45.255   4.584   8.745  0.00  0.00    +0.000 NA
ATOM     24  C   UNL     1      44.726   3.636   9.549  0.00  0.00    +0.000 A 
ATOM     25  C   UNL     1      45.089   2.295   9.452  0.00  0.00    +0.000 A 
ATOM     26  N   UNL     1      45.954   1.827   8.519  0.00  0.00    +0.000 NA
BRANCH  21  28
ATOM     27  N   UNL     1      47.191   3.063   5.394  0.00  0.00    +0.000 N 
ATOM     28  C   UNL     1      47.286   2.322   6.542  0.00  0.00    +0.000 C 
ATOM     29  O   UNL     1      48.042   1.360   6.635  0.00  0.00    +0.000 OA
ATOM     30  H   UNL     1      47.799   2.850   4.617  0.00  0.00    +0.000 HD
ATOM     31  H   UNL     1      46.593   3.881   5.368  0.00  0.00    +0.000 HD
ENDBRANCH  21  28
ENDBRANCH  20  24
ENDBRANCH  17  20
ENDBRANCH   1  17
TORSDOF 7
ENDMDL
MODEL 2
REMARK VINA RESULT:    -7.931      3.689      4.497
REMARK INTER + INTRA:         -12.332
REMARK INTER:                 -12.115
REMARK INTRA:                  -0.217
REMARK UNBOUND:                -1.155
REMARK  Name = 
REMARK  7 active torsions:
REMARK  status: ('A' for Active; 'I' for Inactive)
REMARK    1  A    between atoms: C_2  and  C_4
REMARK    2  A    between atoms: C_7  and  O_8
REMARK    3  A    between atoms: O_8  and  C_9
REMARK    4  A    between atoms: C_9  and  C_10
REMARK    5  A    between atoms: C_14  and  C_15
REMARK    6  A    between atoms: C_19  and  O_20
REMARK    7  A    between atoms: O_20  and  C_21
REMARK                            x       y       z     vdW  Elec       q    Type
REMARK                         _______ _______ _______ _____ _____    ______ ____
ROOT
ATOM      1  C   UNL     1      44.777   5.897  11.508  0.00  0.00    +0.000 A 
ATOM      2  C   UNL     1      44.940   7.189  10.988  0.00  0.00    +0.000 A 
ATOM      3  C   UNL     1      45.921   8.047  11.482  0.00  0.00    +0.000 A 
ATOM      4  C   UNL     1      46.754   7.630  12.521  0.00  0.00    +0.000 A 
ATOM      5  C   UNL     1      46.640   6.344  13.072  0.00  0.00    +0.000 A 
ATOM      6  C   UNL     1      45.667   5.488  12.520  0.00  0.00    +0.000 A 
ENDROOT
BRANCH   5   7
ATOM      7  C   UNL     1      47.443   5.924  14.240  0.00  0.00    +0.000 A 
ATOM      8  C   UNL     1      48.452   6.752  14.747  0.00  0.00    +0.000 A 
ATOM      9  C   UNL     1      49.148   6.354  15.874  0.00  0.00    +0.000 A 
ATOM     10  N   UNL     1      48.903   5.210  16.539  0.00  0.00    +0.000 NA
ATOM     11  C   UNL     1      47.929   4.410  16.063  0.00  0.00    +0.000 A 
ATOM     12  C   UNL     1      47.201   4.717  14.918  0.00  0.00    +0.000 A 
BRANCH  11  13
ATOM     13  O   UNL     1      47.775   3.273  16.798  0.00  0.00    +0.000 OA
BRANCH  13  14
ATOM     14  C   UNL     1      48.865   2.989  17.645  0.00  0.00    +0.000 C 
ATOM     15  F   UNL     1      48.383   2.673  18.874  0.00  0.00    +0.000 F 
ATOM     16  F   UNL     1      49.475   1.871  17.173  0.00  0.00    +0.000 F 
ENDBRANCH  13  14
ENDBRANCH  11  13
ENDBRANCH   5   7
BRANCH   1  17
ATOM     17  C   UNL     1      43.642   5.009  11.031  0.00  0.00    +0.000 C 
ATOM     18  C   UNL     1      43.251   3.780  11.849  0.00  0.00    +0.000 C 
ATOM     19  C   UNL     1      42.378   4.985  11.873  0.00  0.00    +0.000 C 
BRANCH  17  20
ATOM     20  O   UNL     1      43.627   4.708   9.617  0.00  0.00    +0.000 OA
BRANCH  20  24
ATOM     21  C   UNL     1      46.528   2.583   7.761  0.00  0.00    +0.000 A 
ATOM     22  C   UNL     1      46.486   3.962   7.609  0.00  0.00    +0.000 A 
ATOM     23  N   UNL     1      45.585   4.740   8.266  0.00  0.00    +0.000 NA
ATOM     24  C   UNL     1      44.720   4.073   9.061  0.00  0.00    +0.000 A 
ATOM     25  C   UNL     1      44.792   2.694   9.243  0.00  0.00    +0.000 A 
ATOM     26  N   UNL     1      45.693   1.909   8.603  0.00  0.00    +0.000 NA
BRANCH  21  28
ATOM     27  N   UNL     1      48.552   2.426   6.447  0.00  0.00    +0.000 N 
ATOM     28  C   UNL     1      47.448   1.770   6.921  0.00  0.00    +0.000 C 
ATOM     29  O   UNL     1      47.249   0.582   6.692  0.00  0.00    +0.000 OA
ATOM     30  H   UNL     1      49.254   1.908   5.939  0.00  0.00    +0.000 HD
ATOM     31  H   UNL     1      48.711   3.396   6.696  0.00  0.00    +0.000 HD
ENDBRANCH  21  28
ENDBRANCH  20  24
ENDBRANCH  17  20
ENDBRANCH   1  17
TORSDOF 7
ENDMDL
MODEL 3
REMARK VINA RESULT:    -7.910      3.682      4.668
REMARK INTER + INTRA:         -12.301
REMARK INTER:                 -12.172
REMARK INTRA:                  -0.129
REMARK UNBOUND:                -1.155
REMARK  Name = 
REMARK  7 active torsions:
REMARK  status: ('A' for Active; 'I' for Inactive)
REMARK    1  A    between atoms: C_2  and  C_4
REMARK    2  A    between atoms: C_7  and  O_8
REMARK    3  A    between atoms: O_8  and  C_9
REMARK    4  A    between atoms: C_9  and  C_10
REMARK    5  A    between atoms: C_14  and  C_15
REMARK    6  A    between atoms: C_19  and  O_20
REMARK    7  A    between atoms: O_20  and  C_21
REMARK                            x       y       z     vdW  Elec       q    Type
REMARK                         _______ _______ _______ _____ _____    ______ ____
ROOT
ATOM      1  C   UNL     1      45.235   5.389  11.701  0.00  0.00    +0.000 A 
ATOM      2  C   UNL     1      45.898   6.429  11.035  0.00  0.00    +0.000 A 
ATOM      3  C   UNL     1      47.069   6.983  11.548  0.00  0.00    +0.000 A 
ATOM      4  C   UNL     1      47.595   6.512  12.752  0.00  0.00    +0.000 A 
ATOM      5  C   UNL     1      46.976   5.467  13.455  0.00  0.00    +0.000 A 
ATOM      6  C   UNL     1      45.819   4.902  12.887  0.00  0.00    +0.000 A 
ENDROOT
BRANCH   5   7
ATOM      7  C   UNL     1      47.461   5.028  14.781  0.00  0.00    +0.000 A 
ATOM      8  C   UNL     1      47.227   3.723  15.230  0.00  0.00    +0.000 A 
ATOM      9  C   UNL     1      47.741   3.328  16.452  0.00  0.00    +0.000 A 
ATOM     10  N   UNL     1      48.482   4.125  17.245  0.00  0.00    +0.000 NA
ATOM     11  C   UNL     1      48.719   5.380  16.817  0.00  0.00    +0.000 A 
ATOM     12  C   UNL     1      48.214   5.871  15.617  0.00  0.00    +0.000 A 
BRANCH  11  13
ATOM     13  O   UNL     1      49.461   6.107  17.700  0.00  0.00    +0.000 OA
BRANCH  13  14
ATOM     14  C   UNL     1      48.814   6.343  18.930  0.00  0.00    +0.000 C 
ATOM     15  F   UNL     1      49.513   7.288  19.608  0.00  0.00    +0.000 F 
ATOM     16  F   UNL     1      47.599   6.885  18.658  0.00  0.00    +0.000 F 
ENDBRANCH  13  14
ENDBRANCH  11  13
ENDBRANCH   5   7
BRANCH   1  17
ATOM     17  C   UNL     1      43.908   4.863  11.185  0.00  0.00    +0.000 C 
ATOM     18  C   UNL     1      43.175   3.772  11.965  0.00  0.00    +0.000 C 
ATOM     19  C   UNL     1      42.670   5.171  12.010  0.00  0.00    +0.000 C 
BRANCH  17  20
ATOM     20  O   UNL     1      43.838   4.609   9.764  0.00  0.00    +0.000 OA
BRANCH  20  24
ATOM     21  C   UNL     1      46.551   2.323   7.819  0.00  0.00    +0.000 A 
ATOM     22  C   UNL     1      46.487   3.684   7.553  0.00  0.00    +0.000 A 
ATOM     23  N   UNL     1      45.652   4.518   8.227  0.00  0.00    +0.000 NA
ATOM     24  C   UNL     1      44.873   3.925   9.159  0.00  0.00    +0.000 A 
ATOM     25  C   UNL     1      44.970   2.567   9.451  0.00  0.00    +0.000 A 
ATOM     26  N   UNL     1      45.808   1.727   8.795  0.00  0.00    +0.000 NA
BRANCH  21  28
ATOM     27  N   UNL     1      48.471   2.033   6.377  0.00  0.00    +0.000 N 
ATOM     28  C   UNL     1      47.387   1.437   6.965  0.00  0.00    +0.000 C 
ATOM     29  O   UNL     1      47.142   0.244   6.820  0.00  0.00    +0.000 OA
ATOM     30  H   UNL     1      49.122   1.467   5.852  0.00  0.00    +0.000 HD
ATOM     31  H   UNL     1      48.672   3.010   6.557  0.00  0.00    +0.000 HD
ENDBRANCH  21  28
ENDBRANCH  20  24
ENDBRANCH  17  20
ENDBRANCH   1  17
TORSDOF 7
ENDMDL
MODEL 4
REMARK VINA RESULT:    -7.813      1.637      1.984
REMARK INTER + INTRA:         -12.165
REMARK INTER:                 -11.249
REMARK INTRA:                  -0.916
REMARK UNBOUND:                -1.155
REMARK  Name = 
REMARK  7 active torsions:
REMARK  status: ('A' for Active; 'I' for Inactive)
REMARK    1  A    between atoms: C_2  and  C_4
REMARK    2  A    between atoms: C_7  and  O_8
REMARK    3  A    between atoms: O_8  and  C_9
REMARK    4  A    between atoms: C_9  and  C_10
REMARK    5  A    between atoms: C_14  and  C_15
REMARK    6  A    between atoms: C_19  and  O_20
REMARK    7  A    between atoms: O_20  and  C_21
REMARK                            x       y       z     vdW  Elec       q    Type
REMARK                         _______ _______ _______ _____ _____    ______ ____
ROOT
ATOM      1  C   UNL     1      44.879   4.878  12.026  0.00  0.00    +0.000 A 
ATOM      2  C   UNL     1      45.115   3.638  12.637  0.00  0.00    +0.000 A 
ATOM      3  C   UNL     1      46.260   3.416  13.399  0.00  0.00    +0.000 A 
ATOM      4  C   UNL     1      47.203   4.434  13.556  0.00  0.00    +0.000 A 
ATOM      5  C   UNL     1      47.011   5.697  12.973  0.00  0.00    +0.000 A 
ATOM      6  C   UNL     1      45.823   5.899  12.245  0.00  0.00    +0.000 A 
ENDROOT
BRANCH   5   7
ATOM      7  C   UNL     1      48.047   6.750  13.042  0.00  0.00    +0.000 A 
ATOM      8  C   UNL     1      48.772   6.961  14.221  0.00  0.00    +0.000 A 
ATOM      9  C   UNL     1      49.772   7.917  14.235  0.00  0.00    +0.000 A 
ATOM     10  N   UNL     1      50.112   8.659  13.164  0.00  0.00    +0.000 NA
ATOM     11  C   UNL     1      49.424   8.458  12.024  0.00  0.00    +0.000 A 
ATOM     12  C   UNL     1      48.383   7.540  11.929  0.00  0.00    +0.000 A 
BRANCH  11  13
ATOM     13  O   UNL     1      49.834   9.271  11.010  0.00  0.00    +0.000 OA
BRANCH  13  14
ATOM     14  C   UNL     1      49.637  10.643  11.265  0.00  0.00    +0.000 C 
ATOM     15  F   UNL     1      50.761  11.313  10.903  0.00  0.00    +0.000 F 
ATOM     16  F   UNL     1      48.649  11.078  10.439  0.00  0.00    +0.000 F 
ENDBRANCH  13  14
ENDBRANCH  11  13
ENDBRANCH   5   7
BRANCH   1  17
ATOM     17  C   UNL     1      43.679   5.075  11.117  0.00  0.00    +0.000 C 
ATOM     18  C   UNL     1      42.332   5.470  11.721  0.00  0.00    +0.000 C 
ATOM     19  C   UNL     1      43.133   6.486  10.985  0.00  0.00    +0.000 C 
BRANCH  17  20
ATOM     20  O   UNL     1      43.503   4.085  10.078  0.00  0.00    +0.000 OA
BRANCH  20  24
ATOM     21  C   UNL     1      46.476   2.481   7.851  0.00  0.00    +0.000 A 
ATOM     22  C   UNL     1      46.223   3.844   7.776  0.00  0.00    +0.000 A 
ATOM     23  N   UNL     1      45.291   4.456   8.553  0.00  0.00    +0.000 NA
ATOM     24  C   UNL     1      44.614   3.639   9.390  0.00  0.00    +0.000 A 
ATOM     25  C   UNL     1      44.899   2.280   9.493  0.00  0.00    +0.000 A 
ATOM     26  N   UNL     1      45.834   1.660   8.731  0.00  0.00    +0.000 NA
BRANCH  21  28
ATOM     27  N   UNL     1      48.454   2.628   6.468  0.00  0.00    +0.000 N 
ATOM     28  C   UNL     1      47.413   1.844   6.887  0.00  0.00    +0.000 C 
ATOM     29  O   UNL     1      47.282   0.683   6.515  0.00  0.00    +0.000 OA
ATOM     30  H   UNL     1      49.169   2.227   5.878  0.00  0.00    +0.000 HD
ATOM     31  H   UNL     1      48.561   3.568   6.834  0.00  0.00    +0.000 HD
ENDBRANCH  21  28
ENDBRANCH  20  24
ENDBRANCH  17  20
ENDBRANCH   1  17
TORSDOF 7
ENDMDL
MODEL 5
REMARK VINA RESULT:    -7.681      2.214      2.467
REMARK INTER + INTRA:         -11.979
REMARK INTER:                 -10.827
REMARK INTRA:                  -1.152
REMARK UNBOUND:                -1.155
REMARK  Name = 
REMARK  7 active torsions:
REMARK  status: ('A' for Active; 'I' for Inactive)
REMARK    1  A    between atoms: C_2  and  C_4
REMARK    2  A    between atoms: C_7  and  O_8
REMARK    3  A    between atoms: O_8  and  C_9
REMARK    4  A    between atoms: C_9  and  C_10
REMARK    5  A    between atoms: C_14  and  C_15
REMARK    6  A    between atoms: C_19  and  O_20
REMARK    7  A    between atoms: O_20  and  C_21
REMARK                            x       y       z     vdW  Elec       q    Type
REMARK                         _______ _______ _______ _____ _____    ______ ____
ROOT
ATOM      1  C   UNL     1      45.039   4.884  12.094  0.00  0.00    +0.000 A 
ATOM      2  C   UNL     1      45.307   3.726  12.837  0.00  0.00    +0.000 A 
ATOM      3  C   UNL     1      46.474   3.604  13.588  0.00  0.00    +0.000 A 
ATOM      4  C   UNL     1      47.409   4.640  13.599  0.00  0.00    +0.000 A 
ATOM      5  C   UNL     1      47.187   5.825  12.879  0.00  0.00    +0.000 A 
ATOM      6  C   UNL     1      45.978   5.932  12.166  0.00  0.00    +0.000 A 
ENDROOT
BRANCH   5   7
ATOM      7  C   UNL     1      48.212   6.888  12.796  0.00  0.00    +0.000 A 
ATOM      8  C   UNL     1      48.228   7.781  11.718  0.00  0.00    +0.000 A 
ATOM      9  C   UNL     1      49.166   8.797  11.699  0.00  0.00    +0.000 A 
ATOM     10  N   UNL     1      50.070   8.999  12.676  0.00  0.00    +0.000 NA
ATOM     11  C   UNL     1      50.058   8.149  13.720  0.00  0.00    +0.000 A 
ATOM     12  C   UNL     1      49.170   7.081  13.806  0.00  0.00    +0.000 A 
BRANCH  11  13
ATOM     13  O   UNL     1      51.022   8.430  14.641  0.00  0.00    +0.000 OA
BRANCH  13  14
ATOM     14  C   UNL     1      50.517   8.710  15.927  0.00  0.00    +0.000 C 
ATOM     15  F   UNL     1      51.077   7.841  16.807  0.00  0.00    +0.000 F 
ATOM     16  F   UNL     1      50.952   9.947  16.281  0.00  0.00    +0.000 F 
ENDBRANCH  13  14
ENDBRANCH  11  13
ENDBRANCH   5   7
BRANCH   1  17
ATOM     17  C   UNL     1      43.814   4.964  11.202  0.00  0.00    +0.000 C 
ATOM     18  C   UNL     1      42.459   5.321  11.812  0.00  0.00    +0.000 C 
ATOM     19  C   UNL     1      43.188   6.334  11.002  0.00  0.00    +0.000 C 
BRANCH  17  20
ATOM     20  O   UNL     1      43.672   3.908  10.225  0.00  0.00    +0.000 OA
BRANCH  20  24
ATOM     21  C   UNL     1      46.519   2.774   7.583  0.00  0.00    +0.000 A 
ATOM     22  C   UNL     1      46.201   4.119   7.712  0.00  0.00    +0.000 A 
ATOM     23  N   UNL     1      45.311   4.572   8.633  0.00  0.00    +0.000 NA
ATOM     24  C   UNL     1      44.741   3.617   9.401  0.00  0.00    +0.000 A 
ATOM     25  C   UNL     1      45.093   2.274   9.297  0.00  0.00    +0.000 A 
ATOM     26  N   UNL     1      45.988   1.811   8.390  0.00  0.00    +0.000 NA
BRANCH  21  28
ATOM     27  N   UNL     1      47.251   2.990   5.288  0.00  0.00    +0.000 N 
ATOM     28  C   UNL     1      47.401   2.321   6.474  0.00  0.00    +0.000 C 
ATOM     29  O   UNL     1      48.230   1.429   6.617  0.00  0.00    +0.000 OA
ATOM     30  H   UNL     1      47.877   2.784   4.522  0.00  0.00    +0.000 HD
ATOM     31  H   UNL     1      46.590   3.756   5.218  0.00  0.00    +0.000 HD
ENDBRANCH  21  28
ENDBRANCH  20  24
ENDBRANCH  17  20
ENDBRANCH   1  17
TORSDOF 7
ENDMDL
MODEL 6
REMARK VINA RESULT:    -7.417      4.628      8.304
REMARK INTER + INTRA:         -11.607
REMARK INTER:                 -10.703
REMARK INTRA:                  -0.904
REMARK UNBOUND:                -1.155
REMARK  Name = 
REMARK  7 active torsions:
REMARK  status: ('A' for Active; 'I' for Inactive)
REMARK    1  A    between atoms: C_2  and  C_4
REMARK    2  A    between atoms: C_7  and  O_8
REMARK    3  A    between atoms: O_8  and  C_9
REMARK    4  A    between atoms: C_9  and  C_10
REMARK    5  A    between atoms: C_14  and  C_15
REMARK    6  A    between atoms: C_19  and  O_20
REMARK    7  A    between atoms: O_20  and  C_21
REMARK                            x       y       z     vdW  Elec       q    Type
REMARK                         _______ _______ _______ _____ _____    ______ ____
ROOT
ATOM      1  C   UNL     1      47.343   7.348  13.067  0.00  0.00    +0.000 A 
ATOM      2  C   UNL     1      46.492   8.461  13.122  0.00  0.00    +0.000 A 
ATOM      3  C   UNL     1      45.259   8.459  12.472  0.00  0.00    +0.000 A 
ATOM      4  C   UNL     1      44.858   7.342  11.738  0.00  0.00    +0.000 A 
ATOM      5  C   UNL     1      45.668   6.198  11.658  0.00  0.00    +0.000 A 
ATOM      6  C   UNL     1      46.887   6.217  12.361  0.00  0.00    +0.000 A 
ENDROOT
BRANCH   5   7
ATOM      7  C   UNL     1      45.306   5.048  10.801  0.00  0.00    +0.000 A 
ATOM      8  C   UNL     1      44.596   3.962  11.328  0.00  0.00    +0.000 A 
ATOM      9  C   UNL     1      44.225   2.928  10.487  0.00  0.00    +0.000 A 
ATOM     10  N   UNL     1      44.490   2.905   9.168  0.00  0.00    +0.000 NA
ATOM     11  C   UNL     1      45.167   3.949   8.651  0.00  0.00    +0.000 A 
ATOM     12  C   UNL     1      45.606   5.016   9.429  0.00  0.00    +0.000 A 
BRANCH  11  13
ATOM     13  O   UNL     1      45.398   3.818   7.314  0.00  0.00    +0.000 OA
BRANCH  13  14
ATOM     14  C   UNL     1      46.739   3.523   6.994  0.00  0.00    +0.000 C 
ATOM     15  F   UNL     1      47.108   2.409   7.678  0.00  0.00    +0.000 F 
ATOM     16  F   UNL     1      46.787   3.198   5.677  0.00  0.00    +0.000 F 
ENDBRANCH  13  14
ENDBRANCH  11  13
ENDBRANCH   5   7
BRANCH   1  17
ATOM     17  C   UNL     1      48.724   7.399  13.695  0.00  0.00    +0.000 C 
ATOM     18  C   UNL     1      49.920   7.838  12.851  0.00  0.00    +0.000 C 
ATOM     19  C   UNL     1      49.359   8.768  13.867  0.00  0.00    +0.000 C 
BRANCH  17  20
ATOM     20  O   UNL     1      49.077   6.279  14.538  0.00  0.00    +0.000 OA
BRANCH  20  24
ATOM     21  C   UNL     1      48.025   5.863  18.423  0.00  0.00    +0.000 A 
ATOM     22  C   UNL     1      48.562   7.066  17.984  0.00  0.00    +0.000 A 
ATOM     23  N   UNL     1      48.864   7.295  16.679  0.00  0.00    +0.000 NA
ATOM     24  C   UNL     1      48.624   6.262  15.842  0.00  0.00    +0.000 A 
ATOM     25  C   UNL     1      48.047   5.072  16.280  0.00  0.00    +0.000 A 
ATOM     26  N   UNL     1      47.730   4.836  17.577  0.00  0.00    +0.000 NA
BRANCH  21  28
ATOM     27  N   UNL     1      48.153   4.363  20.316  0.00  0.00    +0.000 N 
ATOM     28  C   UNL     1      47.835   5.621  19.879  0.00  0.00    +0.000 C 
ATOM     29  O   UNL     1      47.450   6.498  20.645  0.00  0.00    +0.000 OA
ATOM     30  H   UNL     1      48.123   4.161  21.304  0.00  0.00    +0.000 HD
ATOM     31  H   UNL     1      48.516   3.676  19.663  0.00  0.00    +0.000 HD
ENDBRANCH  21  28
ENDBRANCH  20  24
ENDBRANCH  17  20
ENDBRANCH   1  17
TORSDOF 7
ENDMDL
MODEL 7
REMARK VINA RESULT:    -6.790      2.591      3.304
REMARK INTER + INTRA:         -10.723
REMARK INTER:                 -10.813
REMARK INTRA:                   0.090
REMARK UNBOUND:                -1.155
REMARK  Name = 
REMARK  7 active torsions:
REMARK  status: ('A' for Active; 'I' for Inactive)
REMARK    1  A    between atoms: C_2  and  C_4
REMARK    2  A    between atoms: C_7  and  O_8
REMARK    3  A    between atoms: O_8  and  C_9
REMARK    4  A    between atoms: C_9  and  C_10
REMARK    5  A    between atoms: C_14  and  C_15
REMARK    6  A    between atoms: C_19  and  O_20
REMARK    7  A    between atoms: O_20  and  C_21
REMARK                            x       y       z     vdW  Elec       q    Type
REMARK                         _______ _______ _______ _____ _____    ______ ____
ROOT
ATOM      1  C   UNL     1      44.745   5.751  11.578  0.00  0.00    +0.000 A 
ATOM      2  C   UNL     1      43.954   6.866  11.269  0.00  0.00    +0.000 A 
ATOM      3  C   UNL     1      44.459   8.161  11.379  0.00  0.00    +0.000 A 
ATOM      4  C   UNL     1      45.768   8.365  11.817  0.00  0.00    +0.000 A 
ATOM      5  C   UNL     1      46.606   7.282  12.131  0.00  0.00    +0.000 A 
ATOM      6  C   UNL     1      46.078   5.988  11.967  0.00  0.00    +0.000 A 
ENDROOT
BRANCH   5   7
ATOM      7  C   UNL     1      47.958   7.484  12.694  0.00  0.00    +0.000 A 
ATOM      8  C   UNL     1      49.066   7.639  11.852  0.00  0.00    +0.000 A 
ATOM      9  C   UNL     1      50.308   7.881  12.409  0.00  0.00    +0.000 A 
ATOM     10  N   UNL     1      50.524   7.996  13.734  0.00  0.00    +0.000 NA
ATOM     11  C   UNL     1      49.463   7.855  14.551  0.00  0.00    +0.000 A 
ATOM     12  C   UNL     1      48.184   7.579  14.078  0.00  0.00    +0.000 A 
BRANCH  11  13
ATOM     13  O   UNL     1      49.793   7.971  15.868  0.00  0.00    +0.000 OA
BRANCH  13  14
ATOM     14  C   UNL     1      50.823   7.100  16.277  0.00  0.00    +0.000 C 
ATOM     15  F   UNL     1      51.130   7.375  17.571  0.00  0.00    +0.000 F 
ATOM     16  F   UNL     1      50.325   5.837  16.261  0.00  0.00    +0.000 F 
ENDBRANCH  13  14
ENDBRANCH  11  13
ENDBRANCH   5   7
BRANCH   1  17
ATOM     17  C   UNL     1      44.154   4.353  11.549  0.00  0.00    +0.000 C 
ATOM     18  C   UNL     1      44.899   3.205  12.229  0.00  0.00    +0.000 C 
ATOM     19  C   UNL     1      43.682   3.771  12.871  0.00  0.00    +0.000 C 
BRANCH  17  20
ATOM     20  O   UNL     1      43.602   3.925  10.283  0.00  0.00    +0.000 OA
BRANCH  20  24
ATOM     21  C   UNL     1      46.418   2.533   7.732  0.00  0.00    +0.000 A 
ATOM     22  C   UNL     1      45.673   1.636   8.486  0.00  0.00    +0.000 A 
ATOM     23  N   UNL     1      44.662   2.034   9.302  0.00  0.00    +0.000 NA
ATOM     24  C   UNL     1      44.448   3.368   9.345  0.00  0.00    +0.000 A 
ATOM     25  C   UNL     1      45.169   4.260   8.556  0.00  0.00    +0.000 A 
ATOM     26  N   UNL     1      46.172   3.875   7.729  0.00  0.00    +0.000 NA
BRANCH  21  28
ATOM     27  N   UNL     1      48.435   3.033   6.495  0.00  0.00    +0.000 N 
ATOM     28  C   UNL     1      47.594   2.056   6.957  0.00  0.00    +0.000 C 
ATOM     29  O   UNL     1      47.817   0.865   6.769  0.00  0.00    +0.000 OA
ATOM     30  H   UNL     1      49.293   2.769   6.033  0.00  0.00    +0.000 HD
ATOM     31  H   UNL     1      48.248   4.006   6.711  0.00  0.00    +0.000 HD
ENDBRANCH  21  28
ENDBRANCH  20  24
ENDBRANCH  17  20
ENDBRANCH   1  17
TORSDOF 7
ENDMDL
MODEL 8
REMARK VINA RESULT:    -6.301      5.087      8.672
REMARK INTER + INTRA:         -10.034
REMARK INTER:                  -8.993
REMARK INTRA:                  -1.041
REMARK UNBOUND:                -1.155
REMARK  Name = 
REMARK  7 active torsions:
REMARK  status: ('A' for Active; 'I' for Inactive)
REMARK    1  A    between atoms: C_2  and  C_4
REMARK    2  A    between atoms: C_7  and  O_8
REMARK    3  A    between atoms: O_8  and  C_9
REMARK    4  A    between atoms: C_9  and  C_10
REMARK    5  A    between atoms: C_14  and  C_15
REMARK    6  A    between atoms: C_19  and  O_20
REMARK    7  A    between atoms: O_20  and  C_21
REMARK                            x       y       z     vdW  Elec       q    Type
REMARK                         _______ _______ _______ _____ _____    ______ ____
ROOT
ATOM      1  C   UNL     1      48.805   8.115  13.868  0.00  0.00    +0.000 A 
ATOM      2  C   UNL     1      49.680   8.369  12.802  0.00  0.00    +0.000 A 
ATOM      3  C   UNL     1      49.371   7.968  11.504  0.00  0.00    +0.000 A 
ATOM      4  C   UNL     1      48.179   7.290  11.248  0.00  0.00    +0.000 A 
ATOM      5  C   UNL     1      47.263   7.018  12.277  0.00  0.00    +0.000 A 
ATOM      6  C   UNL     1      47.587   7.474  13.568  0.00  0.00    +0.000 A 
ENDROOT
BRANCH   5   7
ATOM      7  C   UNL     1      46.047   6.210  12.041  0.00  0.00    +0.000 A 
ATOM      8  C   UNL     1      45.079   6.069  13.043  0.00  0.00    +0.000 A 
ATOM      9  C   UNL     1      43.927   5.352  12.772  0.00  0.00    +0.000 A 
ATOM     10  N   UNL     1      43.662   4.786  11.579  0.00  0.00    +0.000 NA
ATOM     11  C   UNL     1      44.585   4.922  10.607  0.00  0.00    +0.000 A 
ATOM     12  C   UNL     1      45.785   5.599  10.803  0.00  0.00    +0.000 A 
BRANCH  11  13
ATOM     13  O   UNL     1      44.227   4.298   9.450  0.00  0.00    +0.000 OA
BRANCH  13  14
ATOM     14  C   UNL     1      44.908   3.084   9.223  0.00  0.00    +0.000 C 
ATOM     15  F   UNL     1      44.031   2.191   8.698  0.00  0.00    +0.000 F 
ATOM     16  F   UNL     1      45.845   3.310   8.267  0.00  0.00    +0.000 F 
ENDBRANCH  13  14
ENDBRANCH  11  13
ENDBRANCH   5   7
BRANCH   1  17
ATOM     17  C   UNL     1      49.197   8.468  15.291  0.00  0.00    +0.000 C 
ATOM     18  C   UNL     1      49.269   9.935  15.712  0.00  0.00    +0.000 C 
ATOM     19  C   UNL     1      48.130   9.096  16.171  0.00  0.00    +0.000 C 
BRANCH  17  20
ATOM     20  O   UNL     1      50.305   7.722  15.845  0.00  0.00    +0.000 OA
BRANCH  20  24
ATOM     21  C   UNL     1      49.287   5.145  18.793  0.00  0.00    +0.000 A 
ATOM     22  C   UNL     1      48.981   4.833  17.475  0.00  0.00    +0.000 A 
ATOM     23  N   UNL     1      49.363   5.618  16.434  0.00  0.00    +0.000 NA
ATOM     24  C   UNL     1      50.043   6.735  16.774  0.00  0.00    +0.000 A 
ATOM     25  C   UNL     1      50.384   7.023  18.093  0.00  0.00    +0.000 A 
ATOM     26  N   UNL     1      50.019   6.242  19.140  0.00  0.00    +0.000 NA
BRANCH  21  28
ATOM     27  N   UNL     1      48.402   3.032  19.571  0.00  0.00    +0.000 N 
ATOM     28  C   UNL     1      48.733   4.320  19.900  0.00  0.00    +0.000 C 
ATOM     29  O   UNL     1      48.609   4.751  21.041  0.00  0.00    +0.000 OA
ATOM     30  H   UNL     1      48.099   2.399  20.296  0.00  0.00    +0.000 HD
ATOM     31  H   UNL     1      48.564   2.693  18.629  0.00  0.00    +0.000 HD
ENDBRANCH  21  28
ENDBRANCH  20  24
ENDBRANCH  17  20
ENDBRANCH   1  17
TORSDOF 7
ENDMDL
MODEL 9
REMARK VINA RESULT:    -6.287      4.582      6.462
REMARK INTER + INTRA:         -10.014
REMARK INTER:                  -9.141
REMARK INTRA:                  -0.873
REMARK UNBOUND:                -1.155
REMARK  Name = 
REMARK  7 active torsions:
REMARK  status: ('A' for Active; 'I' for Inactive)
REMARK    1  A    between atoms: C_2  and  C_4
REMARK    2  A    between atoms: C_7  and  O_8
REMARK    3  A    between atoms: O_8  and  C_9
REMARK    4  A    between atoms: C_9  and  C_10
REMARK    5  A    between atoms: C_14  and  C_15
REMARK    6  A    between atoms: C_19  and  O_20
REMARK    7  A    between atoms: O_20  and  C_21
REMARK                            x       y       z     vdW  Elec       q    Type
REMARK                         _______ _______ _______ _____ _____    ______ ____
ROOT
ATOM      1  C   UNL     1      48.350   8.220  14.172  0.00  0.00    +0.000 A 
ATOM      2  C   UNL     1      48.392   9.472  14.801  0.00  0.00    +0.000 A 
ATOM      3  C   UNL     1      48.683   9.588  16.159  0.00  0.00    +0.000 A 
ATOM      4  C   UNL     1      48.925   8.444  16.921  0.00  0.00    +0.000 A 
ATOM      5  C   UNL     1      48.904   7.166  16.339  0.00  0.00    +0.000 A 
ATOM      6  C   UNL     1      48.650   7.089  14.956  0.00  0.00    +0.000 A 
ENDROOT
BRANCH   5   7
ATOM      7  C   UNL     1      49.055   5.940  17.150  0.00  0.00    +0.000 A 
ATOM      8  C   UNL     1      48.032   5.523  18.011  0.00  0.00    +0.000 A 
ATOM      9  C   UNL     1      48.182   4.341  18.715  0.00  0.00    +0.000 A 
ATOM     10  N   UNL     1      49.261   3.542  18.611  0.00  0.00    +0.000 NA
ATOM     11  C   UNL     1      50.247   3.931  17.781  0.00  0.00    +0.000 A 
ATOM     12  C   UNL     1      50.193   5.119  17.059  0.00  0.00    +0.000 A 
BRANCH  11  13
ATOM     13  O   UNL     1      51.297   3.062  17.765  0.00  0.00    +0.000 OA
BRANCH  13  14
ATOM     14  C   UNL     1      50.940   1.746  17.407  0.00  0.00    +0.000 C 
ATOM     15  F   UNL     1      50.158   1.799  16.298  0.00  0.00    +0.000 F 
ATOM     16  F   UNL     1      52.076   1.095  17.045  0.00  0.00    +0.000 F 
ENDBRANCH  13  14
ENDBRANCH  11  13
ENDBRANCH   5   7
BRANCH   1  17
ATOM     17  C   UNL     1      47.935   8.100  12.717  0.00  0.00    +0.000 C 
ATOM     18  C   UNL     1      48.515   9.066  11.685  0.00  0.00    +0.000 C 
ATOM     19  C   UNL     1      48.998   7.659  11.725  0.00  0.00    +0.000 C 
BRANCH  17  20
ATOM     20  O   UNL     1      46.526   7.882  12.477  0.00  0.00    +0.000 OA
BRANCH  20  24
ATOM     21  C   UNL     1      44.864   4.233  11.936  0.00  0.00    +0.000 A 
ATOM     22  C   UNL     1      45.219   4.994  10.831  0.00  0.00    +0.000 A 
ATOM     23  N   UNL     1      45.850   6.193  10.944  0.00  0.00    +0.000 NA
ATOM     24  C   UNL     1      46.088   6.600  12.210  0.00  0.00    +0.000 A 
ATOM     25  C   UNL     1      45.769   5.815  13.315  0.00  0.00    +0.000 A 
ATOM     26  N   UNL     1      45.150   4.612  13.215  0.00  0.00    +0.000 NA
BRANCH  21  28
ATOM     27  N   UNL     1      44.108   2.431  10.511  0.00  0.00    +0.000 N 
ATOM     28  C   UNL     1      44.062   2.993  11.759  0.00  0.00    +0.000 C 
ATOM     29  O   UNL     1      43.425   2.487  12.677  0.00  0.00    +0.000 OA
ATOM     30  H   UNL     1      43.651   1.545  10.351  0.00  0.00    +0.000 HD
ATOM     31  H   UNL     1      44.685   2.848   9.788  0.00  0.00    +0.000 HD
ENDBRANCH  21  28
ENDBRANCH  20  24
ENDBRANCH  17  20
ENDBRANCH   1  17
TORSDOF 7
ENDMDL
