MODEL 1
REMARK VINA RESULT:    -7.968      0.000      0.000
REMARK INTER + INTRA:         -11.654
REMARK INTER:                 -10.995
REMARK INTRA:                  -0.658
REMARK UNBOUND:                -0.658
REMARK  Name = 
REMARK  7 active torsions:
REMARK  status: ('A' for Active; 'I' for Inactive)
REMARK    1  A    between atoms: N_1  and  C_2
REMARK    2  A    between atoms: C_2  and  C_3
REMARK    3  A    between atoms: C_7  and  C_8
REMARK    4  A    between atoms: C_8  and  C_9
REMARK    5  A    between atoms: C_9  and  C_10
REMARK    6  A    between atoms: C_10  and  N_11
REMARK    7  A    between atoms: C_15  and  C_16
REMARK                            x       y       z     vdW  Elec       q    Type
REMARK                         _______ _______ _______ _____ _____    ______ ____
ROOT
ATOM      1  C   UNL     1      43.040   4.475  10.976  0.00  0.00    +0.000 C 
ENDROOT
BRANCH   1   2
ATOM      2  N   UNL     1      43.833   4.923   9.830  0.00  0.00    +0.000 N 
ATOM      3  C   UNL     1      44.613   3.924   9.229  0.00  0.00    +0.000 A 
ATOM      4  C   UNL     1      45.400   4.261   8.130  0.00  0.00    +0.000 A 
ATOM      5  C   UNL     1      46.185   3.284   7.514  0.00  0.00    +0.000 A 
ATOM      6  C   UNL     1      46.172   1.981   8.008  0.00  0.00    +0.000 A 
ATOM      7  C   UNL     1      45.351   1.729   9.094  0.00  0.00    +0.000 A 
ATOM      8  N   UNL     1      44.576   2.662   9.701  0.00  0.00    +0.000 NA
ATOM      9  H   UNL     1      44.437   5.706  10.068  0.00  0.00    +0.000 HD
BRANCH   6  10
ATOM     10  C   UNL     1      47.023   0.948   7.365  0.00  0.00    +0.000 C 
ATOM     11  N   UNL     1      46.783  -0.370   7.640  0.00  0.00    +0.000 N 
ATOM     12  O   UNL     1      47.932   1.261   6.606  0.00  0.00    +0.000 OA
ATOM     13  H   UNL     1      46.069  -0.736   8.246  0.00  0.00    +0.000 HD
ATOM     14  H   UNL     1      47.395  -1.038   7.185  0.00  0.00    +0.000 HD
ENDBRANCH   6  10
ENDBRANCH   1   2
BRANCH   1  15
ATOM     15  C   UNL     1      43.156   5.512  12.095  0.00  0.00    +0.000 C 
BRANCH  15  16
ATOM     16  C   UNL     1      44.059   6.687  11.707  0.00  0.00    +0.000 C 
BRANCH  16  21
ATOM     17  C   UNL     1      46.937   5.408  13.880  0.00  0.00    +0.000 A 
ATOM     18  C   UNL     1      48.027   6.059  13.289  0.00  0.00    +0.000 A 
ATOM     19  C   UNL     1      47.832   6.937  12.221  0.00  0.00    +0.000 A 
ATOM     20  C   UNL     1      46.548   7.161  11.721  0.00  0.00    +0.000 A 
ATOM     21  C   UNL     1      45.443   6.521  12.294  0.00  0.00    +0.000 A 
ATOM     22  C   UNL     1      45.647   5.662  13.383  0.00  0.00    +0.000 A 
BRANCH  17  23
ATOM     23  C   UNL     1      47.138   4.444  15.021  0.00  0.00    +0.000 C 
BRANCH  23  24
ATOM     24  N   UNL     1      47.502   3.114  14.544  0.00  0.00    +0.000 NA
ATOM     25  H   UNL     1      47.427   3.089  13.530  0.00  0.00    +0.000 HD
ATOM     26  H   UNL     1      46.822   2.443  14.901  0.00  0.00    +0.000 HD
ENDBRANCH  23  24
ENDBRANCH  17  23
ENDBRANCH  16  21
ENDBRANCH  15  16
ENDBRANCH   1  15
TORSDOF 7
ENDMDL
MODEL 2
REMARK VINA RESULT:    -7.756      1.533      2.485
REMARK INTER + INTRA:         -11.362
REMARK INTER:                 -10.671
REMARK INTRA:                  -0.690
REMARK UNBOUND:                -0.658
REMARK  Name = 
REMARK  7 active torsions:
REMARK  status: ('A' for Active; 'I' for Inactive)
REMARK    1  A    between atoms: N_1  and  C_2
REMARK    2  A    between atoms: C_2  and  C_3
REMARK    3  A    between atoms: C_7  and  C_8
REMARK    4  A    between atoms: C_8  and  C_9
REMARK    5  A    between atoms: C_9  and  C_10
REMARK    6  A    between atoms: C_10  and  N_11
REMARK    7  A    between atoms: C_15  and  C_16
REMARK                            x       y       z     vdW  Elec       q    Type
REMARK                         _______ _______ _______ _____ _____    ______ ____
ROOT
ATOM      1  C   UNL     1      43.126   4.581  11.009  0.00  0.00    +0.000 C 
ENDROOT
BRANCH   1   2
ATOM      2  N   UNL     1      44.033   5.055   9.962  0.00  0.00    +0.000 N 
ATOM      3  C   UNL     1      44.766   4.046   9.320  0.00  0.00    +0.000 A 
ATOM      4  C   UNL     1      45.655   4.406   8.310  0.00  0.00    +0.000 A 
ATOM      5  C   UNL     1      46.395   3.420   7.654  0.00  0.00    +0.000 A 
ATOM      6  C   UNL     1      46.237   2.085   8.021  0.00  0.00    +0.000 A 
ATOM      7  C   UNL     1      45.322   1.814   9.024  0.00  0.00    +0.000 A 
ATOM      8  N   UNL     1      44.588   2.756   9.667  0.00  0.00    +0.000 NA
ATOM      9  H   UNL     1      44.684   5.756  10.311  0.00  0.00    +0.000 HD
BRANCH   6  10
ATOM     10  C   UNL     1      47.040   1.040   7.338  0.00  0.00    +0.000 C 
ATOM     11  N   UNL     1      46.795  -0.274   7.625  0.00  0.00    +0.000 N 
ATOM     12  O   UNL     1      47.915   1.340   6.535  0.00  0.00    +0.000 OA
ATOM     13  H   UNL     1      46.106  -0.630   8.265  0.00  0.00    +0.000 HD
ATOM     14  H   UNL     1      47.374  -0.951   7.141  0.00  0.00    +0.000 HD
ENDBRANCH   6  10
ENDBRANCH   1   2
BRANCH   1  15
ATOM     15  C   UNL     1      43.465   5.294  12.320  0.00  0.00    +0.000 C 
BRANCH  15  16
ATOM     16  C   UNL     1      44.800   4.826  12.907  0.00  0.00    +0.000 C 
BRANCH  16  21
ATOM     17  C   UNL     1      46.313   8.329  12.616  0.00  0.00    +0.000 A 
ATOM     18  C   UNL     1      47.590   8.113  13.149  0.00  0.00    +0.000 A 
ATOM     19  C   UNL     1      47.976   6.837  13.564  0.00  0.00    +0.000 A 
ATOM     20  C   UNL     1      47.086   5.766  13.466  0.00  0.00    +0.000 A 
ATOM     21  C   UNL     1      45.804   5.957  12.937  0.00  0.00    +0.000 A 
ATOM     22  C   UNL     1      45.436   7.237  12.500  0.00  0.00    +0.000 A 
BRANCH  17  23
ATOM     23  C   UNL     1      45.879   9.705  12.182  0.00  0.00    +0.000 C 
BRANCH  23  24
ATOM     24  N   UNL     1      44.501   9.983  12.576  0.00  0.00    +0.000 NA
ATOM     25  H   UNL     1      43.928  10.082  11.742  0.00  0.00    +0.000 HD
ATOM     26  H   UNL     1      44.475  10.884  13.053  0.00  0.00    +0.000 HD
ENDBRANCH  23  24
ENDBRANCH  17  23
ENDBRANCH  16  21
ENDBRANCH  15  16
ENDBRANCH   1  15
TORSDOF 7
ENDMDL
MODEL 3
REMARK VINA RESULT:    -7.465      2.815      6.268
REMARK INTER + INTRA:         -10.960
REMARK INTER:                 -10.127
REMARK INTRA:                  -0.833
REMARK UNBOUND:                -0.658
REMARK  Name = 
REMARK  7 active torsions:
REMARK  status: ('A' for Active; 'I' for Inactive)
REMARK    1  A    between atoms: N_1  and  C_2
REMARK    2  A    between atoms: C_2  and  C_3
REMARK    3  A    between atoms: C_7  and  C_8
REMARK    4  A    between atoms: C_8  and  C_9
REMARK    5  A    between atoms: C_9  and  C_10
REMARK    6  A    between atoms: C_10  and  N_11
REMARK    7  A    between atoms: C_15  and  C_16
REMARK                            x       y       z     vdW  Elec       q    Type
REMARK                         _______ _______ _______ _____ _____    ______ ____
ROOT
ATOM      1  C   UNL     1      43.195   4.696  12.759  0.00  0.00    +0.000 C 
ENDROOT
BRANCH   1   2
ATOM      2  N   UNL     1      43.679   6.065  12.579  0.00  0.00    +0.000 N 
ATOM      3  C   UNL     1      45.035   6.254  12.888  0.00  0.00    +0.000 A 
ATOM      4  C   UNL     1      45.582   7.527  12.745  0.00  0.00    +0.000 A 
ATOM      5  C   UNL     1      46.929   7.740  13.046  0.00  0.00    +0.000 A 
ATOM      6  C   UNL     1      47.711   6.674  13.488  0.00  0.00    +0.000 A 
ATOM      7  C   UNL     1      47.091   5.440  13.587  0.00  0.00    +0.000 A 
ATOM      8  N   UNL     1      45.787   5.212  13.293  0.00  0.00    +0.000 NA
ATOM      9  H   UNL     1      43.130   6.737  13.110  0.00  0.00    +0.000 HD
BRANCH   6  10
ATOM     10  C   UNL     1      49.137   6.906  13.827  0.00  0.00    +0.000 C 
ATOM     11  N   UNL     1      49.961   7.452  12.882  0.00  0.00    +0.000 N 
ATOM     12  O   UNL     1      49.580   6.611  14.931  0.00  0.00    +0.000 OA
ATOM     13  H   UNL     1      49.703   7.729  11.950  0.00  0.00    +0.000 HD
ATOM     14  H   UNL     1      50.928   7.585  13.157  0.00  0.00    +0.000 HD
ENDBRANCH   6  10
ENDBRANCH   1   2
BRANCH   1  15
ATOM     15  C   UNL     1      42.971   4.064  11.384  0.00  0.00    +0.000 C 
BRANCH  15  16
ATOM     16  C   UNL     1      43.934   2.904  11.114  0.00  0.00    +0.000 C 
BRANCH  16  21
ATOM     17  C   UNL     1      46.146   2.416   8.030  0.00  0.00    +0.000 A 
ATOM     18  C   UNL     1      46.356   3.745   7.640  0.00  0.00    +0.000 A 
ATOM     19  C   UNL     1      45.821   4.795   8.389  0.00  0.00    +0.000 A 
ATOM     20  C   UNL     1      45.057   4.529   9.526  0.00  0.00    +0.000 A 
ATOM     21  C   UNL     1      44.832   3.209   9.936  0.00  0.00    +0.000 A 
ATOM     22  C   UNL     1      45.396   2.163   9.191  0.00  0.00    +0.000 A 
BRANCH  17  23
ATOM     23  C   UNL     1      46.703   1.275   7.219  0.00  0.00    +0.000 C 
BRANCH  23  24
ATOM     24  N   UNL     1      48.119   1.469   6.921  0.00  0.00    +0.000 NA
ATOM     25  H   UNL     1      48.367   2.440   7.093  0.00  0.00    +0.000 HD
ATOM     26  H   UNL     1      48.266   1.305   5.925  0.00  0.00    +0.000 HD
ENDBRANCH  23  24
ENDBRANCH  17  23
ENDBRANCH  16  21
ENDBRANCH  15  16
ENDBRANCH   1  15
TORSDOF 7
ENDMDL
MODEL 4
REMARK VINA RESULT:    -7.203      1.938      2.640
REMARK INTER + INTRA:         -10.599
REMARK INTER:                  -9.962
REMARK INTRA:                  -0.637
REMARK UNBOUND:                -0.658
REMARK  Name = 
REMARK  7 active torsions:
REMARK  status: ('A' for Active; 'I' for Inactive)
REMARK    1  A    between atoms: N_1  and  C_2
REMARK    2  A    between atoms: C_2  and  C_3
REMARK    3  A    between atoms: C_7  and  C_8
REMARK    4  A    between atoms: C_8  and  C_9
REMARK    5  A    between atoms: C_9  and  C_10
REMARK    6  A    between atoms: C_10  and  N_11
REMARK    7  A    between atoms: C_15  and  C_16
REMARK                            x       y       z     vdW  Elec       q    Type
REMARK                         _______ _______ _______ _____ _____    ______ ____
ROOT
ATOM      1  C   UNL     1      43.461   5.139  10.900  0.00  0.00    +0.000 C 
ENDROOT
BRANCH   1   2
ATOM      2  N   UNL     1      43.663   3.710  10.656  0.00  0.00    +0.000 N 
ATOM      3  C   UNL     1      44.588   3.411   9.645  0.00  0.00    +0.000 A 
ATOM      4  C   UNL     1      44.842   2.075   9.346  0.00  0.00    +0.000 A 
ATOM      5  C   UNL     1      45.760   1.752   8.344  0.00  0.00    +0.000 A 
ATOM      6  C   UNL     1      46.410   2.773   7.653  0.00  0.00    +0.000 A 
ATOM      7  C   UNL     1      46.109   4.072   8.024  0.00  0.00    +0.000 A 
ATOM      8  N   UNL     1      45.227   4.406   8.999  0.00  0.00    +0.000 NA
ATOM      9  H   UNL     1      42.789   3.232  10.447  0.00  0.00    +0.000 HD
BRANCH   6  10
ATOM     10  C   UNL     1      47.370   2.429   6.573  0.00  0.00    +0.000 C 
ATOM     11  N   UNL     1      47.243   3.041   5.357  0.00  0.00    +0.000 N 
ATOM     12  O   UNL     1      48.258   1.606   6.757  0.00  0.00    +0.000 OA
ATOM     13  H   UNL     1      46.553   3.727   5.100  0.00  0.00    +0.000 HD
ATOM     14  H   UNL     1      47.916   2.769   4.649  0.00  0.00    +0.000 HD
ENDBRANCH   6  10
ENDBRANCH   1   2
BRANCH   1  15
ATOM     15  C   UNL     1      43.808   5.448  12.358  0.00  0.00    +0.000 C 
BRANCH  15  16
ATOM     16  C   UNL     1      45.296   5.244  12.656  0.00  0.00    +0.000 C 
BRANCH  16  21
ATOM     17  C   UNL     1      48.103   7.770  12.041  0.00  0.00    +0.000 A 
ATOM     18  C   UNL     1      47.424   8.978  12.243  0.00  0.00    +0.000 A 
ATOM     19  C   UNL     1      46.078   8.979  12.614  0.00  0.00    +0.000 A 
ATOM     20  C   UNL     1      45.392   7.774  12.772  0.00  0.00    +0.000 A 
ATOM     21  C   UNL     1      46.049   6.553  12.575  0.00  0.00    +0.000 A 
ATOM     22  C   UNL     1      47.407   6.564  12.228  0.00  0.00    +0.000 A 
BRANCH  17  23
ATOM     23  C   UNL     1      49.551   7.758  11.623  0.00  0.00    +0.000 C 
BRANCH  23  24
ATOM     24  N   UNL     1      50.438   7.555  12.765  0.00  0.00    +0.000 NA
ATOM     25  H   UNL     1      51.000   6.722  12.609  0.00  0.00    +0.000 HD
ATOM     26  H   UNL     1      49.867   7.368  13.590  0.00  0.00    +0.000 HD
ENDBRANCH  23  24
ENDBRANCH  17  23
ENDBRANCH  16  21
ENDBRANCH  15  16
ENDBRANCH   1  15
TORSDOF 7
ENDMDL
MODEL 5
REMARK VINA RESULT:    -6.916      3.127      7.072
REMARK INTER + INTRA:         -10.203
REMARK INTER:                  -9.696
REMARK INTRA:                  -0.507
REMARK UNBOUND:                -0.658
REMARK  Name = 
REMARK  7 active torsions:
REMARK  status: ('A' for Active; 'I' for Inactive)
REMARK    1  A    between atoms: N_1  and  C_2
REMARK    2  A    between atoms: C_2  and  C_3
REMARK    3  A    between atoms: C_7  and  C_8
REMARK    4  A    between atoms: C_8  and  C_9
REMARK    5  A    between atoms: C_9  and  C_10
REMARK    6  A    between atoms: C_10  and  N_11
REMARK    7  A    between atoms: C_15  and  C_16
REMARK                            x       y       z     vdW  Elec       q    Type
REMARK                         _______ _______ _______ _____ _____    ______ ____
ROOT
ATOM      1  C   UNL     1      44.590   4.072  12.526  0.00  0.00    +0.000 C 
ENDROOT
BRANCH   1   2
ATOM      2  N   UNL     1      45.580   5.150  12.488  0.00  0.00    +0.000 N 
ATOM      3  C   UNL     1      46.433   5.204  13.601  0.00  0.00    +0.000 A 
ATOM      4  C   UNL     1      47.407   6.198  13.649  0.00  0.00    +0.000 A 
ATOM      5  C   UNL     1      48.269   6.272  14.746  0.00  0.00    +0.000 A 
ATOM      6  C   UNL     1      48.142   5.348  15.782  0.00  0.00    +0.000 A 
ATOM      7  C   UNL     1      47.157   4.385  15.646  0.00  0.00    +0.000 A 
ATOM      8  N   UNL     1      46.316   4.292  14.587  0.00  0.00    +0.000 NA
ATOM      9  H   UNL     1      45.146   6.063  12.369  0.00  0.00    +0.000 HD
BRANCH   6  10
ATOM     10  C   UNL     1      49.044   5.440  16.957  0.00  0.00    +0.000 C 
ATOM     11  N   UNL     1      49.731   4.326  17.351  0.00  0.00    +0.000 N 
ATOM     12  O   UNL     1      49.172   6.491  17.574  0.00  0.00    +0.000 OA
ATOM     13  H   UNL     1      49.699   3.418  16.920  0.00  0.00    +0.000 HD
ATOM     14  H   UNL     1      50.329   4.436  18.163  0.00  0.00    +0.000 HD
ENDBRANCH   6  10
ENDBRANCH   1   2
BRANCH   1  15
ATOM     15  C   UNL     1      43.799   4.079  11.217  0.00  0.00    +0.000 C 
BRANCH  15  16
ATOM     16  C   UNL     1      43.992   2.788  10.415  0.00  0.00    +0.000 C 
BRANCH  16  21
ATOM     17  C   UNL     1      46.542   2.001   7.674  0.00  0.00    +0.000 A 
ATOM     18  C   UNL     1      46.804   3.284   7.177  0.00  0.00    +0.000 A 
ATOM     19  C   UNL     1      46.192   4.402   7.747  0.00  0.00    +0.000 A 
ATOM     20  C   UNL     1      45.300   4.249   8.810  0.00  0.00    +0.000 A 
ATOM     21  C   UNL     1      45.022   2.977   9.324  0.00  0.00    +0.000 A 
ATOM     22  C   UNL     1      45.662   1.864   8.760  0.00  0.00    +0.000 A 
BRANCH  17  23
ATOM     23  C   UNL     1      47.183   0.786   7.054  0.00  0.00    +0.000 C 
BRANCH  23  24
ATOM     24  N   UNL     1      46.783  -0.440   7.738  0.00  0.00    +0.000 NA
ATOM     25  H   UNL     1      46.784  -1.210   7.074  0.00  0.00    +0.000 HD
ATOM     26  H   UNL     1      45.820  -0.334   8.056  0.00  0.00    +0.000 HD
ENDBRANCH  23  24
ENDBRANCH  17  23
ENDBRANCH  16  21
ENDBRANCH  15  16
ENDBRANCH   1  15
TORSDOF 7
ENDMDL
MODEL 6
REMARK VINA RESULT:    -6.542      3.303      7.082
REMARK INTER + INTRA:          -9.687
REMARK INTER:                  -9.182
REMARK INTRA:                  -0.504
REMARK UNBOUND:                -0.658
REMARK  Name = 
REMARK  7 active torsions:
REMARK  status: ('A' for Active; 'I' for Inactive)
REMARK    1  A    between atoms: N_1  and  C_2
REMARK    2  A    between atoms: C_2  and  C_3
REMARK    3  A    between atoms: C_7  and  C_8
REMARK    4  A    between atoms: C_8  and  C_9
REMARK    5  A    between atoms: C_9  and  C_10
REMARK    6  A    between atoms: C_10  and  N_11
REMARK    7  A    between atoms: C_15  and  C_16
REMARK                            x       y       z     vdW  Elec       q    Type
REMARK                         _______ _______ _______ _____ _____    ______ ____
ROOT
ATOM      1  C   UNL     1      44.793   4.351  11.669  0.00  0.00    +0.000 C 
ENDROOT
BRANCH   1   2
ATOM      2  N   UNL     1      44.430   5.712  12.067  0.00  0.00    +0.000 N 
ATOM      3  C   UNL     1      45.501   6.617  12.104  0.00  0.00    +0.000 A 
ATOM      4  C   UNL     1      45.248   7.937  12.473  0.00  0.00    +0.000 A 
ATOM      5  C   UNL     1      46.296   8.858  12.515  0.00  0.00    +0.000 A 
ATOM      6  C   UNL     1      47.587   8.445  12.189  0.00  0.00    +0.000 A 
ATOM      7  C   UNL     1      47.747   7.120  11.820  0.00  0.00    +0.000 A 
ATOM      8  N   UNL     1      46.741   6.213  11.765  0.00  0.00    +0.000 NA
ATOM      9  H   UNL     1      43.959   5.732  12.969  0.00  0.00    +0.000 HD
BRANCH   6  10
ATOM     10  C   UNL     1      48.705   9.420  12.256  0.00  0.00    +0.000 C 
ATOM     11  N   UNL     1      48.694  10.495  11.412  0.00  0.00    +0.000 N 
ATOM     12  O   UNL     1      49.629   9.268  13.046  0.00  0.00    +0.000 OA
ATOM     13  H   UNL     1      47.990  10.714  10.729  0.00  0.00    +0.000 HD
ATOM     14  H   UNL     1      49.482  11.129  11.489  0.00  0.00    +0.000 HD
ENDBRANCH   6  10
ENDBRANCH   1   2
BRANCH   1  15
ATOM     15  C   UNL     1      43.824   3.877  10.584  0.00  0.00    +0.000 C 
BRANCH  15  16
ATOM     16  C   UNL     1      44.257   4.322   9.183  0.00  0.00    +0.000 C 
BRANCH  16  21
ATOM     17  C   UNL     1      46.703   2.609   6.790  0.00  0.00    +0.000 A 
ATOM     18  C   UNL     1      46.745   1.318   7.330  0.00  0.00    +0.000 A 
ATOM     19  C   UNL     1      45.960   0.989   8.437  0.00  0.00    +0.000 A 
ATOM     20  C   UNL     1      45.136   1.950   9.025  0.00  0.00    +0.000 A 
ATOM     21  C   UNL     1      45.077   3.247   8.504  0.00  0.00    +0.000 A 
ATOM     22  C   UNL     1      45.850   3.560   7.376  0.00  0.00    +0.000 A 
BRANCH  17  23
ATOM     23  C   UNL     1      47.559   2.981   5.607  0.00  0.00    +0.000 C 
BRANCH  23  24
ATOM     24  N   UNL     1      48.444   1.886   5.219  0.00  0.00    +0.000 NA
ATOM     25  H   UNL     1      49.389   2.243   5.108  0.00  0.00    +0.000 HD
ATOM     26  H   UNL     1      48.154   1.544   4.303  0.00  0.00    +0.000 HD
ENDBRANCH  23  24
ENDBRANCH  17  23
ENDBRANCH  16  21
ENDBRANCH  15  16
ENDBRANCH   1  15
TORSDOF 7
ENDMDL
MODEL 7
REMARK VINA RESULT:    -6.533      3.859      7.994
REMARK INTER + INTRA:          -9.674
REMARK INTER:                  -9.220
REMARK INTRA:                  -0.454
REMARK UNBOUND:                -0.658
REMARK  Name = 
REMARK  7 active torsions:
REMARK  status: ('A' for Active; 'I' for Inactive)
REMARK    1  A    between atoms: N_1  and  C_2
REMARK    2  A    between atoms: C_2  and  C_3
REMARK    3  A    between atoms: C_7  and  C_8
REMARK    4  A    between atoms: C_8  and  C_9
REMARK    5  A    between atoms: C_9  and  C_10
REMARK    6  A    between atoms: C_10  and  N_11
REMARK    7  A    between atoms: C_15  and  C_16
REMARK                            x       y       z     vdW  Elec       q    Type
REMARK                         _______ _______ _______ _____ _____    ______ ____
ROOT
ATOM      1  C   UNL     1      47.036   5.352  13.346  0.00  0.00    +0.000 C 
ENDROOT
BRANCH   1   2
ATOM      2  N   UNL     1      46.756   4.237  14.251  0.00  0.00    +0.000 N 
ATOM      3  C   UNL     1      47.406   4.311  15.492  0.00  0.00    +0.000 A 
ATOM      4  C   UNL     1      47.197   3.291  16.418  0.00  0.00    +0.000 A 
ATOM      5  C   UNL     1      47.831   3.343  17.661  0.00  0.00    +0.000 A 
ATOM      6  C   UNL     1      48.668   4.417  17.961  0.00  0.00    +0.000 A 
ATOM      7  C   UNL     1      48.807   5.393  16.990  0.00  0.00    +0.000 A 
ATOM      8  N   UNL     1      48.195   5.365  15.781  0.00  0.00    +0.000 NA
ATOM      9  H   UNL     1      46.973   3.337  13.826  0.00  0.00    +0.000 HD
BRANCH   6  10
ATOM     10  C   UNL     1      49.358   4.460  19.275  0.00  0.00    +0.000 C 
ATOM     11  N   UNL     1      48.693   4.018  20.385  0.00  0.00    +0.000 N 
ATOM     12  O   UNL     1      50.501   4.889  19.374  0.00  0.00    +0.000 OA
ATOM     13  H   UNL     1      47.758   3.649  20.417  0.00  0.00    +0.000 HD
ATOM     14  H   UNL     1      49.202   4.074  21.260  0.00  0.00    +0.000 HD
ENDBRANCH   6  10
ENDBRANCH   1   2
BRANCH   1  15
ATOM     15  C   UNL     1      45.710   5.939  12.858  0.00  0.00    +0.000 C 
BRANCH  15  16
ATOM     16  C   UNL     1      45.714   6.210  11.351  0.00  0.00    +0.000 C 
BRANCH  16  21
ATOM     17  C   UNL     1      45.307   3.645   8.541  0.00  0.00    +0.000 A 
ATOM     18  C   UNL     1      44.546   2.662   9.185  0.00  0.00    +0.000 A 
ATOM     19  C   UNL     1      44.131   2.842  10.506  0.00  0.00    +0.000 A 
ATOM     20  C   UNL     1      44.486   3.998  11.203  0.00  0.00    +0.000 A 
ATOM     21  C   UNL     1      45.248   4.995  10.581  0.00  0.00    +0.000 A 
ATOM     22  C   UNL     1      45.636   4.816   9.246  0.00  0.00    +0.000 A 
BRANCH  17  23
ATOM     23  C   UNL     1      45.775   3.454   7.121  0.00  0.00    +0.000 C 
BRANCH  23  24
ATOM     24  N   UNL     1      47.054   4.117   6.883  0.00  0.00    +0.000 NA
ATOM     25  H   UNL     1      47.662   3.969   7.684  0.00  0.00    +0.000 HD
ATOM     26  H   UNL     1      46.892   5.122   6.824  0.00  0.00    +0.000 HD
ENDBRANCH  23  24
ENDBRANCH  17  23
ENDBRANCH  16  21
ENDBRANCH  15  16
ENDBRANCH   1  15
TORSDOF 7
ENDMDL
MODEL 8
REMARK VINA RESULT:    -6.513      2.585      6.704
REMARK INTER + INTRA:          -9.646
REMARK INTER:                  -9.095
REMARK INTRA:                  -0.551
REMARK UNBOUND:                -0.658
REMARK  Name = 
REMARK  7 active torsions:
REMARK  status: ('A' for Active; 'I' for Inactive)
REMARK    1  A    between atoms: N_1  and  C_2
REMARK    2  A    between atoms: C_2  and  C_3
REMARK    3  A    between atoms: C_7  and  C_8
REMARK    4  A    between atoms: C_8  and  C_9
REMARK    5  A    between atoms: C_9  and  C_10
REMARK    6  A    between atoms: C_10  and  N_11
REMARK    7  A    between atoms: C_15  and  C_16
REMARK                            x       y       z     vdW  Elec       q    Type
REMARK                         _______ _______ _______ _____ _____    ______ ____
ROOT
ATOM      1  C   UNL     1      43.843   4.676  10.905  0.00  0.00    +0.000 C 
ENDROOT
BRANCH   1   2
ATOM      2  N   UNL     1      44.823   5.747  10.721  0.00  0.00    +0.000 N 
ATOM      3  C   UNL     1      45.745   5.886  11.769  0.00  0.00    +0.000 A 
ATOM      4  C   UNL     1      46.715   6.881  11.678  0.00  0.00    +0.000 A 
ATOM      5  C   UNL     1      47.646   7.039  12.708  0.00  0.00    +0.000 A 
ATOM      6  C   UNL     1      47.591   6.196  13.817  0.00  0.00    +0.000 A 
ATOM      7  C   UNL     1      46.605   5.225  13.819  0.00  0.00    +0.000 A 
ATOM      8  N   UNL     1      45.698   5.051  12.826  0.00  0.00    +0.000 NA
ATOM      9  H   UNL     1      44.377   6.649  10.562  0.00  0.00    +0.000 HD
BRANCH   6  10
ATOM     10  C   UNL     1      48.568   6.378  14.921  0.00  0.00    +0.000 C 
ATOM     11  N   UNL     1      48.189   6.062  16.196  0.00  0.00    +0.000 N 
ATOM     12  O   UNL     1      49.693   6.810  14.703  0.00  0.00    +0.000 OA
ATOM     13  H   UNL     1      47.295   5.704  16.484  0.00  0.00    +0.000 HD
ATOM     14  H   UNL     1      48.886   6.211  16.917  0.00  0.00    +0.000 HD
ENDBRANCH   6  10
ENDBRANCH   1   2
BRANCH   1  15
ATOM     15  C   UNL     1      44.151   3.548   9.918  0.00  0.00    +0.000 C 
BRANCH  15  16
ATOM     16  C   UNL     1      44.552   4.077   8.538  0.00  0.00    +0.000 C 
BRANCH  16  21
ATOM     17  C   UNL     1      46.741   1.070   7.637  0.00  0.00    +0.000 A 
ATOM     18  C   UNL     1      47.628   1.651   6.723  0.00  0.00    +0.000 A 
ATOM     19  C   UNL     1      47.548   3.013   6.427  0.00  0.00    +0.000 A 
ATOM     20  C   UNL     1      46.570   3.807   7.029  0.00  0.00    +0.000 A 
ATOM     21  C   UNL     1      45.671   3.249   7.946  0.00  0.00    +0.000 A 
ATOM     22  C   UNL     1      45.778   1.886   8.256  0.00  0.00    +0.000 A 
BRANCH  17  23
ATOM     23  C   UNL     1      46.807  -0.402   7.951  0.00  0.00    +0.000 C 
BRANCH  23  24
ATOM     24  N   UNL     1      46.489  -1.216   6.781  0.00  0.00    +0.000 NA
ATOM     25  H   UNL     1      47.128  -0.980   6.026  0.00  0.00    +0.000 HD
ATOM     26  H   UNL     1      45.554  -0.967   6.458  0.00  0.00    +0.000 HD
ENDBRANCH  23  24
ENDBRANCH  17  23
ENDBRANCH  16  21
ENDBRANCH  15  16
ENDBRANCH   1  15
TORSDOF 7
ENDMDL
MODEL 9
REMARK VINA RESULT:    -6.098      4.537      6.859
REMARK INTER + INTRA:          -9.074
REMARK INTER:                  -8.706
REMARK INTRA:                  -0.368
REMARK UNBOUND:                -0.658
REMARK  Name = 
REMARK  7 active torsions:
REMARK  status: ('A' for Active; 'I' for Inactive)
REMARK    1  A    between atoms: N_1  and  C_2
REMARK    2  A    between atoms: C_2  and  C_3
REMARK    3  A    between atoms: C_7  and  C_8
REMARK    4  A    between atoms: C_8  and  C_9
REMARK    5  A    between atoms: C_9  and  C_10
REMARK    6  A    between atoms: C_10  and  N_11
REMARK    7  A    between atoms: C_15  and  C_16
REMARK                            x       y       z     vdW  Elec       q    Type
REMARK                         _______ _______ _______ _____ _____    ______ ____
ROOT
ATOM      1  C   UNL     1      47.165   4.006  16.133  0.00  0.00    +0.000 C 
ENDROOT
BRANCH   1   2
ATOM      2  N   UNL     1      47.338   5.146  15.231  0.00  0.00    +0.000 N 
ATOM      3  C   UNL     1      46.685   5.021  13.995  0.00  0.00    +0.000 A 
ATOM      4  C   UNL     1      46.795   6.060  13.074  0.00  0.00    +0.000 A 
ATOM      5  C   UNL     1      46.153   5.961  11.837  0.00  0.00    +0.000 A 
ATOM      6  C   UNL     1      45.409   4.820  11.540  0.00  0.00    +0.000 A 
ATOM      7  C   UNL     1      45.340   3.843  12.518  0.00  0.00    +0.000 A 
ATOM      8  N   UNL     1      45.949   3.924  13.727  0.00  0.00    +0.000 NA
ATOM      9  H   UNL     1      48.320   5.349  15.058  0.00  0.00    +0.000 HD
BRANCH   6  10
ATOM     10  C   UNL     1      44.745   4.706  10.217  0.00  0.00    +0.000 C 
ATOM     11  N   UNL     1      45.387   5.190   9.112  0.00  0.00    +0.000 N 
ATOM     12  O   UNL     1      43.636   4.196  10.109  0.00  0.00    +0.000 OA
ATOM     13  H   UNL     1      46.293   5.627   9.088  0.00  0.00    +0.000 HD
ATOM     14  H   UNL     1      44.891   5.097   8.232  0.00  0.00    +0.000 HD
ENDBRANCH   6  10
ENDBRANCH   1   2
BRANCH   1  15
ATOM     15  C   UNL     1      48.403   3.886  17.023  0.00  0.00    +0.000 C 
BRANCH  15  16
ATOM     16  C   UNL     1      49.061   2.507  16.919  0.00  0.00    +0.000 C 
BRANCH  16  21
ATOM     17  C   UNL     1      52.629   1.420  17.774  0.00  0.00    +0.000 A 
ATOM     18  C   UNL     1      53.181   2.633  18.205  0.00  0.00    +0.000 A 
ATOM     19  C   UNL     1      52.398   3.787  18.258  0.00  0.00    +0.000 A 
ATOM     20  C   UNL     1      51.059   3.746  17.866  0.00  0.00    +0.000 A 
ATOM     21  C   UNL     1      50.484   2.547  17.431  0.00  0.00    +0.000 A 
ATOM     22  C   UNL     1      51.273   1.388  17.406  0.00  0.00    +0.000 A 
BRANCH  17  23
ATOM     23  C   UNL     1      53.470   0.172  17.696  0.00  0.00    +0.000 C 
BRANCH  23  24
ATOM     24  N   UNL     1      54.144  -0.101  18.962  0.00  0.00    +0.000 NA
ATOM     25  H   UNL     1      54.157  -1.105  19.125  0.00  0.00    +0.000 HD
ATOM     26  H   UNL     1      53.594   0.308  19.717  0.00  0.00    +0.000 HD
ENDBRANCH  23  24
ENDBRANCH  17  23
ENDBRANCH  16  21
ENDBRANCH  15  16
ENDBRANCH   1  15
TORSDOF 7
ENDMDL
