MODEL 1
REMARK VINA RESULT:    -7.653      0.000      0.000
REMARK INTER + INTRA:         -10.364
REMARK INTER:                  -9.666
REMARK INTRA:                  -0.698
REMARK UNBOUND:                -0.698
REMARK  Name = 
REMARK  8 active torsions:
REMARK  status: ('A' for Active; 'I' for Inactive)
REMARK    1  A    between atoms: C_1  and  C_2
REMARK    2  A    between atoms: C_2  and  C_3
REMARK    3  A    between atoms: C_2  and  C_4
REMARK    4  A    between atoms: C_2  and  C_5
REMARK    5  A    between atoms: C_8  and  C_9
REMARK    6  A    between atoms: C_9  and  N_10
REMARK    7  A    between atoms: C_12  and  C_13
REMARK    8  A    between atoms: C_13  and  O_14
REMARK                            x       y       z     vdW  Elec       q    Type
REMARK                         _______ _______ _______ _____ _____    ______ ____
ROOT
ATOM      1  N   UNL     1      44.565   5.498  11.764  0.00  0.00    +0.000 N 
ATOM      2  N   UNL     1      44.512   6.852  11.816  0.00  0.00    +0.000 NA
ATOM      3  C   UNL     1      45.497   7.180  12.668  0.00  0.00    +0.000 A 
ATOM      4  C   UNL     1      46.114   6.032  13.233  0.00  0.00    +0.000 A 
ATOM      5  C   UNL     1      47.138   5.786  14.157  0.00  0.00    +0.000 A 
ATOM      6  C   UNL     1      47.424   4.454  14.418  0.00  0.00    +0.000 A 
ATOM      7  N   UNL     1      46.790   3.405  13.848  0.00  0.00    +0.000 NA
ATOM      8  C   UNL     1      45.808   3.638  12.950  0.00  0.00    +0.000 A 
ATOM      9  C   UNL     1      45.471   4.949  12.641  0.00  0.00    +0.000 A 
ENDROOT
BRANCH   1  10
ATOM     10  C   UNL     1      43.698   4.781  10.837  0.00  0.00    +0.000 C 
BRANCH  10  14
ATOM     11  C   UNL     1      46.076   2.693   7.834  0.00  0.00    +0.000 A 
ATOM     12  C   UNL     1      45.286   1.992   8.758  0.00  0.00    +0.000 A 
ATOM     13  C   UNL     1      44.511   2.660   9.714  0.00  0.00    +0.000 A 
ATOM     14  C   UNL     1      44.498   4.056   9.779  0.00  0.00    +0.000 A 
ATOM     15  C   UNL     1      45.276   4.768   8.860  0.00  0.00    +0.000 A 
ATOM     16  C   UNL     1      46.045   4.098   7.900  0.00  0.00    +0.000 A 
BRANCH  11  18
ATOM     17  C   UNL     1      48.440   2.457   6.818  0.00  0.00    +0.000 C 
ATOM     18  C   UNL     1      46.969   1.982   6.798  0.00  0.00    +0.000 C 
ATOM     19  C   UNL     1      46.425   2.251   5.377  0.00  0.00    +0.000 C 
ATOM     20  C   UNL     1      46.980   0.459   7.052  0.00  0.00    +0.000 C 
ENDBRANCH  11  18
ENDBRANCH  10  14
ENDBRANCH   1  10
BRANCH   3  21
ATOM     21  C   UNL     1      45.832   8.616  12.906  0.00  0.00    +0.000 C 
BRANCH  21  22
ATOM     22  O   UNL     1      44.676   9.450  12.914  0.00  0.00    +0.000 OA
ATOM     23  H   UNL     1      44.016   8.949  13.431  0.00  0.00    +0.000 HD
ENDBRANCH  21  22
ENDBRANCH   3  21
TORSDOF 5
ENDMDL
MODEL 2
REMARK VINA RESULT:    -7.215      1.725      2.781
REMARK INTER + INTRA:          -9.811
REMARK INTER:                  -9.060
REMARK INTRA:                  -0.751
REMARK UNBOUND:                -0.698
REMARK  Name = 
REMARK  8 active torsions:
REMARK  status: ('A' for Active; 'I' for Inactive)
REMARK    1  A    between atoms: C_1  and  C_2
REMARK    2  A    between atoms: C_2  and  C_3
REMARK    3  A    between atoms: C_2  and  C_4
REMARK    4  A    between atoms: C_2  and  C_5
REMARK    5  A    between atoms: C_8  and  C_9
REMARK    6  A    between atoms: C_9  and  N_10
REMARK    7  A    between atoms: C_12  and  C_13
REMARK    8  A    between atoms: C_13  and  O_14
REMARK                            x       y       z     vdW  Elec       q    Type
REMARK                         _______ _______ _______ _____ _____    ______ ____
ROOT
ATOM      1  N   UNL     1      45.025   5.147  11.963  0.00  0.00    +0.000 N 
ATOM      2  N   UNL     1      45.666   4.309  12.814  0.00  0.00    +0.000 NA
ATOM      3  C   UNL     1      46.349   5.134  13.624  0.00  0.00    +0.000 A 
ATOM      4  C   UNL     1      46.222   6.492  13.228  0.00  0.00    +0.000 A 
ATOM      5  C   UNL     1      46.714   7.725  13.675  0.00  0.00    +0.000 A 
ATOM      6  C   UNL     1      46.310   8.844  12.961  0.00  0.00    +0.000 A 
ATOM      7  N   UNL     1      45.490   8.816  11.887  0.00  0.00    +0.000 NA
ATOM      8  C   UNL     1      45.006   7.629  11.458  0.00  0.00    +0.000 A 
ATOM      9  C   UNL     1      45.369   6.469  12.129  0.00  0.00    +0.000 A 
ENDROOT
BRANCH   1  10
ATOM     10  C   UNL     1      44.083   4.604  10.992  0.00  0.00    +0.000 C 
BRANCH  10  14
ATOM     11  C   UNL     1      46.221   2.650   7.729  0.00  0.00    +0.000 A 
ATOM     12  C   UNL     1      45.554   1.907   8.715  0.00  0.00    +0.000 A 
ATOM     13  C   UNL     1      44.856   2.531   9.755  0.00  0.00    +0.000 A 
ATOM     14  C   UNL     1      44.798   3.925   9.847  0.00  0.00    +0.000 A 
ATOM     15  C   UNL     1      45.454   4.679   8.868  0.00  0.00    +0.000 A 
ATOM     16  C   UNL     1      46.146   4.051   7.823  0.00  0.00    +0.000 A 
BRANCH  11  18
ATOM     17  C   UNL     1      48.537   2.335   6.627  0.00  0.00    +0.000 C 
ATOM     18  C   UNL     1      47.031   1.988   6.597  0.00  0.00    +0.000 C 
ATOM     19  C   UNL     1      46.485   2.458   5.230  0.00  0.00    +0.000 C 
ATOM     20  C   UNL     1      46.917   0.450   6.682  0.00  0.00    +0.000 C 
ENDBRANCH  11  18
ENDBRANCH  10  14
ENDBRANCH   1  10
BRANCH   3  21
ATOM     21  C   UNL     1      47.107   4.580  14.787  0.00  0.00    +0.000 C 
BRANCH  21  22
ATOM     22  O   UNL     1      47.468   3.214  14.600  0.00  0.00    +0.000 OA
ATOM     23  H   UNL     1      48.432   3.233  14.447  0.00  0.00    +0.000 HD
ENDBRANCH  21  22
ENDBRANCH   3  21
TORSDOF 5
ENDMDL
MODEL 3
REMARK VINA RESULT:    -6.198      2.758      6.975
REMARK INTER + INTRA:          -8.526
REMARK INTER:                  -7.940
REMARK INTRA:                  -0.586
REMARK UNBOUND:                -0.698
REMARK  Name = 
REMARK  8 active torsions:
REMARK  status: ('A' for Active; 'I' for Inactive)
REMARK    1  A    between atoms: C_1  and  C_2
REMARK    2  A    between atoms: C_2  and  C_3
REMARK    3  A    between atoms: C_2  and  C_4
REMARK    4  A    between atoms: C_2  and  C_5
REMARK    5  A    between atoms: C_8  and  C_9
REMARK    6  A    between atoms: C_9  and  N_10
REMARK    7  A    between atoms: C_12  and  C_13
REMARK    8  A    between atoms: C_13  and  O_14
REMARK                            x       y       z     vdW  Elec       q    Type
REMARK                         _______ _______ _______ _____ _____    ______ ____
ROOT
ATOM      1  N   UNL     1      44.875   5.553  10.838  0.00  0.00    +0.000 N 
ATOM      2  N   UNL     1      44.182   4.888  11.795  0.00  0.00    +0.000 NA
ATOM      3  C   UNL     1      44.209   3.610  11.381  0.00  0.00    +0.000 A 
ATOM      4  C   UNL     1      44.833   3.476  10.112  0.00  0.00    +0.000 A 
ATOM      5  C   UNL     1      45.109   2.426   9.227  0.00  0.00    +0.000 A 
ATOM      6  C   UNL     1      45.769   2.766   8.055  0.00  0.00    +0.000 A 
ATOM      7  N   UNL     1      46.153   4.020   7.724  0.00  0.00    +0.000 NA
ATOM      8  C   UNL     1      45.896   5.035   8.580  0.00  0.00    +0.000 A 
ATOM      9  C   UNL     1      45.239   4.764   9.773  0.00  0.00    +0.000 A 
ENDROOT
BRANCH   1  10
ATOM     10  C   UNL     1      45.152   6.974  11.010  0.00  0.00    +0.000 C 
BRANCH  10  14
ATOM     11  C   UNL     1      48.130   7.623  14.131  0.00  0.00    +0.000 A 
ATOM     12  C   UNL     1      48.115   6.446  13.368  0.00  0.00    +0.000 A 
ATOM     13  C   UNL     1      47.169   6.241  12.356  0.00  0.00    +0.000 A 
ATOM     14  C   UNL     1      46.203   7.209  12.070  0.00  0.00    +0.000 A 
ATOM     15  C   UNL     1      46.209   8.390  12.819  0.00  0.00    +0.000 A 
ATOM     16  C   UNL     1      47.161   8.596  13.827  0.00  0.00    +0.000 A 
BRANCH  11  18
ATOM     17  C   UNL     1      50.586   8.079  14.794  0.00  0.00    +0.000 C 
ATOM     18  C   UNL     1      49.134   7.857  15.278  0.00  0.00    +0.000 C 
ATOM     19  C   UNL     1      49.150   6.623  16.208  0.00  0.00    +0.000 C 
ATOM     20  C   UNL     1      48.732   9.100  16.099  0.00  0.00    +0.000 C 
ENDBRANCH  11  18
ENDBRANCH  10  14
ENDBRANCH   1  10
BRANCH   3  21
ATOM     21  C   UNL     1      43.634   2.533  12.243  0.00  0.00    +0.000 C 
BRANCH  21  22
ATOM     22  O   UNL     1      42.720   1.700  11.534  0.00  0.00    +0.000 OA
ATOM     23  H   UNL     1      42.197   2.318  10.988  0.00  0.00    +0.000 HD
ENDBRANCH  21  22
ENDBRANCH   3  21
TORSDOF 5
ENDMDL
MODEL 4
REMARK VINA RESULT:    -5.969      2.818      6.761
REMARK INTER + INTRA:          -8.238
REMARK INTER:                  -7.681
REMARK INTRA:                  -0.557
REMARK UNBOUND:                -0.698
REMARK  Name = 
REMARK  8 active torsions:
REMARK  status: ('A' for Active; 'I' for Inactive)
REMARK    1  A    between atoms: C_1  and  C_2
REMARK    2  A    between atoms: C_2  and  C_3
REMARK    3  A    between atoms: C_2  and  C_4
REMARK    4  A    between atoms: C_2  and  C_5
REMARK    5  A    between atoms: C_8  and  C_9
REMARK    6  A    between atoms: C_9  and  N_10
REMARK    7  A    between atoms: C_12  and  C_13
REMARK    8  A    between atoms: C_13  and  O_14
REMARK                            x       y       z     vdW  Elec       q    Type
REMARK                         _______ _______ _______ _____ _____    ______ ____
ROOT
ATOM      1  N   UNL     1      45.119   6.028  10.834  0.00  0.00    +0.000 N 
ATOM      2  N   UNL     1      45.655   5.765   9.617  0.00  0.00    +0.000 NA
ATOM      3  C   UNL     1      45.313   4.488   9.383  0.00  0.00    +0.000 A 
ATOM      4  C   UNL     1      44.644   3.906  10.493  0.00  0.00    +0.000 A 
ATOM      5  C   UNL     1      44.102   2.652  10.803  0.00  0.00    +0.000 A 
ATOM      6  C   UNL     1      43.514   2.527  12.053  0.00  0.00    +0.000 A 
ATOM      7  N   UNL     1      43.434   3.520  12.968  0.00  0.00    +0.000 NA
ATOM      8  C   UNL     1      43.948   4.734  12.670  0.00  0.00    +0.000 A 
ATOM      9  C   UNL     1      44.550   4.928  11.434  0.00  0.00    +0.000 A 
ENDROOT
BRANCH   1  10
ATOM     10  C   UNL     1      45.196   7.378  11.377  0.00  0.00    +0.000 C 
BRANCH  10  14
ATOM     11  C   UNL     1      48.639   7.825  14.018  0.00  0.00    +0.000 A 
ATOM     12  C   UNL     1      48.584   6.806  13.055  0.00  0.00    +0.000 A 
ATOM     13  C   UNL     1      47.486   6.669  12.197  0.00  0.00    +0.000 A 
ATOM     14  C   UNL     1      46.402   7.549  12.271  0.00  0.00    +0.000 A 
ATOM     15  C   UNL     1      46.447   8.573  13.222  0.00  0.00    +0.000 A 
ATOM     16  C   UNL     1      47.550   8.712  14.075  0.00  0.00    +0.000 A 
BRANCH  11  18
ATOM     17  C   UNL     1      49.678   9.181  15.957  0.00  0.00    +0.000 C 
ATOM     18  C   UNL     1      49.817   7.973  15.002  0.00  0.00    +0.000 C 
ATOM     19  C   UNL     1      51.128   8.171  14.210  0.00  0.00    +0.000 C 
ATOM     20  C   UNL     1      49.946   6.710  15.881  0.00  0.00    +0.000 C 
ENDBRANCH  11  18
ENDBRANCH  10  14
ENDBRANCH   1  10
BRANCH   3  21
ATOM     21  C   UNL     1      45.633   3.857   8.067  0.00  0.00    +0.000 C 
BRANCH  21  22
ATOM     22  O   UNL     1      46.743   4.477   7.423  0.00  0.00    +0.000 OA
ATOM     23  H   UNL     1      47.439   3.793   7.420  0.00  0.00    +0.000 HD
ENDBRANCH  21  22
ENDBRANCH   3  21
TORSDOF 5
ENDMDL
MODEL 5
REMARK VINA RESULT:    -5.772      3.671      6.100
REMARK INTER + INTRA:          -7.988
REMARK INTER:                  -8.218
REMARK INTRA:                   0.229
REMARK UNBOUND:                -0.698
REMARK  Name = 
REMARK  8 active torsions:
REMARK  status: ('A' for Active; 'I' for Inactive)
REMARK    1  A    between atoms: C_1  and  C_2
REMARK    2  A    between atoms: C_2  and  C_3
REMARK    3  A    between atoms: C_2  and  C_4
REMARK    4  A    between atoms: C_2  and  C_5
REMARK    5  A    between atoms: C_8  and  C_9
REMARK    6  A    between atoms: C_9  and  N_10
REMARK    7  A    between atoms: C_12  and  C_13
REMARK    8  A    between atoms: C_13  and  O_14
REMARK                            x       y       z     vdW  Elec       q    Type
REMARK                         _______ _______ _______ _____ _____    ______ ____
ROOT
ATOM      1  N   UNL     1      48.436   5.999  15.660  0.00  0.00    +0.000 N 
ATOM      2  N   UNL     1      48.302   4.662  15.842  0.00  0.00    +0.000 NA
ATOM      3  C   UNL     1      48.240   4.525  17.176  0.00  0.00    +0.000 A 
ATOM      4  C   UNL     1      48.432   5.762  17.848  0.00  0.00    +0.000 A 
ATOM      5  C   UNL     1      48.486   6.192  19.179  0.00  0.00    +0.000 A 
ATOM      6  C   UNL     1      48.696   7.548  19.381  0.00  0.00    +0.000 A 
ATOM      7  N   UNL     1      48.848   8.458  18.392  0.00  0.00    +0.000 NA
ATOM      8  C   UNL     1      48.788   8.049  17.105  0.00  0.00    +0.000 A 
ATOM      9  C   UNL     1      48.578   6.703  16.833  0.00  0.00    +0.000 A 
ENDROOT
BRANCH   1  10
ATOM     10  C   UNL     1      48.424   6.544  14.308  0.00  0.00    +0.000 C 
BRANCH  10  14
ATOM     11  C   UNL     1      45.051   5.004  12.009  0.00  0.00    +0.000 A 
ATOM     12  C   UNL     1      45.888   6.007  11.497  0.00  0.00    +0.000 A 
ATOM     13  C   UNL     1      46.980   6.493  12.227  0.00  0.00    +0.000 A 
ATOM     14  C   UNL     1      47.274   5.991  13.498  0.00  0.00    +0.000 A 
ATOM     15  C   UNL     1      46.452   4.988  14.019  0.00  0.00    +0.000 A 
ATOM     16  C   UNL     1      45.364   4.498  13.284  0.00  0.00    +0.000 A 
BRANCH  11  18
ATOM     17  C   UNL     1      43.344   3.086  11.715  0.00  0.00    +0.000 C 
ATOM     18  C   UNL     1      43.819   4.480  11.244  0.00  0.00    +0.000 C 
ATOM     19  C   UNL     1      44.158   4.361   9.742  0.00  0.00    +0.000 C 
ATOM     20  C   UNL     1      42.628   5.448  11.415  0.00  0.00    +0.000 C 
ENDBRANCH  11  18
ENDBRANCH  10  14
ENDBRANCH   1  10
BRANCH   3  21
ATOM     21  C   UNL     1      47.978   3.182  17.778  0.00  0.00    +0.000 C 
BRANCH  21  22
ATOM     22  O   UNL     1      46.595   2.834  17.749  0.00  0.00    +0.000 OA
ATOM     23  H   UNL     1      46.425   2.433  18.623  0.00  0.00    +0.000 HD
ENDBRANCH  21  22
ENDBRANCH   3  21
TORSDOF 5
ENDMDL
MODEL 6
REMARK VINA RESULT:    -5.545      4.509      8.313
REMARK INTER + INTRA:          -7.702
REMARK INTER:                  -7.147
REMARK INTRA:                  -0.554
REMARK UNBOUND:                -0.698
REMARK  Name = 
REMARK  8 active torsions:
REMARK  status: ('A' for Active; 'I' for Inactive)
REMARK    1  A    between atoms: C_1  and  C_2
REMARK    2  A    between atoms: C_2  and  C_3
REMARK    3  A    between atoms: C_2  and  C_4
REMARK    4  A    between atoms: C_2  and  C_5
REMARK    5  A    between atoms: C_8  and  C_9
REMARK    6  A    between atoms: C_9  and  N_10
REMARK    7  A    between atoms: C_12  and  C_13
REMARK    8  A    between atoms: C_13  and  O_14
REMARK                            x       y       z     vdW  Elec       q    Type
REMARK                         _______ _______ _______ _____ _____    ______ ____
ROOT
ATOM      1  N   UNL     1      46.148   4.804  13.669  0.00  0.00    +0.000 N 
ATOM      2  N   UNL     1      44.897   4.283  13.634  0.00  0.00    +0.000 NA
ATOM      3  C   UNL     1      44.200   5.168  12.903  0.00  0.00    +0.000 A 
ATOM      4  C   UNL     1      44.982   6.301  12.555  0.00  0.00    +0.000 A 
ATOM      5  C   UNL     1      44.775   7.494  11.850  0.00  0.00    +0.000 A 
ATOM      6  C   UNL     1      45.865   8.345  11.746  0.00  0.00    +0.000 A 
ATOM      7  N   UNL     1      47.086   8.098  12.273  0.00  0.00    +0.000 NA
ATOM      8  C   UNL     1      47.292   6.944  12.946  0.00  0.00    +0.000 A 
ATOM      9  C   UNL     1      46.243   6.046  13.085  0.00  0.00    +0.000 A 
ENDROOT
BRANCH   1  10
ATOM     10  C   UNL     1      47.224   4.046  14.294  0.00  0.00    +0.000 C 
BRANCH  10  14
ATOM     11  C   UNL     1      48.169   5.472  18.308  0.00  0.00    +0.000 A 
ATOM     12  C   UNL     1      48.758   6.046  17.171  0.00  0.00    +0.000 A 
ATOM     13  C   UNL     1      48.445   5.600  15.881  0.00  0.00    +0.000 A 
ATOM     14  C   UNL     1      47.531   4.562  15.682  0.00  0.00    +0.000 A 
ATOM     15  C   UNL     1      46.932   3.984  16.806  0.00  0.00    +0.000 A 
ATOM     16  C   UNL     1      47.240   4.437  18.096  0.00  0.00    +0.000 A 
BRANCH  11  18
ATOM     17  C   UNL     1      47.290   6.192  20.629  0.00  0.00    +0.000 C 
ATOM     18  C   UNL     1      48.525   5.917  19.741  0.00  0.00    +0.000 C 
ATOM     19  C   UNL     1      49.343   7.226  19.685  0.00  0.00    +0.000 C 
ATOM     20  C   UNL     1      49.362   4.830  20.449  0.00  0.00    +0.000 C 
ENDBRANCH  11  18
ENDBRANCH  10  14
ENDBRANCH   1  10
BRANCH   3  21
ATOM     21  C   UNL     1      42.777   4.884  12.542  0.00  0.00    +0.000 C 
BRANCH  21  22
ATOM     22  O   UNL     1      42.665   3.953  11.468  0.00  0.00    +0.000 OA
ATOM     23  H   UNL     1      42.629   3.080  11.903  0.00  0.00    +0.000 HD
ENDBRANCH  21  22
ENDBRANCH   3  21
TORSDOF 5
ENDMDL
MODEL 7
REMARK VINA RESULT:    -5.541      3.314      6.422
REMARK INTER + INTRA:          -7.696
REMARK INTER:                  -7.443
REMARK INTRA:                  -0.253
REMARK UNBOUND:                -0.698
REMARK  Name = 
REMARK  8 active torsions:
REMARK  status: ('A' for Active; 'I' for Inactive)
REMARK    1  A    between atoms: C_1  and  C_2
REMARK    2  A    between atoms: C_2  and  C_3
REMARK    3  A    between atoms: C_2  and  C_4
REMARK    4  A    between atoms: C_2  and  C_5
REMARK    5  A    between atoms: C_8  and  C_9
REMARK    6  A    between atoms: C_9  and  N_10
REMARK    7  A    between atoms: C_12  and  C_13
REMARK    8  A    between atoms: C_13  and  O_14
REMARK                            x       y       z     vdW  Elec       q    Type
REMARK                         _______ _______ _______ _____ _____    ______ ____
ROOT
ATOM      1  N   UNL     1      44.773   5.838  11.902  0.00  0.00    +0.000 N 
ATOM      2  N   UNL     1      44.094   4.946  12.665  0.00  0.00    +0.000 NA
ATOM      3  C   UNL     1      44.135   3.812  11.947  0.00  0.00    +0.000 A 
ATOM      4  C   UNL     1      44.756   4.006  10.684  0.00  0.00    +0.000 A 
ATOM      5  C   UNL     1      45.042   3.212   9.566  0.00  0.00    +0.000 A 
ATOM      6  C   UNL     1      45.692   3.840   8.514  0.00  0.00    +0.000 A 
ATOM      7  N   UNL     1      46.058   5.142   8.504  0.00  0.00    +0.000 NA
ATOM      8  C   UNL     1      45.791   5.910   9.585  0.00  0.00    +0.000 A 
ATOM      9  C   UNL     1      45.144   5.342  10.674  0.00  0.00    +0.000 A 
ENDROOT
BRANCH   1  10
ATOM     10  C   UNL     1      45.032   7.176  12.420  0.00  0.00    +0.000 C 
BRANCH  10  14
ATOM     11  C   UNL     1      49.259   8.185  12.033  0.00  0.00    +0.000 A 
ATOM     12  C   UNL     1      48.254   9.122  11.748  0.00  0.00    +0.000 A 
ATOM     13  C   UNL     1      46.897   8.805  11.885  0.00  0.00    +0.000 A 
ATOM     14  C   UNL     1      46.496   7.537  12.314  0.00  0.00    +0.000 A 
ATOM     15  C   UNL     1      47.487   6.594  12.607  0.00  0.00    +0.000 A 
ATOM     16  C   UNL     1      48.844   6.916  12.476  0.00  0.00    +0.000 A 
BRANCH  11  18
ATOM     17  C   UNL     1      51.475   7.539  10.871  0.00  0.00    +0.000 C 
ATOM     18  C   UNL     1      50.758   8.495  11.852  0.00  0.00    +0.000 C 
ATOM     19  C   UNL     1      51.478   8.371  13.214  0.00  0.00    +0.000 C 
ATOM     20  C   UNL     1      50.949   9.929  11.311  0.00  0.00    +0.000 C 
ENDBRANCH  11  18
ENDBRANCH  10  14
ENDBRANCH   1  10
BRANCH   3  21
ATOM     21  C   UNL     1      43.579   2.547  12.515  0.00  0.00    +0.000 C 
BRANCH  21  22
ATOM     22  O   UNL     1      42.777   1.835  11.575  0.00  0.00    +0.000 OA
ATOM     23  H   UNL     1      42.016   2.423  11.408  0.00  0.00    +0.000 HD
ENDBRANCH  21  22
ENDBRANCH   3  21
TORSDOF 5
ENDMDL
MODEL 8
REMARK VINA RESULT:    -5.455      1.824      2.879
REMARK INTER + INTRA:          -7.589
REMARK INTER:                  -6.929
REMARK INTRA:                  -0.659
REMARK UNBOUND:                -0.698
REMARK  Name = 
REMARK  8 active torsions:
REMARK  status: ('A' for Active; 'I' for Inactive)
REMARK    1  A    between atoms: C_1  and  C_2
REMARK    2  A    between atoms: C_2  and  C_3
REMARK    3  A    between atoms: C_2  and  C_4
REMARK    4  A    between atoms: C_2  and  C_5
REMARK    5  A    between atoms: C_8  and  C_9
REMARK    6  A    between atoms: C_9  and  N_10
REMARK    7  A    between atoms: C_12  and  C_13
REMARK    8  A    between atoms: C_13  and  O_14
REMARK                            x       y       z     vdW  Elec       q    Type
REMARK                         _______ _______ _______ _____ _____    ______ ____
ROOT
ATOM      1  N   UNL     1      45.682   7.344  12.797  0.00  0.00    +0.000 N 
ATOM      2  N   UNL     1      45.329   8.598  12.425  0.00  0.00    +0.000 NA
ATOM      3  C   UNL     1      46.459   9.308  12.571  0.00  0.00    +0.000 A 
ATOM      4  C   UNL     1      47.508   8.528  13.129  0.00  0.00    +0.000 A 
ATOM      5  C   UNL     1      48.839   8.745  13.503  0.00  0.00    +0.000 A 
ATOM      6  C   UNL     1      49.519   7.652  14.021  0.00  0.00    +0.000 A 
ATOM      7  N   UNL     1      48.986   6.419  14.181  0.00  0.00    +0.000 NA
ATOM      8  C   UNL     1      47.703   6.204  13.812  0.00  0.00    +0.000 A 
ATOM      9  C   UNL     1      46.966   7.255  13.285  0.00  0.00    +0.000 A 
ENDROOT
BRANCH   1  10
ATOM     10  C   UNL     1      44.721   6.256  12.660  0.00  0.00    +0.000 C 
BRANCH  10  14
ATOM     11  C   UNL     1      45.556   3.746   9.191  0.00  0.00    +0.000 A 
ATOM     12  C   UNL     1      45.867   5.114   9.196  0.00  0.00    +0.000 A 
ATOM     13  C   UNL     1      45.613   5.919  10.313  0.00  0.00    +0.000 A 
ATOM     14  C   UNL     1      45.039   5.383  11.469  0.00  0.00    +0.000 A 
ATOM     15  C   UNL     1      44.729   4.019  11.481  0.00  0.00    +0.000 A 
ATOM     16  C   UNL     1      44.991   3.214  10.364  0.00  0.00    +0.000 A 
BRANCH  11  18
ATOM     17  C   UNL     1      44.637   2.896   6.931  0.00  0.00    +0.000 C 
ATOM     18  C   UNL     1      45.788   2.846   7.961  0.00  0.00    +0.000 C 
ATOM     19  C   UNL     1      45.925   1.376   8.417  0.00  0.00    +0.000 C 
ATOM     20  C   UNL     1      47.078   3.266   7.223  0.00  0.00    +0.000 C 
ENDBRANCH  11  18
ENDBRANCH  10  14
ENDBRANCH   1  10
BRANCH   3  21
ATOM     21  C   UNL     1      46.503  10.740  12.147  0.00  0.00    +0.000 C 
BRANCH  21  22
ATOM     22  O   UNL     1      45.219  11.358  12.186  0.00  0.00    +0.000 OA
ATOM     23  H   UNL     1      44.617  10.697  11.795  0.00  0.00    +0.000 HD
ENDBRANCH  21  22
ENDBRANCH   3  21
TORSDOF 5
ENDMDL
MODEL 9
REMARK VINA RESULT:    -5.388      3.740      6.487
REMARK INTER + INTRA:          -7.503
REMARK INTER:                  -7.287
REMARK INTRA:                  -0.216
REMARK UNBOUND:                -0.698
REMARK  Name = 
REMARK  8 active torsions:
REMARK  status: ('A' for Active; 'I' for Inactive)
REMARK    1  A    between atoms: C_1  and  C_2
REMARK    2  A    between atoms: C_2  and  C_3
REMARK    3  A    between atoms: C_2  and  C_4
REMARK    4  A    between atoms: C_2  and  C_5
REMARK    5  A    between atoms: C_8  and  C_9
REMARK    6  A    between atoms: C_9  and  N_10
REMARK    7  A    between atoms: C_12  and  C_13
REMARK    8  A    between atoms: C_13  and  O_14
REMARK                            x       y       z     vdW  Elec       q    Type
REMARK                         _______ _______ _______ _____ _____    ______ ____
ROOT
ATOM      1  N   UNL     1      45.745   6.553  12.835  0.00  0.00    +0.000 N 
ATOM      2  N   UNL     1      46.596   5.931  13.687  0.00  0.00    +0.000 NA
ATOM      3  C   UNL     1      46.298   4.630  13.548  0.00  0.00    +0.000 A 
ATOM      4  C   UNL     1      45.191   4.428  12.681  0.00  0.00    +0.000 A 
ATOM      5  C   UNL     1      44.464   3.328  12.209  0.00  0.00    +0.000 A 
ATOM      6  C   UNL     1      43.421   3.608  11.337  0.00  0.00    +0.000 A 
ATOM      7  N   UNL     1      43.074   4.848  10.926  0.00  0.00    +0.000 NA
ATOM      8  C   UNL     1      43.779   5.912  11.372  0.00  0.00    +0.000 A 
ATOM      9  C   UNL     1      44.837   5.702  12.246  0.00  0.00    +0.000 A 
ENDROOT
BRANCH   1  10
ATOM     10  C   UNL     1      45.854   7.992  12.632  0.00  0.00    +0.000 C 
BRANCH  10  14
ATOM     11  C   UNL     1      49.910   9.127  11.493  0.00  0.00    +0.000 A 
ATOM     12  C   UNL     1      49.477   7.794  11.424  0.00  0.00    +0.000 A 
ATOM     13  C   UNL     1      48.172   7.429  11.776  0.00  0.00    +0.000 A 
ATOM     14  C   UNL     1      47.250   8.387  12.209  0.00  0.00    +0.000 A 
ATOM     15  C   UNL     1      47.666   9.721  12.277  0.00  0.00    +0.000 A 
ATOM     16  C   UNL     1      48.971  10.084  11.918  0.00  0.00    +0.000 A 
BRANCH  11  18
ATOM     17  C   UNL     1      51.434  10.807  10.255  0.00  0.00    +0.000 C 
ATOM     18  C   UNL     1      51.353   9.550  11.151  0.00  0.00    +0.000 C 
ATOM     19  C   UNL     1      52.058   8.405  10.391  0.00  0.00    +0.000 C 
ATOM     20  C   UNL     1      52.142   9.859  12.441  0.00  0.00    +0.000 C 
ENDBRANCH  11  18
ENDBRANCH  10  14
ENDBRANCH   1  10
BRANCH   3  21
ATOM     21  C   UNL     1      47.113   3.596  14.256  0.00  0.00    +0.000 C 
BRANCH  21  22
ATOM     22  O   UNL     1      46.899   3.607  15.665  0.00  0.00    +0.000 OA
ATOM     23  H   UNL     1      46.066   4.102  15.783  0.00  0.00    +0.000 HD
ENDBRANCH  21  22
ENDBRANCH   3  21
TORSDOF 5
ENDMDL
