MODEL 1
REMARK VINA RESULT:    -7.848      0.000      0.000
REMARK INTER + INTRA:         -10.361
REMARK INTER:                  -9.683
REMARK INTRA:                  -0.678
REMARK UNBOUND:                -0.678
REMARK  Name = 
REMARK  5 active torsions:
REMARK  status: ('A' for Active; 'I' for Inactive)
REMARK    1  A    between atoms: C_1  and  C_2
REMARK    2  A    between atoms: C_6  and  N_7
REMARK    3  A    between atoms: N_7  and  C_8
REMARK    4  A    between atoms: C_8  and  C_9
REMARK    5  A    between atoms: C_13  and  C_14
REMARK                            x       y       z     vdW  Elec       q    Type
REMARK                         _______ _______ _______ _____ _____    ______ ____
ROOT
ATOM      1  C   UNL     1      44.933   4.871  11.517  0.00  0.00    +0.000 A 
ATOM      2  C   UNL     1      45.288   4.006  12.557  0.00  0.00    +0.000 A 
ATOM      3  C   UNL     1      46.308   4.348  13.441  0.00  0.00    +0.000 A 
ATOM      4  C   UNL     1      46.981   5.563  13.296  0.00  0.00    +0.000 A 
ATOM      5  C   UNL     1      46.656   6.464  12.265  0.00  0.00    +0.000 A 
ATOM      6  C   UNL     1      45.609   6.098  11.394  0.00  0.00    +0.000 A 
ENDROOT
BRANCH   5   7
ATOM      7  C   UNL     1      47.409   7.724  12.079  0.00  0.00    +0.000 A 
ATOM      8  C   UNL     1      48.760   7.749  11.703  0.00  0.00    +0.000 A 
ATOM      9  C   UNL     1      49.442   8.959  11.569  0.00  0.00    +0.000 A 
ATOM     10  C   UNL     1      48.752  10.133  11.806  0.00  0.00    +0.000 A 
ATOM     11  N   UNL     1      47.455  10.172  12.165  0.00  0.00    +0.000 NA
ATOM     12  C   UNL     1      46.825   8.977  12.294  0.00  0.00    +0.000 A 
ENDBRANCH   5   7
BRANCH   1  13
ATOM     13  C   UNL     1      43.863   4.473  10.524  0.00  0.00    +0.000 C 
BRANCH  13  14
ATOM     14  N   UNL     1      44.098   3.129  10.034  0.00  0.00    +0.000 N 
ATOM     15  H   UNL     1      43.259   2.615   9.782  0.00  0.00    +0.000 HD
BRANCH  14  21
ATOM     16  C   UNL     1      46.841   0.049   7.678  0.00  0.00    +0.000 C 
ATOM     17  C   UNL     1      46.373   1.465   7.844  0.00  0.00    +0.000 A 
ATOM     18  C   UNL     1      46.912   2.478   7.064  0.00  0.00    +0.000 A 
ATOM     19  C   UNL     1      46.469   3.775   7.272  0.00  0.00    +0.000 A 
ATOM     20  C   UNL     1      45.515   4.019   8.255  0.00  0.00    +0.000 A 
ATOM     21  C   UNL     1      45.005   2.959   8.995  0.00  0.00    +0.000 A 
ATOM     22  N   UNL     1      45.424   1.693   8.791  0.00  0.00    +0.000 NA
ENDBRANCH  14  21
ENDBRANCH  13  14
ENDBRANCH   1  13
TORSDOF 4
ENDMDL
MODEL 2
REMARK VINA RESULT:    -7.758      1.704      6.477
REMARK INTER + INTRA:         -10.250
REMARK INTER:                  -9.409
REMARK INTRA:                  -0.841
REMARK UNBOUND:                -0.678
REMARK  Name = 
REMARK  5 active torsions:
REMARK  status: ('A' for Active; 'I' for Inactive)
REMARK    1  A    between atoms: C_1  and  C_2
REMARK    2  A    between atoms: C_6  and  N_7
REMARK    3  A    between atoms: N_7  and  C_8
REMARK    4  A    between atoms: C_8  and  C_9
REMARK    5  A    between atoms: C_13  and  C_14
REMARK                            x       y       z     vdW  Elec       q    Type
REMARK                         _______ _______ _______ _____ _____    ______ ____
ROOT
ATOM      1  C   UNL     1      43.904   4.816  10.719  0.00  0.00    +0.000 A 
ATOM      2  C   UNL     1      43.255   3.811  11.442  0.00  0.00    +0.000 A 
ATOM      3  C   UNL     1      43.452   2.471  11.120  0.00  0.00    +0.000 A 
ATOM      4  C   UNL     1      44.307   2.122  10.071  0.00  0.00    +0.000 A 
ATOM      5  C   UNL     1      44.982   3.101   9.318  0.00  0.00    +0.000 A 
ATOM      6  C   UNL     1      44.775   4.448   9.677  0.00  0.00    +0.000 A 
ENDROOT
BRANCH   5   7
ATOM      7  C   UNL     1      45.841   2.731   8.172  0.00  0.00    +0.000 A 
ATOM      8  C   UNL     1      46.123   3.616   7.121  0.00  0.00    +0.000 A 
ATOM      9  C   UNL     1      46.913   3.216   6.042  0.00  0.00    +0.000 A 
ATOM     10  C   UNL     1      47.420   1.929   6.039  0.00  0.00    +0.000 A 
ATOM     11  N   UNL     1      47.188   1.038   7.021  0.00  0.00    +0.000 NA
ATOM     12  C   UNL     1      46.410   1.458   8.050  0.00  0.00    +0.000 A 
ENDBRANCH   5   7
BRANCH   1  13
ATOM     13  C   UNL     1      43.645   6.274  11.034  0.00  0.00    +0.000 C 
BRANCH  13  14
ATOM     14  N   UNL     1      44.051   6.580  12.391  0.00  0.00    +0.000 N 
ATOM     15  H   UNL     1      43.503   6.123  13.114  0.00  0.00    +0.000 HD
BRANCH  14  21
ATOM     16  C   UNL     1      48.509   8.046  11.652  0.00  0.00    +0.000 C 
ATOM     17  C   UNL     1      47.583   7.103  12.362  0.00  0.00    +0.000 A 
ATOM     18  C   UNL     1      48.090   6.112  13.191  0.00  0.00    +0.000 A 
ATOM     19  C   UNL     1      47.197   5.246  13.802  0.00  0.00    +0.000 A 
ATOM     20  C   UNL     1      45.834   5.390  13.561  0.00  0.00    +0.000 A 
ATOM     21  C   UNL     1      45.389   6.411  12.730  0.00  0.00    +0.000 A 
ATOM     22  N   UNL     1      46.251   7.263  12.138  0.00  0.00    +0.000 NA
ENDBRANCH  14  21
ENDBRANCH  13  14
ENDBRANCH   1  13
TORSDOF 4
ENDMDL
MODEL 3
REMARK VINA RESULT:    -7.635      1.347      1.611
REMARK INTER + INTRA:         -10.099
REMARK INTER:                  -9.307
REMARK INTRA:                  -0.792
REMARK UNBOUND:                -0.678
REMARK  Name = 
REMARK  5 active torsions:
REMARK  status: ('A' for Active; 'I' for Inactive)
REMARK    1  A    between atoms: C_1  and  C_2
REMARK    2  A    between atoms: C_6  and  N_7
REMARK    3  A    between atoms: N_7  and  C_8
REMARK    4  A    between atoms: C_8  and  C_9
REMARK    5  A    between atoms: C_13  and  C_14
REMARK                            x       y       z     vdW  Elec       q    Type
REMARK                         _______ _______ _______ _____ _____    ______ ____
ROOT
ATOM      1  C   UNL     1      44.843   3.897  11.592  0.00  0.00    +0.000 A 
ATOM      2  C   UNL     1      45.648   3.361  12.602  0.00  0.00    +0.000 A 
ATOM      3  C   UNL     1      46.412   4.196  13.412  0.00  0.00    +0.000 A 
ATOM      4  C   UNL     1      46.375   5.579  13.224  0.00  0.00    +0.000 A 
ATOM      5  C   UNL     1      45.577   6.162  12.222  0.00  0.00    +0.000 A 
ATOM      6  C   UNL     1      44.803   5.294  11.426  0.00  0.00    +0.000 A 
ENDROOT
BRANCH   5   7
ATOM      7  C   UNL     1      45.584   7.623  11.987  0.00  0.00    +0.000 A 
ATOM      8  C   UNL     1      46.659   8.444  12.360  0.00  0.00    +0.000 A 
ATOM      9  C   UNL     1      46.611   9.823  12.148  0.00  0.00    +0.000 A 
ATOM     10  C   UNL     1      45.484  10.359  11.553  0.00  0.00    +0.000 A 
ATOM     11  N   UNL     1      44.425   9.621  11.170  0.00  0.00    +0.000 NA
ATOM     12  C   UNL     1      44.502   8.285  11.397  0.00  0.00    +0.000 A 
ENDBRANCH   5   7
BRANCH   1  13
ATOM     13  C   UNL     1      44.057   2.985  10.675  0.00  0.00    +0.000 C 
BRANCH  13  14
ATOM     14  N   UNL     1      44.064   3.497   9.320  0.00  0.00    +0.000 N 
ATOM     15  H   UNL     1      43.933   4.502   9.244  0.00  0.00    +0.000 HD
BRANCH  14  21
ATOM     16  C   UNL     1      46.814  -0.008   7.672  0.00  0.00    +0.000 C 
ATOM     17  C   UNL     1      46.507   1.461   7.698  0.00  0.00    +0.000 A 
ATOM     18  C   UNL     1      47.318   2.360   7.022  0.00  0.00    +0.000 A 
ATOM     19  C   UNL     1      47.012   3.710   7.099  0.00  0.00    +0.000 A 
ATOM     20  C   UNL     1      45.916   4.117   7.853  0.00  0.00    +0.000 A 
ATOM     21  C   UNL     1      45.135   3.165   8.498  0.00  0.00    +0.000 A 
ATOM     22  N   UNL     1      45.422   1.850   8.420  0.00  0.00    +0.000 NA
ENDBRANCH  14  21
ENDBRANCH  13  14
ENDBRANCH   1  13
TORSDOF 4
ENDMDL
MODEL 4
REMARK VINA RESULT:    -7.464      1.402      1.917
REMARK INTER + INTRA:          -9.888
REMARK INTER:                  -9.173
REMARK INTRA:                  -0.715
REMARK UNBOUND:                -0.678
REMARK  Name = 
REMARK  5 active torsions:
REMARK  status: ('A' for Active; 'I' for Inactive)
REMARK    1  A    between atoms: C_1  and  C_2
REMARK    2  A    between atoms: C_6  and  N_7
REMARK    3  A    between atoms: N_7  and  C_8
REMARK    4  A    between atoms: C_8  and  C_9
REMARK    5  A    between atoms: C_13  and  C_14
REMARK                            x       y       z     vdW  Elec       q    Type
REMARK                         _______ _______ _______ _____ _____    ______ ____
ROOT
ATOM      1  C   UNL     1      44.850   4.920  11.445  0.00  0.00    +0.000 A 
ATOM      2  C   UNL     1      43.832   5.861  11.259  0.00  0.00    +0.000 A 
ATOM      3  C   UNL     1      44.072   7.213  11.486  0.00  0.00    +0.000 A 
ATOM      4  C   UNL     1      45.336   7.640  11.899  0.00  0.00    +0.000 A 
ATOM      5  C   UNL     1      46.390   6.728  12.097  0.00  0.00    +0.000 A 
ATOM      6  C   UNL     1      46.123   5.368  11.845  0.00  0.00    +0.000 A 
ENDROOT
BRANCH   5   7
ATOM      7  C   UNL     1      47.711   7.177  12.590  0.00  0.00    +0.000 A 
ATOM      8  C   UNL     1      48.473   8.154  11.932  0.00  0.00    +0.000 A 
ATOM      9  C   UNL     1      49.729   8.525  12.414  0.00  0.00    +0.000 A 
ATOM     10  C   UNL     1      50.201   7.914  13.561  0.00  0.00    +0.000 A 
ATOM     11  N   UNL     1      49.514   6.975  14.238  0.00  0.00    +0.000 NA
ATOM     12  C   UNL     1      48.299   6.633  13.737  0.00  0.00    +0.000 A 
ENDBRANCH   5   7
BRANCH   1  13
ATOM     13  C   UNL     1      44.573   3.445  11.252  0.00  0.00    +0.000 C 
BRANCH  13  14
ATOM     14  N   UNL     1      44.111   3.187   9.904  0.00  0.00    +0.000 N 
ATOM     15  H   UNL     1      43.451   3.870   9.541  0.00  0.00    +0.000 HD
BRANCH  14  21
ATOM     16  C   UNL     1      46.829  -0.012   7.680  0.00  0.00    +0.000 C 
ATOM     17  C   UNL     1      46.417   1.423   7.827  0.00  0.00    +0.000 A 
ATOM     18  C   UNL     1      47.042   2.412   7.080  0.00  0.00    +0.000 A 
ATOM     19  C   UNL     1      46.649   3.728   7.271  0.00  0.00    +0.000 A 
ATOM     20  C   UNL     1      45.657   4.013   8.203  0.00  0.00    +0.000 A 
ATOM     21  C   UNL     1      45.062   2.976   8.912  0.00  0.00    +0.000 A 
ATOM     22  N   UNL     1      45.433   1.693   8.725  0.00  0.00    +0.000 NA
ENDBRANCH  14  21
ENDBRANCH  13  14
ENDBRANCH   1  13
TORSDOF 4
ENDMDL
MODEL 5
REMARK VINA RESULT:    -7.450      2.264      3.933
REMARK INTER + INTRA:          -9.870
REMARK INTER:                  -9.119
REMARK INTRA:                  -0.752
REMARK UNBOUND:                -0.678
REMARK  Name = 
REMARK  5 active torsions:
REMARK  status: ('A' for Active; 'I' for Inactive)
REMARK    1  A    between atoms: C_1  and  C_2
REMARK    2  A    between atoms: C_6  and  N_7
REMARK    3  A    between atoms: N_7  and  C_8
REMARK    4  A    between atoms: C_8  and  C_9
REMARK    5  A    between atoms: C_13  and  C_14
REMARK                            x       y       z     vdW  Elec       q    Type
REMARK                         _______ _______ _______ _____ _____    ______ ____
ROOT
ATOM      1  C   UNL     1      44.847   5.445  11.441  0.00  0.00    +0.000 A 
ATOM      2  C   UNL     1      45.188   6.773  11.165  0.00  0.00    +0.000 A 
ATOM      3  C   UNL     1      46.142   7.430  11.937  0.00  0.00    +0.000 A 
ATOM      4  C   UNL     1      46.769   6.763  12.992  0.00  0.00    +0.000 A 
ATOM      5  C   UNL     1      46.458   5.426  13.304  0.00  0.00    +0.000 A 
ATOM      6  C   UNL     1      45.499   4.781  12.496  0.00  0.00    +0.000 A 
ENDROOT
BRANCH   5   7
ATOM      7  C   UNL     1      47.081   4.741  14.457  0.00  0.00    +0.000 A 
ATOM      8  C   UNL     1      47.522   5.428  15.598  0.00  0.00    +0.000 A 
ATOM      9  C   UNL     1      48.134   4.746  16.651  0.00  0.00    +0.000 A 
ATOM     10  C   UNL     1      48.286   3.375  16.547  0.00  0.00    +0.000 A 
ATOM     11  N   UNL     1      47.879   2.662  15.481  0.00  0.00    +0.000 NA
ATOM     12  C   UNL     1      47.295   3.358  14.472  0.00  0.00    +0.000 A 
ENDBRANCH   5   7
BRANCH   1  13
ATOM     13  C   UNL     1      43.769   4.750  10.637  0.00  0.00    +0.000 C 
BRANCH  13  14
ATOM     14  N   UNL     1      44.100   4.763   9.226  0.00  0.00    +0.000 N 
ATOM     15  H   UNL     1      44.501   5.635   8.890  0.00  0.00    +0.000 HD
BRANCH  14  21
ATOM     16  C   UNL     1      47.040   3.396   5.754  0.00  0.00    +0.000 C 
ATOM     17  C   UNL     1      46.317   3.042   7.020  0.00  0.00    +0.000 A 
ATOM     18  C   UNL     1      46.396   1.756   7.537  0.00  0.00    +0.000 A 
ATOM     19  C   UNL     1      45.688   1.468   8.694  0.00  0.00    +0.000 A 
ATOM     20  C   UNL     1      44.920   2.463   9.288  0.00  0.00    +0.000 A 
ATOM     21  C   UNL     1      44.891   3.735   8.727  0.00  0.00    +0.000 A 
ATOM     22  N   UNL     1      45.585   4.026   7.608  0.00  0.00    +0.000 NA
ENDBRANCH  14  21
ENDBRANCH  13  14
ENDBRANCH   1  13
TORSDOF 4
ENDMDL
MODEL 6
REMARK VINA RESULT:    -7.322      1.993      3.357
REMARK INTER + INTRA:          -9.712
REMARK INTER:                  -9.105
REMARK INTRA:                  -0.607
REMARK UNBOUND:                -0.678
REMARK  Name = 
REMARK  5 active torsions:
REMARK  status: ('A' for Active; 'I' for Inactive)
REMARK    1  A    between atoms: C_1  and  C_2
REMARK    2  A    between atoms: C_6  and  N_7
REMARK    3  A    between atoms: N_7  and  C_8
REMARK    4  A    between atoms: C_8  and  C_9
REMARK    5  A    between atoms: C_13  and  C_14
REMARK                            x       y       z     vdW  Elec       q    Type
REMARK                         _______ _______ _______ _____ _____    ______ ____
ROOT
ATOM      1  C   UNL     1      44.889   5.266  11.425  0.00  0.00    +0.000 A 
ATOM      2  C   UNL     1      45.019   6.592  11.001  0.00  0.00    +0.000 A 
ATOM      3  C   UNL     1      45.862   7.469  11.678  0.00  0.00    +0.000 A 
ATOM      4  C   UNL     1      46.588   7.025  12.785  0.00  0.00    +0.000 A 
ATOM      5  C   UNL     1      46.489   5.699  13.246  0.00  0.00    +0.000 A 
ATOM      6  C   UNL     1      45.639   4.830  12.532  0.00  0.00    +0.000 A 
ENDROOT
BRANCH   5   7
ATOM      7  C   UNL     1      47.215   5.249  14.454  0.00  0.00    +0.000 A 
ATOM      8  C   UNL     1      46.920   4.043  15.108  0.00  0.00    +0.000 A 
ATOM      9  C   UNL     1      47.608   3.671  16.264  0.00  0.00    +0.000 A 
ATOM     10  C   UNL     1      48.594   4.514  16.743  0.00  0.00    +0.000 A 
ATOM     11  N   UNL     1      48.924   5.679  16.156  0.00  0.00    +0.000 NA
ATOM     12  C   UNL     1      48.230   6.014  15.039  0.00  0.00    +0.000 A 
ENDBRANCH   5   7
BRANCH   1  13
ATOM     13  C   UNL     1      43.929   4.329  10.722  0.00  0.00    +0.000 C 
BRANCH  13  14
ATOM     14  N   UNL     1      44.571   3.061  10.441  0.00  0.00    +0.000 N 
ATOM     15  H   UNL     1      43.971   2.247  10.545  0.00  0.00    +0.000 HD
BRANCH  14  21
ATOM     16  C   UNL     1      46.864   0.072   7.547  0.00  0.00    +0.000 C 
ATOM     17  C   UNL     1      46.388   1.470   7.812  0.00  0.00    +0.000 A 
ATOM     18  C   UNL     1      46.708   2.497   6.936  0.00  0.00    +0.000 A 
ATOM     19  C   UNL     1      46.271   3.778   7.237  0.00  0.00    +0.000 A 
ATOM     20  C   UNL     1      45.540   3.992   8.401  0.00  0.00    +0.000 A 
ATOM     21  C   UNL     1      45.241   2.918   9.232  0.00  0.00    +0.000 A 
ATOM     22  N   UNL     1      45.656   1.668   8.941  0.00  0.00    +0.000 NA
ENDBRANCH  14  21
ENDBRANCH  13  14
ENDBRANCH   1  13
TORSDOF 4
ENDMDL
MODEL 7
REMARK VINA RESULT:    -7.225      2.110      6.590
REMARK INTER + INTRA:          -9.592
REMARK INTER:                  -8.897
REMARK INTRA:                  -0.696
REMARK UNBOUND:                -0.678
REMARK  Name = 
REMARK  5 active torsions:
REMARK  status: ('A' for Active; 'I' for Inactive)
REMARK    1  A    between atoms: C_1  and  C_2
REMARK    2  A    between atoms: C_6  and  N_7
REMARK    3  A    between atoms: N_7  and  C_8
REMARK    4  A    between atoms: C_8  and  C_9
REMARK    5  A    between atoms: C_13  and  C_14
REMARK                            x       y       z     vdW  Elec       q    Type
REMARK                         _______ _______ _______ _____ _____    ______ ____
ROOT
ATOM      1  C   UNL     1      44.655   4.827  12.092  0.00  0.00    +0.000 A 
ATOM      2  C   UNL     1      43.653   3.980  12.576  0.00  0.00    +0.000 A 
ATOM      3  C   UNL     1      43.293   2.837  11.866  0.00  0.00    +0.000 A 
ATOM      4  C   UNL     1      43.937   2.528  10.666  0.00  0.00    +0.000 A 
ATOM      5  C   UNL     1      44.952   3.351  10.143  0.00  0.00    +0.000 A 
ATOM      6  C   UNL     1      45.306   4.493  10.890  0.00  0.00    +0.000 A 
ENDROOT
BRANCH   5   7
ATOM      7  C   UNL     1      45.591   3.051   8.843  0.00  0.00    +0.000 A 
ATOM      8  C   UNL     1      45.992   1.758   8.477  0.00  0.00    +0.000 A 
ATOM      9  C   UNL     1      46.620   1.524   7.253  0.00  0.00    +0.000 A 
ATOM     10  C   UNL     1      46.830   2.597   6.405  0.00  0.00    +0.000 A 
ATOM     11  N   UNL     1      46.464   3.858   6.700  0.00  0.00    +0.000 NA
ATOM     12  C   UNL     1      45.862   4.050   7.901  0.00  0.00    +0.000 A 
ENDBRANCH   5   7
BRANCH   1  13
ATOM     13  C   UNL     1      45.006   6.098  12.836  0.00  0.00    +0.000 C 
BRANCH  13  14
ATOM     14  N   UNL     1      46.167   5.890  13.678  0.00  0.00    +0.000 N 
ATOM     15  H   UNL     1      46.379   4.917  13.878  0.00  0.00    +0.000 HD
BRANCH  14  21
ATOM     16  C   UNL     1      50.464   7.305  15.125  0.00  0.00    +0.000 C 
ATOM     17  C   UNL     1      49.464   7.217  14.010  0.00  0.00    +0.000 A 
ATOM     18  C   UNL     1      49.733   7.798  12.779  0.00  0.00    +0.000 A 
ATOM     19  C   UNL     1      48.767   7.716  11.788  0.00  0.00    +0.000 A 
ATOM     20  C   UNL     1      47.566   7.069  12.060  0.00  0.00    +0.000 A 
ATOM     21  C   UNL     1      47.362   6.497  13.310  0.00  0.00    +0.000 A 
ATOM     22  N   UNL     1      48.301   6.565  14.276  0.00  0.00    +0.000 NA
ENDBRANCH  14  21
ENDBRANCH  13  14
ENDBRANCH   1  13
TORSDOF 4
ENDMDL
MODEL 8
REMARK VINA RESULT:    -7.116      3.373      7.159
REMARK INTER + INTRA:          -9.458
REMARK INTER:                  -8.986
REMARK INTRA:                  -0.473
REMARK UNBOUND:                -0.678
REMARK  Name = 
REMARK  5 active torsions:
REMARK  status: ('A' for Active; 'I' for Inactive)
REMARK    1  A    between atoms: C_1  and  C_2
REMARK    2  A    between atoms: C_6  and  N_7
REMARK    3  A    between atoms: N_7  and  C_8
REMARK    4  A    between atoms: C_8  and  C_9
REMARK    5  A    between atoms: C_13  and  C_14
REMARK                            x       y       z     vdW  Elec       q    Type
REMARK                         _______ _______ _______ _____ _____    ______ ____
ROOT
ATOM      1  C   UNL     1      45.250   4.688  13.030  0.00  0.00    +0.000 A 
ATOM      2  C   UNL     1      43.905   5.043  13.167  0.00  0.00    +0.000 A 
ATOM      3  C   UNL     1      43.027   4.905  12.095  0.00  0.00    +0.000 A 
ATOM      4  C   UNL     1      43.487   4.405  10.874  0.00  0.00    +0.000 A 
ATOM      5  C   UNL     1      44.832   4.033  10.693  0.00  0.00    +0.000 A 
ATOM      6  C   UNL     1      45.694   4.170  11.800  0.00  0.00    +0.000 A 
ENDROOT
BRANCH   5   7
ATOM      7  C   UNL     1      45.329   3.559   9.383  0.00  0.00    +0.000 A 
ATOM      8  C   UNL     1      45.476   2.198   9.077  0.00  0.00    +0.000 A 
ATOM      9  C   UNL     1      45.978   1.793   7.839  0.00  0.00    +0.000 A 
ATOM     10  C   UNL     1      46.317   2.766   6.917  0.00  0.00    +0.000 A 
ATOM     11  N   UNL     1      46.192   4.086   7.151  0.00  0.00    +0.000 NA
ATOM     12  C   UNL     1      45.708   4.444   8.368  0.00  0.00    +0.000 A 
ENDBRANCH   5   7
BRANCH   1  13
ATOM     13  C   UNL     1      46.215   4.891  14.179  0.00  0.00    +0.000 C 
BRANCH  13  14
ATOM     14  N   UNL     1      46.768   3.623  14.608  0.00  0.00    +0.000 N 
ATOM     15  H   UNL     1      47.355   3.159  13.920  0.00  0.00    +0.000 HD
BRANCH  14  21
ATOM     16  C   UNL     1      50.397   1.714  17.006  0.00  0.00    +0.000 C 
ATOM     17  C   UNL     1      49.214   2.636  17.014  0.00  0.00    +0.000 A 
ATOM     18  C   UNL     1      48.834   3.279  18.183  0.00  0.00    +0.000 A 
ATOM     19  C   UNL     1      47.716   4.099  18.150  0.00  0.00    +0.000 A 
ATOM     20  C   UNL     1      47.013   4.243  16.958  0.00  0.00    +0.000 A 
ATOM     21  C   UNL     1      47.452   3.580  15.818  0.00  0.00    +0.000 A 
ATOM     22  N   UNL     1      48.543   2.788  15.841  0.00  0.00    +0.000 NA
ENDBRANCH  14  21
ENDBRANCH  13  14
ENDBRANCH   1  13
TORSDOF 4
ENDMDL
MODEL 9
REMARK VINA RESULT:    -6.783      1.633      6.933
REMARK INTER + INTRA:          -9.047
REMARK INTER:                  -8.404
REMARK INTRA:                  -0.644
REMARK UNBOUND:                -0.678
REMARK  Name = 
REMARK  5 active torsions:
REMARK  status: ('A' for Active; 'I' for Inactive)
REMARK    1  A    between atoms: C_1  and  C_2
REMARK    2  A    between atoms: C_6  and  N_7
REMARK    3  A    between atoms: N_7  and  C_8
REMARK    4  A    between atoms: C_8  and  C_9
REMARK    5  A    between atoms: C_13  and  C_14
REMARK                            x       y       z     vdW  Elec       q    Type
REMARK                         _______ _______ _______ _____ _____    ______ ____
ROOT
ATOM      1  C   UNL     1      44.559   5.779  11.375  0.00  0.00    +0.000 A 
ATOM      2  C   UNL     1      43.466   5.130  11.958  0.00  0.00    +0.000 A 
ATOM      3  C   UNL     1      43.081   3.866  11.521  0.00  0.00    +0.000 A 
ATOM      4  C   UNL     1      43.790   3.234  10.497  0.00  0.00    +0.000 A 
ATOM      5  C   UNL     1      44.897   3.849   9.883  0.00  0.00    +0.000 A 
ATOM      6  C   UNL     1      45.274   5.122  10.356  0.00  0.00    +0.000 A 
ENDROOT
BRANCH   5   7
ATOM      7  C   UNL     1      45.611   3.202   8.759  0.00  0.00    +0.000 A 
ATOM      8  C   UNL     1      46.084   3.918   7.650  0.00  0.00    +0.000 A 
ATOM      9  C   UNL     1      46.724   3.264   6.597  0.00  0.00    +0.000 A 
ATOM     10  C   UNL     1      46.890   1.893   6.678  0.00  0.00    +0.000 A 
ATOM     11  N   UNL     1      46.462   1.154   7.718  0.00  0.00    +0.000 NA
ATOM     12  C   UNL     1      45.837   1.821   8.721  0.00  0.00    +0.000 A 
ENDBRANCH   5   7
BRANCH   1  13
ATOM     13  C   UNL     1      44.942   7.176  11.813  0.00  0.00    +0.000 C 
BRANCH  13  14
ATOM     14  N   UNL     1      46.118   7.140  12.658  0.00  0.00    +0.000 N 
ATOM     15  H   UNL     1      46.479   6.208  12.846  0.00  0.00    +0.000 HD
BRANCH  14  21
ATOM     16  C   UNL     1      47.599  11.516  11.552  0.00  0.00    +0.000 C 
ATOM     17  C   UNL     1      47.942  10.067  11.740  0.00  0.00    +0.000 A 
ATOM     18  C   UNL     1      49.225   9.611  11.473  0.00  0.00    +0.000 A 
ATOM     19  C   UNL     1      49.489   8.259  11.633  0.00  0.00    +0.000 A 
ATOM     20  C   UNL     1      48.466   7.410  12.043  0.00  0.00    +0.000 A 
ATOM     21  C   UNL     1      47.205   7.932  12.306  0.00  0.00    +0.000 A 
ATOM     22  N   UNL     1      46.944   9.247  12.162  0.00  0.00    +0.000 NA
ENDBRANCH  14  21
ENDBRANCH  13  14
ENDBRANCH   1  13
TORSDOF 4
ENDMDL
