MODEL 1
REMARK VINA RESULT:    -7.471      0.000      0.000
REMARK INTER + INTRA:          -9.789
REMARK INTER:                  -9.654
REMARK INTRA:                  -0.135
REMARK UNBOUND:                -0.135
REMARK  Name = 
REMARK  6 active torsions:
REMARK  status: ('A' for Active; 'I' for Inactive)
REMARK    1  A    between atoms: N_1  and  C_2
REMARK    2  A    between atoms: C_2  and  C_3
REMARK    3  A    between atoms: C_6  and  C_7
REMARK    4  A    between atoms: C_7  and  N_8
REMARK    5  A    between atoms: C_13  and  C_14
REMARK    6  A    between atoms: C_14  and  O_16
REMARK                            x       y       z     vdW  Elec       q    Type
REMARK                         _______ _______ _______ _____ _____    ______ ____
ROOT
ATOM      1  N   UNL     1      44.285   4.350  10.163  0.00  0.00    +0.000 N 
ATOM      2  C   UNL     1      43.766   3.210  10.726  0.00  0.00    +0.000 A 
ATOM      3  C   UNL     1      44.299   2.127  10.058  0.00  0.00    +0.000 A 
ATOM      4  C   UNL     1      45.184   2.625   9.066  0.00  0.00    +0.000 A 
ATOM      5  C   UNL     1      45.978   2.057   8.056  0.00  0.00    +0.000 A 
ATOM      6  C   UNL     1      46.723   2.923   7.248  0.00  0.00    +0.000 A 
ATOM      7  C   UNL     1      46.702   4.284   7.527  0.00  0.00    +0.000 A 
ATOM      8  N   UNL     1      45.951   4.881   8.483  0.00  0.00    +0.000 NA
ATOM      9  C   UNL     1      45.204   4.013   9.196  0.00  0.00    +0.000 A 
ENDROOT
BRANCH   6  10
ATOM     10  C   UNL     1      47.541   2.356   6.157  0.00  0.00    +0.000 C 
ATOM     11  O   UNL     1      48.176   1.324   6.284  0.00  0.00    +0.000 OA
BRANCH  10  12
ATOM     12  O   UNL     1      47.485   3.047   4.998  0.00  0.00    +0.000 OA
ATOM     13  H   UNL     1      47.757   2.569   4.192  0.00  0.00    +0.000 HD
ENDBRANCH  10  12
ENDBRANCH   6  10
BRANCH   1  14
ATOM     14  C   UNL     1      43.914   5.705  10.536  0.00  0.00    +0.000 C 
BRANCH  14  18
ATOM     15  C   UNL     1      47.029   7.119  13.242  0.00  0.00    +0.000 C 
ATOM     16  C   UNL     1      45.862   8.077  12.976  0.00  0.00    +0.000 C 
ATOM     17  C   UNL     1      44.996   7.635  11.801  0.00  0.00    +0.000 C 
ATOM     18  C   UNL     1      44.508   6.179  11.885  0.00  0.00    +0.000 C 
ATOM     19  C   UNL     1      45.623   5.204  12.311  0.00  0.00    +0.000 C 
ATOM     20  C   UNL     1      46.459   5.715  13.484  0.00  0.00    +0.000 C 
BRANCH  15  21
ATOM     21  C   UNL     1      48.086   7.106  12.119  0.00  0.00    +0.000 C 
BRANCH  21  22
ATOM     22  N   UNL     1      49.382   6.623  12.588  0.00  0.00    +0.000 NA
ATOM     23  H   UNL     1      50.125   7.174  12.159  0.00  0.00    +0.000 HD
ATOM     24  H   UNL     1      49.525   5.663  12.273  0.00  0.00    +0.000 HD
ENDBRANCH  21  22
ENDBRANCH  15  21
ENDBRANCH  14  18
ENDBRANCH   1  14
TORSDOF 6
ENDMDL
MODEL 2
REMARK VINA RESULT:    -6.439      4.650      7.173
REMARK INTER + INTRA:          -8.456
REMARK INTER:                  -8.483
REMARK INTRA:                   0.027
REMARK UNBOUND:                -0.135
REMARK  Name = 
REMARK  6 active torsions:
REMARK  status: ('A' for Active; 'I' for Inactive)
REMARK    1  A    between atoms: N_1  and  C_2
REMARK    2  A    between atoms: C_2  and  C_3
REMARK    3  A    between atoms: C_6  and  C_7
REMARK    4  A    between atoms: C_7  and  N_8
REMARK    5  A    between atoms: C_13  and  C_14
REMARK    6  A    between atoms: C_14  and  O_16
REMARK                            x       y       z     vdW  Elec       q    Type
REMARK                         _______ _______ _______ _____ _____    ______ ____
ROOT
ATOM      1  N   UNL     1      47.484   6.490  12.980  0.00  0.00    +0.000 N 
ATOM      2  C   UNL     1      47.935   7.688  13.478  0.00  0.00    +0.000 A 
ATOM      3  C   UNL     1      48.252   7.502  14.807  0.00  0.00    +0.000 A 
ATOM      4  C   UNL     1      48.001   6.141  15.125  0.00  0.00    +0.000 A 
ATOM      5  C   UNL     1      48.076   5.354  16.286  0.00  0.00    +0.000 A 
ATOM      6  C   UNL     1      47.717   4.005  16.182  0.00  0.00    +0.000 A 
ATOM      7  C   UNL     1      47.379   3.496  14.934  0.00  0.00    +0.000 A 
ATOM      8  N   UNL     1      47.287   4.212  13.789  0.00  0.00    +0.000 NA
ATOM      9  C   UNL     1      47.583   5.518  13.950  0.00  0.00    +0.000 A 
ENDROOT
BRANCH   6  10
ATOM     10  C   UNL     1      47.753   3.161  17.393  0.00  0.00    +0.000 C 
ATOM     11  O   UNL     1      48.774   2.979  18.033  0.00  0.00    +0.000 OA
BRANCH  10  12
ATOM     12  O   UNL     1      46.557   2.651  17.757  0.00  0.00    +0.000 OA
ATOM     13  H   UNL     1      45.966   2.368  17.035  0.00  0.00    +0.000 HD
ENDBRANCH  10  12
ENDBRANCH   6  10
BRANCH   1  14
ATOM     14  C   UNL     1      46.979   6.286  11.633  0.00  0.00    +0.000 C 
BRANCH  14  18
ATOM     15  C   UNL     1      43.038   4.430  11.876  0.00  0.00    +0.000 C 
ATOM     16  C   UNL     1      43.320   5.576  12.854  0.00  0.00    +0.000 C 
ATOM     17  C   UNL     1      44.797   5.951  12.909  0.00  0.00    +0.000 C 
ATOM     18  C   UNL     1      45.434   6.226  11.536  0.00  0.00    +0.000 C 
ATOM     19  C   UNL     1      45.038   5.177  10.479  0.00  0.00    +0.000 C 
ATOM     20  C   UNL     1      43.548   4.840  10.488  0.00  0.00    +0.000 C 
BRANCH  15  21
ATOM     21  C   UNL     1      43.641   3.080  12.315  0.00  0.00    +0.000 C 
BRANCH  21  22
ATOM     22  N   UNL     1      43.009   1.950  11.641  0.00  0.00    +0.000 NA
ATOM     23  H   UNL     1      41.996   2.024  11.731  0.00  0.00    +0.000 HD
ATOM     24  H   UNL     1      43.270   1.081  12.109  0.00  0.00    +0.000 HD
ENDBRANCH  21  22
ENDBRANCH  15  21
ENDBRANCH  14  18
ENDBRANCH   1  14
TORSDOF 6
ENDMDL
MODEL 3
REMARK VINA RESULT:    -6.400      5.546      8.521
REMARK INTER + INTRA:          -8.406
REMARK INTER:                  -8.046
REMARK INTRA:                  -0.360
REMARK UNBOUND:                -0.135
REMARK  Name = 
REMARK  6 active torsions:
REMARK  status: ('A' for Active; 'I' for Inactive)
REMARK    1  A    between atoms: N_1  and  C_2
REMARK    2  A    between atoms: C_2  and  C_3
REMARK    3  A    between atoms: C_6  and  C_7
REMARK    4  A    between atoms: C_7  and  N_8
REMARK    5  A    between atoms: C_13  and  C_14
REMARK    6  A    between atoms: C_14  and  O_16
REMARK                            x       y       z     vdW  Elec       q    Type
REMARK                         _______ _______ _______ _____ _____    ______ ____
ROOT
ATOM      1  N   UNL     1      47.440   5.140  14.654  0.00  0.00    +0.000 N 
ATOM      2  C   UNL     1      48.041   6.336  14.344  0.00  0.00    +0.000 A 
ATOM      3  C   UNL     1      48.718   6.771  15.464  0.00  0.00    +0.000 A 
ATOM      4  C   UNL     1      48.537   5.800  16.483  0.00  0.00    +0.000 A 
ATOM      5  C   UNL     1      48.921   5.678  17.829  0.00  0.00    +0.000 A 
ATOM      6  C   UNL     1      48.516   4.530  18.520  0.00  0.00    +0.000 A 
ATOM      7  C   UNL     1      47.826   3.541  17.830  0.00  0.00    +0.000 A 
ATOM      8  N   UNL     1      47.428   3.613  16.538  0.00  0.00    +0.000 NA
ATOM      9  C   UNL     1      47.788   4.763  15.930  0.00  0.00    +0.000 A 
ENDROOT
BRANCH   6  10
ATOM     10  C   UNL     1      48.876   4.390  19.945  0.00  0.00    +0.000 C 
ATOM     11  O   UNL     1      49.637   5.158  20.506  0.00  0.00    +0.000 OA
BRANCH  10  12
ATOM     12  O   UNL     1      48.255   3.374  20.583  0.00  0.00    +0.000 OA
ATOM     13  H   UNL     1      48.689   3.035  21.388  0.00  0.00    +0.000 HD
ENDBRANCH  10  12
ENDBRANCH   6  10
BRANCH   1  14
ATOM     14  C   UNL     1      46.568   4.392  13.763  0.00  0.00    +0.000 C 
BRANCH  14  18
ATOM     15  C   UNL     1      43.362   5.344  10.962  0.00  0.00    +0.000 C 
ATOM     16  C   UNL     1      42.945   5.027  12.402  0.00  0.00    +0.000 C 
ATOM     17  C   UNL     1      44.077   4.414  13.220  0.00  0.00    +0.000 C 
ATOM     18  C   UNL     1      45.389   5.217  13.188  0.00  0.00    +0.000 C 
ATOM     19  C   UNL     1      45.757   5.694  11.770  0.00  0.00    +0.000 C 
ATOM     20  C   UNL     1      44.574   6.285  11.003  0.00  0.00    +0.000 C 
BRANCH  15  21
ATOM     21  C   UNL     1      43.658   4.091  10.113  0.00  0.00    +0.000 C 
BRANCH  21  22
ATOM     22  N   UNL     1      43.968   4.426   8.726  0.00  0.00    +0.000 NA
ATOM     23  H   UNL     1      43.458   5.267   8.458  0.00  0.00    +0.000 HD
ATOM     24  H   UNL     1      43.631   3.685   8.111  0.00  0.00    +0.000 HD
ENDBRANCH  21  22
ENDBRANCH  15  21
ENDBRANCH  14  18
ENDBRANCH   1  14
TORSDOF 6
ENDMDL
MODEL 4
REMARK VINA RESULT:    -6.212      1.339      2.014
REMARK INTER + INTRA:          -8.163
REMARK INTER:                  -8.234
REMARK INTRA:                   0.071
REMARK UNBOUND:                -0.135
REMARK  Name = 
REMARK  6 active torsions:
REMARK  status: ('A' for Active; 'I' for Inactive)
REMARK    1  A    between atoms: N_1  and  C_2
REMARK    2  A    between atoms: C_2  and  C_3
REMARK    3  A    between atoms: C_6  and  C_7
REMARK    4  A    between atoms: C_7  and  N_8
REMARK    5  A    between atoms: C_13  and  C_14
REMARK    6  A    between atoms: C_14  and  O_16
REMARK                            x       y       z     vdW  Elec       q    Type
REMARK                         _______ _______ _______ _____ _____    ______ ____
ROOT
ATOM      1  N   UNL     1      44.511   4.861  10.834  0.00  0.00    +0.000 N 
ATOM      2  C   UNL     1      43.922   3.818  11.507  0.00  0.00    +0.000 A 
ATOM      3  C   UNL     1      44.154   2.665  10.787  0.00  0.00    +0.000 A 
ATOM      4  C   UNL     1      44.924   3.015   9.646  0.00  0.00    +0.000 A 
ATOM      5  C   UNL     1      45.432   2.327   8.532  0.00  0.00    +0.000 A 
ATOM      6  C   UNL     1      46.156   3.063   7.588  0.00  0.00    +0.000 A 
ATOM      7  C   UNL     1      46.399   4.409   7.830  0.00  0.00    +0.000 A 
ATOM      8  N   UNL     1      45.928   5.118   8.882  0.00  0.00    +0.000 NA
ATOM      9  C   UNL     1      45.185   4.381   9.735  0.00  0.00    +0.000 A 
ENDROOT
BRANCH   6  10
ATOM     10  C   UNL     1      46.675   2.373   6.389  0.00  0.00    +0.000 C 
ATOM     11  O   UNL     1      46.743   2.916   5.300  0.00  0.00    +0.000 OA
BRANCH  10  12
ATOM     12  O   UNL     1      47.110   1.114   6.611  0.00  0.00    +0.000 OA
ATOM     13  H   UNL     1      47.277   0.565   5.822  0.00  0.00    +0.000 HD
ENDBRANCH  10  12
ENDBRANCH   6  10
BRANCH   1  14
ATOM     14  C   UNL     1      44.429   6.258  11.227  0.00  0.00    +0.000 C 
BRANCH  14  18
ATOM     15  C   UNL     1      47.852   8.291  13.012  0.00  0.00    +0.000 C 
ATOM     16  C   UNL     1      48.136   6.966  12.295  0.00  0.00    +0.000 C 
ATOM     17  C   UNL     1      46.864   6.185  11.978  0.00  0.00    +0.000 C 
ATOM     18  C   UNL     1      45.790   6.997  11.234  0.00  0.00    +0.000 C 
ATOM     19  C   UNL     1      45.592   8.404  11.831  0.00  0.00    +0.000 C 
ATOM     20  C   UNL     1      46.906   9.123  12.136  0.00  0.00    +0.000 C 
BRANCH  15  21
ATOM     21  C   UNL     1      47.283   8.114  14.434  0.00  0.00    +0.000 C 
BRANCH  21  22
ATOM     22  N   UNL     1      47.525   9.285  15.273  0.00  0.00    +0.000 NA
ATOM     23  H   UNL     1      46.634   9.655  15.604  0.00  0.00    +0.000 HD
ATOM     24  H   UNL     1      47.947  10.027  14.713  0.00  0.00    +0.000 HD
ENDBRANCH  21  22
ENDBRANCH  15  21
ENDBRANCH  14  18
ENDBRANCH   1  14
TORSDOF 6
ENDMDL
MODEL 5
REMARK VINA RESULT:    -6.062      4.570      6.346
REMARK INTER + INTRA:          -7.969
REMARK INTER:                  -7.658
REMARK INTRA:                  -0.311
REMARK UNBOUND:                -0.135
REMARK  Name = 
REMARK  6 active torsions:
REMARK  status: ('A' for Active; 'I' for Inactive)
REMARK    1  A    between atoms: N_1  and  C_2
REMARK    2  A    between atoms: C_2  and  C_3
REMARK    3  A    between atoms: C_6  and  C_7
REMARK    4  A    between atoms: C_7  and  N_8
REMARK    5  A    between atoms: C_13  and  C_14
REMARK    6  A    between atoms: C_14  and  O_16
REMARK                            x       y       z     vdW  Elec       q    Type
REMARK                         _______ _______ _______ _____ _____    ______ ____
ROOT
ATOM      1  N   UNL     1      47.528   5.500  14.502  0.00  0.00    +0.000 N 
ATOM      2  C   UNL     1      48.142   6.623  14.002  0.00  0.00    +0.000 A 
ATOM      3  C   UNL     1      47.595   6.888  12.764  0.00  0.00    +0.000 A 
ATOM      4  C   UNL     1      46.604   5.904  12.509  0.00  0.00    +0.000 A 
ATOM      5  C   UNL     1      45.746   5.602  11.439  0.00  0.00    +0.000 A 
ATOM      6  C   UNL     1      44.896   4.499  11.578  0.00  0.00    +0.000 A 
ATOM      7  C   UNL     1      44.887   3.808  12.784  0.00  0.00    +0.000 A 
ATOM      8  N   UNL     1      45.696   4.055  13.840  0.00  0.00    +0.000 NA
ATOM      9  C   UNL     1      46.540   5.088  13.637  0.00  0.00    +0.000 A 
ENDROOT
BRANCH   6  10
ATOM     10  C   UNL     1      44.006   4.136  10.457  0.00  0.00    +0.000 C 
ATOM     11  O   UNL     1      43.787   2.979  10.144  0.00  0.00    +0.000 OA
BRANCH  10  12
ATOM     12  O   UNL     1      43.421   5.187   9.843  0.00  0.00    +0.000 OA
ATOM     13  H   UNL     1      42.498   5.064   9.554  0.00  0.00    +0.000 HD
ENDBRANCH  10  12
ENDBRANCH   6  10
BRANCH   1  14
ATOM     14  C   UNL     1      47.876   4.849  15.754  0.00  0.00    +0.000 C 
BRANCH  14  18
ATOM     15  C   UNL     1      49.264   6.000  19.727  0.00  0.00    +0.000 C 
ATOM     16  C   UNL     1      50.090   6.504  18.537  0.00  0.00    +0.000 C 
ATOM     17  C   UNL     1      49.719   5.810  17.230  0.00  0.00    +0.000 C 
ATOM     18  C   UNL     1      48.215   5.827  16.906  0.00  0.00    +0.000 C 
ATOM     19  C   UNL     1      47.343   5.482  18.129  0.00  0.00    +0.000 C 
ATOM     20  C   UNL     1      47.777   6.201  19.406  0.00  0.00    +0.000 C 
BRANCH  15  21
ATOM     21  C   UNL     1      49.558   4.535  20.107  0.00  0.00    +0.000 C 
BRANCH  21  22
ATOM     22  N   UNL     1      48.465   3.932  20.864  0.00  0.00    +0.000 NA
ATOM     23  H   UNL     1      48.142   4.589  21.574  0.00  0.00    +0.000 HD
ATOM     24  H   UNL     1      48.808   3.116  21.372  0.00  0.00    +0.000 HD
ENDBRANCH  21  22
ENDBRANCH  15  21
ENDBRANCH  14  18
ENDBRANCH   1  14
TORSDOF 6
ENDMDL
MODEL 6
REMARK VINA RESULT:    -6.034      3.030      5.040
REMARK INTER + INTRA:          -7.932
REMARK INTER:                  -7.604
REMARK INTRA:                  -0.328
REMARK UNBOUND:                -0.135
REMARK  Name = 
REMARK  6 active torsions:
REMARK  status: ('A' for Active; 'I' for Inactive)
REMARK    1  A    between atoms: N_1  and  C_2
REMARK    2  A    between atoms: C_2  and  C_3
REMARK    3  A    between atoms: C_6  and  C_7
REMARK    4  A    between atoms: C_7  and  N_8
REMARK    5  A    between atoms: C_13  and  C_14
REMARK    6  A    between atoms: C_14  and  O_16
REMARK                            x       y       z     vdW  Elec       q    Type
REMARK                         _______ _______ _______ _____ _____    ______ ____
ROOT
ATOM      1  N   UNL     1      47.045   6.525  13.383  0.00  0.00    +0.000 N 
ATOM      2  C   UNL     1      47.545   5.802  14.438  0.00  0.00    +0.000 A 
ATOM      3  C   UNL     1      47.053   4.516  14.341  0.00  0.00    +0.000 A 
ATOM      4  C   UNL     1      46.241   4.452  13.178  0.00  0.00    +0.000 A 
ATOM      5  C   UNL     1      45.444   3.469  12.567  0.00  0.00    +0.000 A 
ATOM      6  C   UNL     1      44.766   3.819  11.395  0.00  0.00    +0.000 A 
ATOM      7  C   UNL     1      44.968   5.083  10.854  0.00  0.00    +0.000 A 
ATOM      8  N   UNL     1      45.718   6.065  11.406  0.00  0.00    +0.000 NA
ATOM      9  C   UNL     1      46.305   5.702  12.566  0.00  0.00    +0.000 A 
ENDROOT
BRANCH   6  10
ATOM     10  C   UNL     1      43.894   2.817  10.748  0.00  0.00    +0.000 C 
ATOM     11  O   UNL     1      44.023   2.496   9.579  0.00  0.00    +0.000 OA
BRANCH  10  12
ATOM     12  O   UNL     1      42.981   2.255  11.568  0.00  0.00    +0.000 OA
ATOM     13  H   UNL     1      43.325   1.666  12.265  0.00  0.00    +0.000 HD
ENDBRANCH  10  12
ENDBRANCH   6  10
BRANCH   1  14
ATOM     14  C   UNL     1      47.267   7.946  13.170  0.00  0.00    +0.000 C 
BRANCH  14  18
ATOM     15  C   UNL     1      51.122   9.089  11.478  0.00  0.00    +0.000 C 
ATOM     16  C   UNL     1      50.621   7.676  11.156  0.00  0.00    +0.000 C 
ATOM     17  C   UNL     1      49.438   7.260  12.025  0.00  0.00    +0.000 C 
ATOM     18  C   UNL     1      48.277   8.269  12.041  0.00  0.00    +0.000 C 
ATOM     19  C   UNL     1      48.759   9.724  12.201  0.00  0.00    +0.000 C 
ATOM     20  C   UNL     1      49.952  10.069  11.311  0.00  0.00    +0.000 C 
BRANCH  15  21
ATOM     21  C   UNL     1      51.759   9.215  12.876  0.00  0.00    +0.000 C 
BRANCH  21  22
ATOM     22  N   UNL     1      52.735   8.159  13.134  0.00  0.00    +0.000 NA
ATOM     23  H   UNL     1      53.346   8.058  12.324  0.00  0.00    +0.000 HD
ATOM     24  H   UNL     1      52.253   7.265  13.236  0.00  0.00    +0.000 HD
ENDBRANCH  21  22
ENDBRANCH  15  21
ENDBRANCH  14  18
ENDBRANCH   1  14
TORSDOF 6
ENDMDL
MODEL 7
REMARK VINA RESULT:    -5.731      3.320      5.357
REMARK INTER + INTRA:          -7.541
REMARK INTER:                  -7.035
REMARK INTRA:                  -0.506
REMARK UNBOUND:                -0.135
REMARK  Name = 
REMARK  6 active torsions:
REMARK  status: ('A' for Active; 'I' for Inactive)
REMARK    1  A    between atoms: N_1  and  C_2
REMARK    2  A    between atoms: C_2  and  C_3
REMARK    3  A    between atoms: C_6  and  C_7
REMARK    4  A    between atoms: C_7  and  N_8
REMARK    5  A    between atoms: C_13  and  C_14
REMARK    6  A    between atoms: C_14  and  O_16
REMARK                            x       y       z     vdW  Elec       q    Type
REMARK                         _______ _______ _______ _____ _____    ______ ____
ROOT
ATOM      1  N   UNL     1      47.616   6.397  13.711  0.00  0.00    +0.000 N 
ATOM      2  C   UNL     1      47.689   5.525  14.770  0.00  0.00    +0.000 A 
ATOM      3  C   UNL     1      46.846   4.466  14.505  0.00  0.00    +0.000 A 
ATOM      4  C   UNL     1      46.253   4.693  13.236  0.00  0.00    +0.000 A 
ATOM      5  C   UNL     1      45.301   4.031  12.443  0.00  0.00    +0.000 A 
ATOM      6  C   UNL     1      44.963   4.608  11.214  0.00  0.00    +0.000 A 
ATOM      7  C   UNL     1      45.631   5.756  10.806  0.00  0.00    +0.000 A 
ATOM      8  N   UNL     1      46.550   6.433  11.533  0.00  0.00    +0.000 NA
ATOM      9  C   UNL     1      46.799   5.874  12.735  0.00  0.00    +0.000 A 
ENDROOT
BRANCH   6  10
ATOM     10  C   UNL     1      43.941   3.952  10.374  0.00  0.00    +0.000 C 
ATOM     11  O   UNL     1      43.359   2.939  10.722  0.00  0.00    +0.000 OA
BRANCH  10  12
ATOM     12  O   UNL     1      43.671   4.593   9.216  0.00  0.00    +0.000 OA
ATOM     13  H   UNL     1      44.239   5.355   8.997  0.00  0.00    +0.000 HD
ENDBRANCH  10  12
ENDBRANCH   6  10
BRANCH   1  14
ATOM     14  C   UNL     1      48.298   7.679  13.640  0.00  0.00    +0.000 C 
BRANCH  14  18
ATOM     15  C   UNL     1      51.974   9.131  11.792  0.00  0.00    +0.000 C 
ATOM     16  C   UNL     1      52.047   8.774  13.281  0.00  0.00    +0.000 C 
ATOM     17  C   UNL     1      50.670   8.575  13.906  0.00  0.00    +0.000 C 
ATOM     18  C   UNL     1      49.763   7.592  13.145  0.00  0.00    +0.000 C 
ATOM     19  C   UNL     1      49.792   7.819  11.621  0.00  0.00    +0.000 C 
ATOM     20  C   UNL     1      51.200   8.023  11.065  0.00  0.00    +0.000 C 
BRANCH  15  21
ATOM     21  C   UNL     1      51.353  10.515  11.519  0.00  0.00    +0.000 C 
BRANCH  21  22
ATOM     22  N   UNL     1      51.333  10.838  10.095  0.00  0.00    +0.000 NA
ATOM     23  H   UNL     1      51.188  11.841   9.976  0.00  0.00    +0.000 HD
ATOM     24  H   UNL     1      50.533  10.384   9.651  0.00  0.00    +0.000 HD
ENDBRANCH  21  22
ENDBRANCH  15  21
ENDBRANCH  14  18
ENDBRANCH   1  14
TORSDOF 6
ENDMDL
MODEL 8
REMARK VINA RESULT:    -5.537      5.155      8.190
REMARK INTER + INTRA:          -7.290
REMARK INTER:                  -6.769
REMARK INTRA:                  -0.521
REMARK UNBOUND:                -0.135
REMARK  Name = 
REMARK  6 active torsions:
REMARK  status: ('A' for Active; 'I' for Inactive)
REMARK    1  A    between atoms: N_1  and  C_2
REMARK    2  A    between atoms: C_2  and  C_3
REMARK    3  A    between atoms: C_6  and  C_7
REMARK    4  A    between atoms: C_7  and  N_8
REMARK    5  A    between atoms: C_13  and  C_14
REMARK    6  A    between atoms: C_14  and  O_16
REMARK                            x       y       z     vdW  Elec       q    Type
REMARK                         _______ _______ _______ _____ _____    ______ ____
ROOT
ATOM      1  N   UNL     1      47.538   7.352  12.992  0.00  0.00    +0.000 N 
ATOM      2  C   UNL     1      47.474   8.683  12.660  0.00  0.00    +0.000 A 
ATOM      3  C   UNL     1      47.916   9.412  13.745  0.00  0.00    +0.000 A 
ATOM      4  C   UNL     1      48.276   8.493  14.765  0.00  0.00    +0.000 A 
ATOM      5  C   UNL     1      48.740   8.596  16.086  0.00  0.00    +0.000 A 
ATOM      6  C   UNL     1      48.973   7.409  16.789  0.00  0.00    +0.000 A 
ATOM      7  C   UNL     1      48.807   6.196  16.130  0.00  0.00    +0.000 A 
ATOM      8  N   UNL     1      48.358   6.044  14.862  0.00  0.00    +0.000 NA
ATOM      9  C   UNL     1      48.090   7.213  14.245  0.00  0.00    +0.000 A 
ENDROOT
BRANCH   6  10
ATOM     10  C   UNL     1      49.428   7.485  18.191  0.00  0.00    +0.000 C 
ATOM     11  O   UNL     1      50.105   8.409  18.609  0.00  0.00    +0.000 OA
BRANCH  10  12
ATOM     12  O   UNL     1      48.994   6.478  18.979  0.00  0.00    +0.000 OA
ATOM     13  H   UNL     1      48.090   6.153  18.811  0.00  0.00    +0.000 HD
ENDBRANCH  10  12
ENDBRANCH   6  10
BRANCH   1  14
ATOM     14  C   UNL     1      47.087   6.261  12.145  0.00  0.00    +0.000 C 
BRANCH  14  18
ATOM     15  C   UNL     1      43.239   4.284  11.580  0.00  0.00    +0.000 C 
ATOM     16  C   UNL     1      43.446   5.022  12.909  0.00  0.00    +0.000 C 
ATOM     17  C   UNL     1      44.901   5.411  13.144  0.00  0.00    +0.000 C 
ATOM     18  C   UNL     1      45.550   6.178  11.979  0.00  0.00    +0.000 C 
ATOM     19  C   UNL     1      45.226   5.555  10.607  0.00  0.00    +0.000 C 
ATOM     20  C   UNL     1      43.755   5.177  10.444  0.00  0.00    +0.000 C 
BRANCH  15  21
ATOM     21  C   UNL     1      43.900   2.892  11.538  0.00  0.00    +0.000 C 
BRANCH  21  22
ATOM     22  N   UNL     1      42.936   1.818  11.761  0.00  0.00    +0.000 NA
ATOM     23  H   UNL     1      42.170   2.164  12.338  0.00  0.00    +0.000 HD
ATOM     24  H   UNL     1      43.375   1.068  12.297  0.00  0.00    +0.000 HD
ENDBRANCH  21  22
ENDBRANCH  15  21
ENDBRANCH  14  18
ENDBRANCH   1  14
TORSDOF 6
ENDMDL
MODEL 9
REMARK VINA RESULT:    -5.532      4.718      7.633
REMARK INTER + INTRA:          -7.284
REMARK INTER:                  -6.812
REMARK INTRA:                  -0.471
REMARK UNBOUND:                -0.135
REMARK  Name = 
REMARK  6 active torsions:
REMARK  status: ('A' for Active; 'I' for Inactive)
REMARK    1  A    between atoms: N_1  and  C_2
REMARK    2  A    between atoms: C_2  and  C_3
REMARK    3  A    between atoms: C_6  and  C_7
REMARK    4  A    between atoms: C_7  and  N_8
REMARK    5  A    between atoms: C_13  and  C_14
REMARK    6  A    between atoms: C_14  and  O_16
REMARK                            x       y       z     vdW  Elec       q    Type
REMARK                         _______ _______ _______ _____ _____    ______ ____
ROOT
ATOM      1  N   UNL     1      47.367   4.770  14.993  0.00  0.00    +0.000 N 
ATOM      2  C   UNL     1      47.156   4.289  16.262  0.00  0.00    +0.000 A 
ATOM      3  C   UNL     1      48.022   4.944  17.112  0.00  0.00    +0.000 A 
ATOM      4  C   UNL     1      48.773   5.867  16.338  0.00  0.00    +0.000 A 
ATOM      5  C   UNL     1      49.816   6.773  16.593  0.00  0.00    +0.000 A 
ATOM      6  C   UNL     1      50.309   7.517  15.516  0.00  0.00    +0.000 A 
ATOM      7  C   UNL     1      49.703   7.382  14.273  0.00  0.00    +0.000 A 
ATOM      8  N   UNL     1      48.702   6.521  13.975  0.00  0.00    +0.000 NA
ATOM      9  C   UNL     1      48.299   5.782  15.030  0.00  0.00    +0.000 A 
ENDROOT
BRANCH   6  10
ATOM     10  C   UNL     1      51.428   8.453  15.747  0.00  0.00    +0.000 C 
ATOM     11  O   UNL     1      51.689   8.900  16.850  0.00  0.00    +0.000 OA
BRANCH  10  12
ATOM     12  O   UNL     1      52.163   8.732  14.649  0.00  0.00    +0.000 OA
ATOM     13  H   UNL     1      51.819   9.429  14.060  0.00  0.00    +0.000 HD
ENDBRANCH  10  12
ENDBRANCH   6  10
BRANCH   1  14
ATOM     14  C   UNL     1      46.704   4.280  13.796  0.00  0.00    +0.000 C 
BRANCH  14  18
ATOM     15  C   UNL     1      43.440   5.480  11.162  0.00  0.00    +0.000 C 
ATOM     16  C   UNL     1      43.069   5.159  12.614  0.00  0.00    +0.000 C 
ATOM     17  C   UNL     1      44.198   4.463  13.369  0.00  0.00    +0.000 C 
ATOM     18  C   UNL     1      45.554   5.185  13.290  0.00  0.00    +0.000 C 
ATOM     19  C   UNL     1      45.886   5.667  11.864  0.00  0.00    +0.000 C 
ATOM     20  C   UNL     1      44.709   6.344  11.163  0.00  0.00    +0.000 C 
BRANCH  15  21
ATOM     21  C   UNL     1      43.620   4.228  10.280  0.00  0.00    +0.000 C 
BRANCH  21  22
ATOM     22  N   UNL     1      43.898   4.570   8.888  0.00  0.00    +0.000 NA
ATOM     23  H   UNL     1      44.901   4.715   8.768  0.00  0.00    +0.000 HD
ATOM     24  H   UNL     1      43.457   5.461   8.659  0.00  0.00    +0.000 HD
ENDBRANCH  21  22
ENDBRANCH  15  21
ENDBRANCH  14  18
ENDBRANCH   1  14
TORSDOF 6
ENDMDL
