MODEL 1
REMARK VINA RESULT:    -7.735      0.000      0.000
REMARK INTER + INTRA:         -12.524
REMARK INTER:                 -11.353
REMARK INTRA:                  -1.172
REMARK UNBOUND:                -1.172
REMARK  Name = 
REMARK  10 active torsions:
REMARK  status: ('A' for Active; 'I' for Inactive)
REMARK    1  A    between atoms: C_1  and  O_2
REMARK    2  A    between atoms: O_2  and  C_3
REMARK    3  A    between atoms: C_10  and  C_11
REMARK    4  A    between atoms: N_13  and  C_14
REMARK    5  A    between atoms: C_14  and  C_15
REMARK    6  A    between atoms: C_18  and  C_19
REMARK    7  A    between atoms: C_19  and  N_20
REMARK    8  A    between atoms: N_20  and  C_21
REMARK    9  A    between atoms: N_20  and  C_22
REMARK   10  A    between atoms: C_22  and  C_23
REMARK                            x       y       z     vdW  Elec       q    Type
REMARK                         _______ _______ _______ _____ _____    ______ ____
ROOT
ATOM      1  C   UNL     1      47.515   8.786  13.377  0.00  0.00    +0.000 C 
ENDROOT
BRANCH   1   2
ATOM      2  C   UNL     1      46.647   7.795  12.646  0.00  0.00    +0.000 A 
ATOM      3  C   UNL     1      45.313   8.109  12.357  0.00  0.00    +0.000 A 
ATOM      4  C   UNL     1      44.480   7.174  11.737  0.00  0.00    +0.000 A 
ATOM      5  C   UNL     1      44.966   5.908  11.381  0.00  0.00    +0.000 A 
ATOM      6  C   UNL     1      46.305   5.598  11.660  0.00  0.00    +0.000 A 
ATOM      7  C   UNL     1      47.136   6.531  12.291  0.00  0.00    +0.000 A 
BRANCH   5   8
ATOM      8  C   UNL     1      44.047   4.884  10.736  0.00  0.00    +0.000 C 
BRANCH   8   9
ATOM      9  N   UNL     1      44.465   3.482  10.957  0.00  0.00    +0.000 NA
ATOM     10  C   UNL     1      43.762   2.902  12.110  0.00  0.00    +0.000 C 
BRANCH   9  11
ATOM     11  C   UNL     1      44.159   2.658   9.762  0.00  0.00    +0.000 C 
BRANCH  11  12
ATOM     12  C   UNL     1      45.262   2.578   8.722  0.00  0.00    +0.000 A 
ATOM     13  C   UNL     1      45.653   3.716   8.017  0.00  0.00    +0.000 A 
ATOM     14  C   UNL     1      46.707   3.618   7.112  0.00  0.00    +0.000 A 
ATOM     15  C   UNL     1      47.339   2.394   6.932  0.00  0.00    +0.000 A 
ATOM     16  C   UNL     1      46.882   1.309   7.661  0.00  0.00    +0.000 A 
ATOM     17  N   UNL     1      45.863   1.373   8.546  0.00  0.00    +0.000 NA
ENDBRANCH  11  12
ENDBRANCH   9  11
ENDBRANCH   8   9
ENDBRANCH   5   8
ENDBRANCH   1   2
BRANCH   1  20
ATOM     18  C   UNL     1      48.722   7.846  15.295  0.00  0.00    +0.000 C 
ATOM     19  O   UNL     1      49.662   7.537  14.566  0.00  0.00    +0.000 OA
ATOM     20  N   UNL     1      47.611   8.462  14.783  0.00  0.00    +0.000 N 
ATOM     21  H   UNL     1      46.852   8.743  15.390  0.00  0.00    +0.000 HD
BRANCH  18  29
ATOM     22  C   UNL     1      48.582   4.956  17.190  0.00  0.00    +0.000 A 
ATOM     23  N   UNL     1      48.518   4.018  18.157  0.00  0.00    +0.000 NA
ATOM     24  C   UNL     1      48.589   4.418  19.430  0.00  0.00    +0.000 A 
ATOM     25  N   UNL     1      48.717   5.668  19.865  0.00  0.00    +0.000 NA
ATOM     26  C   UNL     1      48.760   6.570  18.874  0.00  0.00    +0.000 A 
ATOM     27  S   UNL     1      48.924   8.216  19.252  0.00  0.00    +0.000 S 
ATOM     28  C   UNL     1      48.887   8.645  17.609  0.00  0.00    +0.000 A 
ATOM     29  C   UNL     1      48.759   7.567  16.742  0.00  0.00    +0.000 A 
ATOM     30  C   UNL     1      48.690   6.321  17.505  0.00  0.00    +0.000 A 
BRANCH  22  32
ATOM     31  C   UNL     1      47.174   4.384  15.423  0.00  0.00    +0.000 C 
ATOM     32  O   UNL     1      48.518   4.538  15.876  0.00  0.00    +0.000 OA
ENDBRANCH  22  32
ENDBRANCH  18  29
ENDBRANCH   1  20
TORSDOF 8
ENDMDL
MODEL 2
REMARK VINA RESULT:    -6.980      1.873      3.425
REMARK INTER + INTRA:         -11.415
REMARK INTER:                 -10.167
REMARK INTRA:                  -1.249
REMARK UNBOUND:                -1.172
REMARK  Name = 
REMARK  10 active torsions:
REMARK  status: ('A' for Active; 'I' for Inactive)
REMARK    1  A    between atoms: C_1  and  O_2
REMARK    2  A    between atoms: O_2  and  C_3
REMARK    3  A    between atoms: C_10  and  C_11
REMARK    4  A    between atoms: N_13  and  C_14
REMARK    5  A    between atoms: C_14  and  C_15
REMARK    6  A    between atoms: C_18  and  C_19
REMARK    7  A    between atoms: C_19  and  N_20
REMARK    8  A    between atoms: N_20  and  C_21
REMARK    9  A    between atoms: N_20  and  C_22
REMARK   10  A    between atoms: C_22  and  C_23
REMARK                            x       y       z     vdW  Elec       q    Type
REMARK                         _______ _______ _______ _____ _____    ______ ____
ROOT
ATOM      1  C   UNL     1      47.753   4.348  16.124  0.00  0.00    +0.000 C 
ENDROOT
BRANCH   1   2
ATOM      2  C   UNL     1      47.194   4.587  14.746  0.00  0.00    +0.000 A 
ATOM      3  C   UNL     1      47.191   5.878  14.202  0.00  0.00    +0.000 A 
ATOM      4  C   UNL     1      46.618   6.122  12.952  0.00  0.00    +0.000 A 
ATOM      5  C   UNL     1      46.045   5.078  12.211  0.00  0.00    +0.000 A 
ATOM      6  C   UNL     1      46.059   3.784  12.749  0.00  0.00    +0.000 A 
ATOM      7  C   UNL     1      46.624   3.542  14.007  0.00  0.00    +0.000 A 
BRANCH   5   8
ATOM      8  C   UNL     1      45.395   5.356  10.865  0.00  0.00    +0.000 C 
BRANCH   8   9
ATOM      9  N   UNL     1      44.355   4.373  10.490  0.00  0.00    +0.000 NA
ATOM     10  C   UNL     1      43.041   4.778  11.007  0.00  0.00    +0.000 C 
BRANCH   9  11
ATOM     11  C   UNL     1      44.261   4.261   9.013  0.00  0.00    +0.000 C 
BRANCH  11  12
ATOM     12  C   UNL     1      45.338   3.420   8.350  0.00  0.00    +0.000 A 
ATOM     13  C   UNL     1      45.488   2.074   8.679  0.00  0.00    +0.000 A 
ATOM     14  C   UNL     1      46.448   1.320   8.010  0.00  0.00    +0.000 A 
ATOM     15  C   UNL     1      47.232   1.925   7.036  0.00  0.00    +0.000 A 
ATOM     16  C   UNL     1      47.029   3.270   6.777  0.00  0.00    +0.000 A 
ATOM     17  N   UNL     1      46.106   4.027   7.409  0.00  0.00    +0.000 NA
ENDBRANCH  11  12
ENDBRANCH   9  11
ENDBRANCH   8   9
ENDBRANCH   5   8
ENDBRANCH   1   2
BRANCH   1  20
ATOM     18  C   UNL     1      47.992   5.520  18.266  0.00  0.00    +0.000 C 
ATOM     19  O   UNL     1      48.323   4.472  18.815  0.00  0.00    +0.000 OA
ATOM     20  N   UNL     1      47.682   5.545  16.932  0.00  0.00    +0.000 N 
ATOM     21  H   UNL     1      47.439   6.415  16.476  0.00  0.00    +0.000 HD
BRANCH  18  29
ATOM     22  C   UNL     1      48.532   8.839  17.459  0.00  0.00    +0.000 A 
ATOM     23  N   UNL     1      48.705  10.177  17.435  0.00  0.00    +0.000 NA
ATOM     24  C   UNL     1      48.489  10.862  18.562  0.00  0.00    +0.000 A 
ATOM     25  N   UNL     1      48.115  10.363  19.736  0.00  0.00    +0.000 NA
ATOM     26  C   UNL     1      47.971   9.030  19.722  0.00  0.00    +0.000 A 
ATOM     27  S   UNL     1      47.494   8.228  21.139  0.00  0.00    +0.000 S 
ATOM     28  C   UNL     1      47.550   6.720  20.360  0.00  0.00    +0.000 A 
ATOM     29  C   UNL     1      47.919   6.784  19.022  0.00  0.00    +0.000 A 
ATOM     30  C   UNL     1      48.164   8.174  18.640  0.00  0.00    +0.000 A 
BRANCH  22  32
ATOM     31  C   UNL     1      50.136   7.975  16.005  0.00  0.00    +0.000 C 
ATOM     32  O   UNL     1      48.747   8.137  16.290  0.00  0.00    +0.000 OA
ENDBRANCH  22  32
ENDBRANCH  18  29
ENDBRANCH   1  20
TORSDOF 8
ENDMDL
MODEL 3
REMARK VINA RESULT:    -6.864      2.046      2.329
REMARK INTER + INTRA:         -11.246
REMARK INTER:                 -10.371
REMARK INTRA:                  -0.875
REMARK UNBOUND:                -1.172
REMARK  Name = 
REMARK  10 active torsions:
REMARK  status: ('A' for Active; 'I' for Inactive)
REMARK    1  A    between atoms: C_1  and  O_2
REMARK    2  A    between atoms: O_2  and  C_3
REMARK    3  A    between atoms: C_10  and  C_11
REMARK    4  A    between atoms: N_13  and  C_14
REMARK    5  A    between atoms: C_14  and  C_15
REMARK    6  A    between atoms: C_18  and  C_19
REMARK    7  A    between atoms: C_19  and  N_20
REMARK    8  A    between atoms: N_20  and  C_21
REMARK    9  A    between atoms: N_20  and  C_22
REMARK   10  A    between atoms: C_22  and  C_23
REMARK                            x       y       z     vdW  Elec       q    Type
REMARK                         _______ _______ _______ _____ _____    ______ ____
ROOT
ATOM      1  C   UNL     1      46.977   8.728  13.611  0.00  0.00    +0.000 C 
ENDROOT
BRANCH   1   2
ATOM      2  C   UNL     1      46.310   7.734  12.697  0.00  0.00    +0.000 A 
ATOM      3  C   UNL     1      44.932   7.814  12.458  0.00  0.00    +0.000 A 
ATOM      4  C   UNL     1      44.290   6.860  11.664  0.00  0.00    +0.000 A 
ATOM      5  C   UNL     1      45.015   5.811  11.080  0.00  0.00    +0.000 A 
ATOM      6  C   UNL     1      46.396   5.739  11.309  0.00  0.00    +0.000 A 
ATOM      7  C   UNL     1      47.036   6.688  12.114  0.00  0.00    +0.000 A 
BRANCH   5   8
ATOM      8  C   UNL     1      44.307   4.759  10.243  0.00  0.00    +0.000 C 
BRANCH   8   9
ATOM      9  N   UNL     1      44.652   3.369  10.614  0.00  0.00    +0.000 NA
ATOM     10  C   UNL     1      43.867   2.927  11.775  0.00  0.00    +0.000 C 
BRANCH   9  11
ATOM     11  C   UNL     1      44.370   2.449   9.484  0.00  0.00    +0.000 C 
BRANCH  11  12
ATOM     12  C   UNL     1      45.476   2.324   8.451  0.00  0.00    +0.000 A 
ATOM     13  C   UNL     1      45.857   3.425   7.686  0.00  0.00    +0.000 A 
ATOM     14  C   UNL     1      46.914   3.289   6.789  0.00  0.00    +0.000 A 
ATOM     15  C   UNL     1      47.558   2.064   6.677  0.00  0.00    +0.000 A 
ATOM     16  C   UNL     1      47.110   1.016   7.463  0.00  0.00    +0.000 A 
ATOM     17  N   UNL     1      46.089   1.117   8.342  0.00  0.00    +0.000 NA
ENDBRANCH  11  12
ENDBRANCH   9  11
ENDBRANCH   8   9
ENDBRANCH   5   8
ENDBRANCH   1   2
BRANCH   1  20
ATOM     18  C   UNL     1      48.849   8.385  15.159  0.00  0.00    +0.000 C 
ATOM     19  O   UNL     1      48.153   8.755  16.101  0.00  0.00    +0.000 OA
ATOM     20  N   UNL     1      48.346   8.350  13.886  0.00  0.00    +0.000 N 
ATOM     21  H   UNL     1      48.912   8.016  13.117  0.00  0.00    +0.000 HD
BRANCH  18  29
ATOM     22  C   UNL     1      50.348   5.828  16.941  0.00  0.00    +0.000 A 
ATOM     23  N   UNL     1      51.183   4.967  17.558  0.00  0.00    +0.000 NA
ATOM     24  C   UNL     1      52.497   5.114  17.364  0.00  0.00    +0.000 A 
ATOM     25  N   UNL     1      53.092   6.038  16.615  0.00  0.00    +0.000 NA
ATOM     26  C   UNL     1      52.228   6.883  16.035  0.00  0.00    +0.000 A 
ATOM     27  S   UNL     1      52.818   8.124  15.039  0.00  0.00    +0.000 S 
ATOM     28  C   UNL     1      51.246   8.693  14.738  0.00  0.00    +0.000 A 
ATOM     29  C   UNL     1      50.247   7.963  15.367  0.00  0.00    +0.000 A 
ATOM     30  C   UNL     1      50.839   6.872  16.140  0.00  0.00    +0.000 A 
BRANCH  22  32
ATOM     31  C   UNL     1      48.573   6.114  18.425  0.00  0.00    +0.000 C 
ATOM     32  O   UNL     1      48.991   5.666  17.136  0.00  0.00    +0.000 OA
ENDBRANCH  22  32
ENDBRANCH  18  29
ENDBRANCH   1  20
TORSDOF 8
ENDMDL
MODEL 4
REMARK VINA RESULT:    -6.827      3.434      5.031
REMARK INTER + INTRA:         -11.191
REMARK INTER:                 -10.022
REMARK INTRA:                  -1.169
REMARK UNBOUND:                -1.172
REMARK  Name = 
REMARK  10 active torsions:
REMARK  status: ('A' for Active; 'I' for Inactive)
REMARK    1  A    between atoms: C_1  and  O_2
REMARK    2  A    between atoms: O_2  and  C_3
REMARK    3  A    between atoms: C_10  and  C_11
REMARK    4  A    between atoms: N_13  and  C_14
REMARK    5  A    between atoms: C_14  and  C_15
REMARK    6  A    between atoms: C_18  and  C_19
REMARK    7  A    between atoms: C_19  and  N_20
REMARK    8  A    between atoms: N_20  and  C_21
REMARK    9  A    between atoms: N_20  and  C_22
REMARK   10  A    between atoms: C_22  and  C_23
REMARK                            x       y       z     vdW  Elec       q    Type
REMARK                         _______ _______ _______ _____ _____    ______ ____
ROOT
ATOM      1  C   UNL     1      48.679   6.733  14.771  0.00  0.00    +0.000 C 
ENDROOT
BRANCH   1   2
ATOM      2  C   UNL     1      47.667   6.267  13.757  0.00  0.00    +0.000 A 
ATOM      3  C   UNL     1      47.518   6.954  12.545  0.00  0.00    +0.000 A 
ATOM      4  C   UNL     1      46.540   6.571  11.625  0.00  0.00    +0.000 A 
ATOM      5  C   UNL     1      45.696   5.482  11.890  0.00  0.00    +0.000 A 
ATOM      6  C   UNL     1      45.853   4.787  13.096  0.00  0.00    +0.000 A 
ATOM      7  C   UNL     1      46.826   5.179  14.023  0.00  0.00    +0.000 A 
BRANCH   5   8
ATOM      8  C   UNL     1      44.613   5.089  10.898  0.00  0.00    +0.000 C 
BRANCH   8   9
ATOM      9  N   UNL     1      44.676   3.673  10.475  0.00  0.00    +0.000 NA
ATOM     10  C   UNL     1      43.638   2.879  11.148  0.00  0.00    +0.000 C 
BRANCH   9  11
ATOM     11  C   UNL     1      44.469   3.563   9.010  0.00  0.00    +0.000 C 
BRANCH  11  12
ATOM     12  C   UNL     1      45.577   2.862   8.244  0.00  0.00    +0.000 A 
ATOM     13  C   UNL     1      46.411   3.582   7.390  0.00  0.00    +0.000 A 
ATOM     14  C   UNL     1      47.453   2.916   6.748  0.00  0.00    +0.000 A 
ATOM     15  C   UNL     1      47.633   1.557   6.971  0.00  0.00    +0.000 A 
ATOM     16  C   UNL     1      46.753   0.913   7.824  0.00  0.00    +0.000 A 
ATOM     17  N   UNL     1      45.735   1.531   8.461  0.00  0.00    +0.000 NA
ENDBRANCH  11  12
ENDBRANCH   9  11
ENDBRANCH   8   9
ENDBRANCH   5   8
ENDBRANCH   1   2
BRANCH   1  20
ATOM     18  C   UNL     1      50.655   8.177  14.599  0.00  0.00    +0.000 C 
ATOM     19  O   UNL     1      50.271   8.835  15.563  0.00  0.00    +0.000 OA
ATOM     20  N   UNL     1      49.919   7.120  14.134  0.00  0.00    +0.000 N 
ATOM     21  H   UNL     1      50.252   6.560  13.360  0.00  0.00    +0.000 HD
BRANCH  18  29
ATOM     22  C   UNL     1      51.491   8.960  11.336  0.00  0.00    +0.000 A 
ATOM     23  N   UNL     1      52.094   9.250  10.165  0.00  0.00    +0.000 NA
ATOM     24  C   UNL     1      53.418   9.432  10.166  0.00  0.00    +0.000 A 
ATOM     25  N   UNL     1      54.231   9.355  11.215  0.00  0.00    +0.000 NA
ATOM     26  C   UNL     1      53.595   9.047  12.355  0.00  0.00    +0.000 A 
ATOM     27  S   UNL     1      54.482   8.912  13.795  0.00  0.00    +0.000 S 
ATOM     28  C   UNL     1      53.082   8.527  14.676  0.00  0.00    +0.000 A 
ATOM     29  C   UNL     1      51.921   8.500  13.915  0.00  0.00    +0.000 A 
ATOM     30  C   UNL     1      52.231   8.820  12.522  0.00  0.00    +0.000 A 
BRANCH  22  32
ATOM     31  C   UNL     1      49.417  10.011  11.497  0.00  0.00    +0.000 C 
ATOM     32  O   UNL     1      50.122   8.782  11.333  0.00  0.00    +0.000 OA
ENDBRANCH  22  32
ENDBRANCH  18  29
ENDBRANCH   1  20
TORSDOF 8
ENDMDL
MODEL 5
REMARK VINA RESULT:    -6.797      3.528      5.677
REMARK INTER + INTRA:         -11.147
REMARK INTER:                  -9.613
REMARK INTRA:                  -1.535
REMARK UNBOUND:                -1.172
REMARK  Name = 
REMARK  10 active torsions:
REMARK  status: ('A' for Active; 'I' for Inactive)
REMARK    1  A    between atoms: C_1  and  O_2
REMARK    2  A    between atoms: O_2  and  C_3
REMARK    3  A    between atoms: C_10  and  C_11
REMARK    4  A    between atoms: N_13  and  C_14
REMARK    5  A    between atoms: C_14  and  C_15
REMARK    6  A    between atoms: C_18  and  C_19
REMARK    7  A    between atoms: C_19  and  N_20
REMARK    8  A    between atoms: N_20  and  C_21
REMARK    9  A    between atoms: N_20  and  C_22
REMARK   10  A    between atoms: C_22  and  C_23
REMARK                            x       y       z     vdW  Elec       q    Type
REMARK                         _______ _______ _______ _____ _____    ______ ____
ROOT
ATOM      1  C   UNL     1      47.954   3.464  17.520  0.00  0.00    +0.000 C 
ENDROOT
BRANCH   1   2
ATOM      2  C   UNL     1      47.787   4.339  16.305  0.00  0.00    +0.000 A 
ATOM      3  C   UNL     1      47.073   3.871  15.194  0.00  0.00    +0.000 A 
ATOM      4  C   UNL     1      46.966   4.648  14.038  0.00  0.00    +0.000 A 
ATOM      5  C   UNL     1      47.559   5.917  13.971  0.00  0.00    +0.000 A 
ATOM      6  C   UNL     1      48.263   6.390  15.087  0.00  0.00    +0.000 A 
ATOM      7  C   UNL     1      48.380   5.607  16.241  0.00  0.00    +0.000 A 
BRANCH   5   8
ATOM      8  C   UNL     1      47.466   6.744  12.699  0.00  0.00    +0.000 C 
BRANCH   8   9
ATOM      9  N   UNL     1      46.228   7.548  12.599  0.00  0.00    +0.000 NA
ATOM     10  C   UNL     1      46.541   8.967  12.385  0.00  0.00    +0.000 C 
BRANCH   9  11
ATOM     11  C   UNL     1      45.398   7.077  11.462  0.00  0.00    +0.000 C 
BRANCH  11  12
ATOM     12  C   UNL     1      44.704   5.742  11.668  0.00  0.00    +0.000 A 
ATOM     13  C   UNL     1      44.970   4.668  10.820  0.00  0.00    +0.000 A 
ATOM     14  C   UNL     1      44.360   3.442  11.073  0.00  0.00    +0.000 A 
ATOM     15  C   UNL     1      43.502   3.320  12.159  0.00  0.00    +0.000 A 
ATOM     16  C   UNL     1      43.280   4.438  12.945  0.00  0.00    +0.000 A 
ATOM     17  N   UNL     1      43.858   5.639  12.725  0.00  0.00    +0.000 NA
ENDBRANCH  11  12
ENDBRANCH   9  11
ENDBRANCH   8   9
ENDBRANCH   5   8
ENDBRANCH   1   2
BRANCH   1  20
ATOM     18  C   UNL     1      50.101   2.353  17.101  0.00  0.00    +0.000 C 
ATOM     19  O   UNL     1      49.598   1.700  16.190  0.00  0.00    +0.000 OA
ATOM     20  N   UNL     1      49.352   3.246  17.820  0.00  0.00    +0.000 N 
ATOM     21  H   UNL     1      49.776   3.805  18.549  0.00  0.00    +0.000 HD
BRANCH  18  29
ATOM     22  C   UNL     1      52.656   4.576  17.803  0.00  0.00    +0.000 A 
ATOM     23  N   UNL     1      53.821   5.199  18.076  0.00  0.00    +0.000 NA
ATOM     24  C   UNL     1      54.900   4.445  18.308  0.00  0.00    +0.000 A 
ATOM     25  N   UNL     1      54.961   3.117  18.297  0.00  0.00    +0.000 NA
ATOM     26  C   UNL     1      53.787   2.538  18.005  0.00  0.00    +0.000 A 
ATOM     27  S   UNL     1      53.683   0.845  17.952  0.00  0.00    +0.000 S 
ATOM     28  C   UNL     1      52.036   0.912  17.545  0.00  0.00    +0.000 A 
ATOM     29  C   UNL     1      51.526   2.200  17.448  0.00  0.00    +0.000 A 
ATOM     30  C   UNL     1      52.579   3.175  17.731  0.00  0.00    +0.000 A 
BRANCH  22  32
ATOM     31  C   UNL     1      51.804   6.416  16.653  0.00  0.00    +0.000 C 
ATOM     32  O   UNL     1      51.542   5.357  17.573  0.00  0.00    +0.000 OA
ENDBRANCH  22  32
ENDBRANCH  18  29
ENDBRANCH   1  20
TORSDOF 8
ENDMDL
MODEL 6
REMARK VINA RESULT:    -6.578      3.279      8.144
REMARK INTER + INTRA:         -10.827
REMARK INTER:                  -9.343
REMARK INTRA:                  -1.483
REMARK UNBOUND:                -1.172
REMARK  Name = 
REMARK  10 active torsions:
REMARK  status: ('A' for Active; 'I' for Inactive)
REMARK    1  A    between atoms: C_1  and  O_2
REMARK    2  A    between atoms: O_2  and  C_3
REMARK    3  A    between atoms: C_10  and  C_11
REMARK    4  A    between atoms: N_13  and  C_14
REMARK    5  A    between atoms: C_14  and  C_15
REMARK    6  A    between atoms: C_18  and  C_19
REMARK    7  A    between atoms: C_19  and  N_20
REMARK    8  A    between atoms: N_20  and  C_21
REMARK    9  A    between atoms: N_20  and  C_22
REMARK   10  A    between atoms: C_22  and  C_23
REMARK                            x       y       z     vdW  Elec       q    Type
REMARK                         _______ _______ _______ _____ _____    ______ ____
ROOT
ATOM      1  C   UNL     1      48.101   8.051  12.218  0.00  0.00    +0.000 C 
ENDROOT
BRANCH   1   2
ATOM      2  C   UNL     1      48.942   7.679  13.411  0.00  0.00    +0.000 A 
ATOM      3  C   UNL     1      48.364   7.014  14.499  0.00  0.00    +0.000 A 
ATOM      4  C   UNL     1      49.118   6.721  15.638  0.00  0.00    +0.000 A 
ATOM      5  C   UNL     1      50.473   7.075  15.709  0.00  0.00    +0.000 A 
ATOM      6  C   UNL     1      51.056   7.730  14.615  0.00  0.00    +0.000 A 
ATOM      7  C   UNL     1      50.297   8.034  13.479  0.00  0.00    +0.000 A 
BRANCH   5   8
ATOM      8  C   UNL     1      51.281   6.782  16.963  0.00  0.00    +0.000 C 
BRANCH   8   9
ATOM      9  N   UNL     1      51.853   5.418  16.999  0.00  0.00    +0.000 NA
ATOM     10  C   UNL     1      53.310   5.466  17.179  0.00  0.00    +0.000 C 
BRANCH   9  11
ATOM     11  C   UNL     1      51.270   4.645  18.124  0.00  0.00    +0.000 C 
BRANCH  11  12
ATOM     12  C   UNL     1      49.906   4.032  17.860  0.00  0.00    +0.000 A 
ATOM     13  C   UNL     1      48.771   4.528  18.500  0.00  0.00    +0.000 A 
ATOM     14  C   UNL     1      47.529   3.979  18.190  0.00  0.00    +0.000 A 
ATOM     15  C   UNL     1      47.452   2.955  17.255  0.00  0.00    +0.000 A 
ATOM     16  C   UNL     1      48.627   2.511  16.673  0.00  0.00    +0.000 A 
ATOM     17  N   UNL     1      49.845   3.023  16.953  0.00  0.00    +0.000 NA
ENDBRANCH  11  12
ENDBRANCH   9  11
ENDBRANCH   8   9
ENDBRANCH   5   8
ENDBRANCH   1   2
BRANCH   1  20
ATOM     18  C   UNL     1      46.122   6.898  11.340  0.00  0.00    +0.000 C 
ATOM     19  O   UNL     1      45.434   7.893  11.555  0.00  0.00    +0.000 OA
ATOM     20  N   UNL     1      47.456   6.888  11.649  0.00  0.00    +0.000 N 
ATOM     21  H   UNL     1      48.027   6.079  11.443  0.00  0.00    +0.000 HD
BRANCH  18  29
ATOM     22  C   UNL     1      44.380   4.193  12.608  0.00  0.00    +0.000 A 
ATOM     23  N   UNL     1      43.727   3.033  12.827  0.00  0.00    +0.000 NA
ATOM     24  C   UNL     1      43.470   2.246  11.777  0.00  0.00    +0.000 A 
ATOM     25  N   UNL     1      43.795   2.479  10.509  0.00  0.00    +0.000 NA
ATOM     26  C   UNL     1      44.457   3.633  10.338  0.00  0.00    +0.000 A 
ATOM     27  S   UNL     1      44.946   4.089   8.778  0.00  0.00    +0.000 S 
ATOM     28  C   UNL     1      45.656   5.515   9.368  0.00  0.00    +0.000 A 
ATOM     29  C   UNL     1      45.536   5.685  10.741  0.00  0.00    +0.000 A 
ATOM     30  C   UNL     1      44.809   4.556  11.320  0.00  0.00    +0.000 A 
BRANCH  22  32
ATOM     31  C   UNL     1      45.918   4.756  14.267  0.00  0.00    +0.000 C 
ATOM     32  O   UNL     1      44.636   5.007  13.693  0.00  0.00    +0.000 OA
ENDBRANCH  22  32
ENDBRANCH  18  29
ENDBRANCH   1  20
TORSDOF 8
ENDMDL
MODEL 7
REMARK VINA RESULT:    -6.259      2.141      2.673
REMARK INTER + INTRA:         -10.357
REMARK INTER:                  -9.241
REMARK INTRA:                  -1.116
REMARK UNBOUND:                -1.172
REMARK  Name = 
REMARK  10 active torsions:
REMARK  status: ('A' for Active; 'I' for Inactive)
REMARK    1  A    between atoms: C_1  and  O_2
REMARK    2  A    between atoms: O_2  and  C_3
REMARK    3  A    between atoms: C_10  and  C_11
REMARK    4  A    between atoms: N_13  and  C_14
REMARK    5  A    between atoms: C_14  and  C_15
REMARK    6  A    between atoms: C_18  and  C_19
REMARK    7  A    between atoms: C_19  and  N_20
REMARK    8  A    between atoms: N_20  and  C_21
REMARK    9  A    between atoms: N_20  and  C_22
REMARK   10  A    between atoms: C_22  and  C_23
REMARK                            x       y       z     vdW  Elec       q    Type
REMARK                         _______ _______ _______ _____ _____    ______ ____
ROOT
ATOM      1  C   UNL     1      50.059   8.246  13.316  0.00  0.00    +0.000 C 
ENDROOT
BRANCH   1   2
ATOM      2  C   UNL     1      48.692   7.856  12.819  0.00  0.00    +0.000 A 
ATOM      3  C   UNL     1      47.774   8.843  12.439  0.00  0.00    +0.000 A 
ATOM      4  C   UNL     1      46.481   8.497  12.037  0.00  0.00    +0.000 A 
ATOM      5  C   UNL     1      46.081   7.154  11.993  0.00  0.00    +0.000 A 
ATOM      6  C   UNL     1      47.004   6.165  12.361  0.00  0.00    +0.000 A 
ATOM      7  C   UNL     1      48.295   6.512  12.775  0.00  0.00    +0.000 A 
BRANCH   5   8
ATOM      8  C   UNL     1      44.665   6.785  11.584  0.00  0.00    +0.000 C 
BRANCH   8   9
ATOM      9  N   UNL     1      44.347   5.351  11.756  0.00  0.00    +0.000 NA
ATOM     10  C   UNL     1      43.471   5.144  12.917  0.00  0.00    +0.000 C 
BRANCH   9  11
ATOM     11  C   UNL     1      43.655   4.828  10.552  0.00  0.00    +0.000 C 
BRANCH  11  12
ATOM     12  C   UNL     1      44.511   3.993   9.616  0.00  0.00    +0.000 A 
ATOM     13  C   UNL     1      45.381   4.607   8.715  0.00  0.00    +0.000 A 
ATOM     14  C   UNL     1      46.193   3.810   7.913  0.00  0.00    +0.000 A 
ATOM     15  C   UNL     1      46.116   2.428   8.027  0.00  0.00    +0.000 A 
ATOM     16  C   UNL     1      45.218   1.896   8.937  0.00  0.00    +0.000 A 
ATOM     17  N   UNL     1      44.418   2.643   9.728  0.00  0.00    +0.000 NA
ENDBRANCH  11  12
ENDBRANCH   9  11
ENDBRANCH   8   9
ENDBRANCH   5   8
ENDBRANCH   1   2
BRANCH   1  20
ATOM     18  C   UNL     1      50.867   7.856  15.600  0.00  0.00    +0.000 C 
ATOM     19  O   UNL     1      50.844   9.064  15.826  0.00  0.00    +0.000 OA
ATOM     20  N   UNL     1      50.502   7.365  14.375  0.00  0.00    +0.000 N 
ATOM     21  H   UNL     1      50.493   6.368  14.201  0.00  0.00    +0.000 HD
BRANCH  18  29
ATOM     22  C   UNL     1      49.524   6.848  18.622  0.00  0.00    +0.000 A 
ATOM     23  N   UNL     1      49.254   6.306  19.828  0.00  0.00    +0.000 NA
ATOM     24  C   UNL     1      50.111   5.407  20.321  0.00  0.00    +0.000 A 
ATOM     25  N   UNL     1      51.230   4.976  19.747  0.00  0.00    +0.000 NA
ATOM     26  C   UNL     1      51.469   5.551  18.560  0.00  0.00    +0.000 A 
ATOM     27  S   UNL     1      52.856   5.112  17.685  0.00  0.00    +0.000 S 
ATOM     28  C   UNL     1      52.465   6.192  16.434  0.00  0.00    +0.000 A 
ATOM     29  C   UNL     1      51.286   6.897  16.638  0.00  0.00    +0.000 A 
ATOM     30  C   UNL     1      50.687   6.505  17.913  0.00  0.00    +0.000 A 
BRANCH  22  32
ATOM     31  C   UNL     1      47.491   7.939  18.953  0.00  0.00    +0.000 C 
ATOM     32  O   UNL     1      48.631   7.769  18.112  0.00  0.00    +0.000 OA
ENDBRANCH  22  32
ENDBRANCH  18  29
ENDBRANCH   1  20
TORSDOF 8
ENDMDL
MODEL 8
REMARK VINA RESULT:    -6.131      3.555      4.547
REMARK INTER + INTRA:         -10.170
REMARK INTER:                  -9.249
REMARK INTRA:                  -0.921
REMARK UNBOUND:                -1.172
REMARK  Name = 
REMARK  10 active torsions:
REMARK  status: ('A' for Active; 'I' for Inactive)
REMARK    1  A    between atoms: C_1  and  O_2
REMARK    2  A    between atoms: O_2  and  C_3
REMARK    3  A    between atoms: C_10  and  C_11
REMARK    4  A    between atoms: N_13  and  C_14
REMARK    5  A    between atoms: C_14  and  C_15
REMARK    6  A    between atoms: C_18  and  C_19
REMARK    7  A    between atoms: C_19  and  N_20
REMARK    8  A    between atoms: N_20  and  C_21
REMARK    9  A    between atoms: N_20  and  C_22
REMARK   10  A    between atoms: C_22  and  C_23
REMARK                            x       y       z     vdW  Elec       q    Type
REMARK                         _______ _______ _______ _____ _____    ______ ____
ROOT
ATOM      1  C   UNL     1      48.045   8.780  14.030  0.00  0.00    +0.000 C 
ENDROOT
BRANCH   1   2
ATOM      2  C   UNL     1      47.103   7.939  13.209  0.00  0.00    +0.000 A 
ATOM      3  C   UNL     1      45.982   8.524  12.606  0.00  0.00    +0.000 A 
ATOM      4  C   UNL     1      45.066   7.743  11.896  0.00  0.00    +0.000 A 
ATOM      5  C   UNL     1      45.258   6.361  11.762  0.00  0.00    +0.000 A 
ATOM      6  C   UNL     1      46.387   5.777  12.354  0.00  0.00    +0.000 A 
ATOM      7  C   UNL     1      47.297   6.557  13.075  0.00  0.00    +0.000 A 
BRANCH   5   8
ATOM      8  C   UNL     1      44.243   5.512  11.014  0.00  0.00    +0.000 C 
BRANCH   8   9
ATOM      9  N   UNL     1      44.743   4.171  10.643  0.00  0.00    +0.000 NA
ATOM     10  C   UNL     1      44.185   3.140  11.529  0.00  0.00    +0.000 C 
BRANCH   9  11
ATOM     11  C   UNL     1      44.357   3.845   9.247  0.00  0.00    +0.000 C 
BRANCH  11  12
ATOM     12  C   UNL     1      45.388   3.069   8.447  0.00  0.00    +0.000 A 
ATOM     13  C   UNL     1      46.223   3.725   7.544  0.00  0.00    +0.000 A 
ATOM     14  C   UNL     1      47.196   2.991   6.870  0.00  0.00    +0.000 A 
ATOM     15  C   UNL     1      47.309   1.628   7.112  0.00  0.00    +0.000 A 
ATOM     16  C   UNL     1      46.433   1.049   8.015  0.00  0.00    +0.000 A 
ATOM     17  N   UNL     1      45.481   1.734   8.683  0.00  0.00    +0.000 NA
ENDBRANCH  11  12
ENDBRANCH   9  11
ENDBRANCH   8   9
ENDBRANCH   5   8
ENDBRANCH   1   2
BRANCH   1  20
ATOM     18  C   UNL     1      49.976   9.233  12.587  0.00  0.00    +0.000 C 
ATOM     19  O   UNL     1      49.313  10.034  11.932  0.00  0.00    +0.000 OA
ATOM     20  N   UNL     1      49.420   8.558  13.641  0.00  0.00    +0.000 N 
ATOM     21  H   UNL     1      49.977   7.922  14.197  0.00  0.00    +0.000 HD
BRANCH  18  29
ATOM     22  C   UNL     1      52.711   8.178  14.422  0.00  0.00    +0.000 A 
ATOM     23  N   UNL     1      53.926   7.823  14.888  0.00  0.00    +0.000 NA
ATOM     24  C   UNL     1      54.946   7.787  14.026  0.00  0.00    +0.000 A 
ATOM     25  N   UNL     1      54.902   8.071  12.728  0.00  0.00    +0.000 NA
ATOM     26  C   UNL     1      53.681   8.436  12.309  0.00  0.00    +0.000 A 
ATOM     27  S   UNL     1      53.443   8.831  10.676  0.00  0.00    +0.000 S 
ATOM     28  C   UNL     1      51.799   9.159  10.947  0.00  0.00    +0.000 A 
ATOM     29  C   UNL     1      51.391   8.973  12.261  0.00  0.00    +0.000 A 
ATOM     30  C   UNL     1      52.522   8.532  13.076  0.00  0.00    +0.000 A 
BRANCH  22  32
ATOM     31  C   UNL     1      51.536   6.984  16.043  0.00  0.00    +0.000 C 
ATOM     32  O   UNL     1      51.657   8.205  15.314  0.00  0.00    +0.000 OA
ENDBRANCH  22  32
ENDBRANCH  18  29
ENDBRANCH   1  20
TORSDOF 8
ENDMDL
MODEL 9
REMARK VINA RESULT:    -5.925      4.517      6.102
REMARK INTER + INTRA:          -9.867
REMARK INTER:                  -8.954
REMARK INTRA:                  -0.913
REMARK UNBOUND:                -1.172
REMARK  Name = 
REMARK  10 active torsions:
REMARK  status: ('A' for Active; 'I' for Inactive)
REMARK    1  A    between atoms: C_1  and  O_2
REMARK    2  A    between atoms: O_2  and  C_3
REMARK    3  A    between atoms: C_10  and  C_11
REMARK    4  A    between atoms: N_13  and  C_14
REMARK    5  A    between atoms: C_14  and  C_15
REMARK    6  A    between atoms: C_18  and  C_19
REMARK    7  A    between atoms: C_19  and  N_20
REMARK    8  A    between atoms: N_20  and  C_21
REMARK    9  A    between atoms: N_20  and  C_22
REMARK   10  A    between atoms: C_22  and  C_23
REMARK                            x       y       z     vdW  Elec       q    Type
REMARK                         _______ _______ _______ _____ _____    ______ ____
ROOT
ATOM      1  C   UNL     1      48.267   9.530  12.789  0.00  0.00    +0.000 C 
ENDROOT
BRANCH   1   2
ATOM      2  C   UNL     1      47.202   8.514  12.470  0.00  0.00    +0.000 A 
ATOM      3  C   UNL     1      45.921   8.935  12.087  0.00  0.00    +0.000 A 
ATOM      4  C   UNL     1      44.907   8.004  11.852  0.00  0.00    +0.000 A 
ATOM      5  C   UNL     1      45.153   6.630  11.980  0.00  0.00    +0.000 A 
ATOM      6  C   UNL     1      46.437   6.208  12.351  0.00  0.00    +0.000 A 
ATOM      7  C   UNL     1      47.450   7.141  12.599  0.00  0.00    +0.000 A 
BRANCH   5   8
ATOM      8  C   UNL     1      44.037   5.623  11.753  0.00  0.00    +0.000 C 
BRANCH   8   9
ATOM      9  N   UNL     1      44.509   4.306  11.272  0.00  0.00    +0.000 NA
ATOM     10  C   UNL     1      43.963   3.221  12.099  0.00  0.00    +0.000 C 
BRANCH   9  11
ATOM     11  C   UNL     1      44.079   4.085   9.869  0.00  0.00    +0.000 C 
BRANCH  11  12
ATOM     12  C   UNL     1      45.128   3.484   8.950  0.00  0.00    +0.000 A 
ATOM     13  C   UNL     1      45.379   2.113   8.962  0.00  0.00    +0.000 A 
ATOM     14  C   UNL     1      46.307   1.590   8.066  0.00  0.00    +0.000 A 
ATOM     15  C   UNL     1      46.960   2.444   7.186  0.00  0.00    +0.000 A 
ATOM     16  C   UNL     1      46.664   3.795   7.246  0.00  0.00    +0.000 A 
ATOM     17  N   UNL     1      45.769   4.332   8.104  0.00  0.00    +0.000 NA
ENDBRANCH  11  12
ENDBRANCH   9  11
ENDBRANCH   8   9
ENDBRANCH   5   8
ENDBRANCH   1   2
BRANCH   1  20
ATOM     18  C   UNL     1      50.340  10.432  11.835  0.00  0.00    +0.000 C 
ATOM     19  O   UNL     1      50.485  11.161  12.813  0.00  0.00    +0.000 OA
ATOM     20  N   UNL     1      49.259   9.596  11.739  0.00  0.00    +0.000 N 
ATOM     21  H   UNL     1      49.158   8.974  10.947  0.00  0.00    +0.000 HD
BRANCH  18  29
ATOM     22  C   UNL     1      53.250   8.668  11.217  0.00  0.00    +0.000 A 
ATOM     23  N   UNL     1      54.408   8.164  10.746  0.00  0.00    +0.000 NA
ATOM     24  C   UNL     1      54.863   8.619   9.574  0.00  0.00    +0.000 A 
ATOM     25  N   UNL     1      54.293   9.537   8.801  0.00  0.00    +0.000 NA
ATOM     26  C   UNL     1      53.154  10.025   9.315  0.00  0.00    +0.000 A 
ATOM     27  S   UNL     1      52.291  11.206   8.455  0.00  0.00    +0.000 S 
ATOM     28  C   UNL     1      51.104  11.288   9.667  0.00  0.00    +0.000 A 
ATOM     29  C   UNL     1      51.323  10.429  10.736  0.00  0.00    +0.000 A 
ATOM     30  C   UNL     1      52.551   9.667  10.518  0.00  0.00    +0.000 A 
BRANCH  22  32
ATOM     31  C   UNL     1      53.428   8.797  13.538  0.00  0.00    +0.000 C 
ATOM     32  O   UNL     1      52.778   8.189  12.423  0.00  0.00    +0.000 OA
ENDBRANCH  22  32
ENDBRANCH  18  29
ENDBRANCH   1  20
TORSDOF 8
ENDMDL
