MODEL 1
REMARK VINA RESULT:    -7.860      0.000      0.000
REMARK INTER + INTRA:          -9.873
REMARK INTER:                  -9.468
REMARK INTRA:                  -0.405
REMARK UNBOUND:                -0.405
REMARK  Name = 
REMARK  4 active torsions:
REMARK  status: ('A' for Active; 'I' for Inactive)
REMARK    1  A    between atoms: C_2  and  O_3
REMARK    2  A    between atoms: C_2  and  C_4
REMARK    3  A    between atoms: C_7  and  C_8
REMARK    4  A    between atoms: C_8  and  N_9
REMARK                            x       y       z     vdW  Elec       q    Type
REMARK                         _______ _______ _______ _____ _____    ______ ____
ROOT
ATOM      1  C   UNL     1      46.620   2.649   7.338  0.00  0.00    +0.000 A 
ATOM      2  C   UNL     1      46.156   3.938   7.613  0.00  0.00    +0.000 A 
ATOM      3  C   UNL     1      45.281   4.134   8.681  0.00  0.00    +0.000 A 
ATOM      4  C   UNL     1      44.869   3.032   9.432  0.00  0.00    +0.000 A 
ATOM      5  N   UNL     1      45.304   1.773   9.163  0.00  0.00    +0.000 NA
ATOM      6  C   UNL     1      46.159   1.606   8.125  0.00  0.00    +0.000 A 
ENDROOT
BRANCH   1   8
ATOM      7  O   UNL     1      48.327   1.419   6.256  0.00  0.00    +0.000 OA
ATOM      8  C   UNL     1      47.536   2.344   6.225  0.00  0.00    +0.000 C 
BRANCH   8   9
ATOM      9  O   UNL     1      47.435   3.204   5.189  0.00  0.00    +0.000 OA
ATOM     10  H   UNL     1      48.046   3.964   5.214  0.00  0.00    +0.000 HD
ENDBRANCH   8   9
ENDBRANCH   1   8
BRANCH   4  11
ATOM     11  C   UNL     1      43.884   3.207  10.573  0.00  0.00    +0.000 C 
BRANCH  11  12
ATOM     12  N   UNL     1      44.480   2.863  11.852  0.00  0.00    +0.000 N 
ATOM     13  C   UNL     1      45.315   3.754  12.500  0.00  0.00    +0.000 A 
ATOM     14  C   UNL     1      45.184   5.125  12.404  0.00  0.00    +0.000 A 
ATOM     15  C   UNL     1      46.059   5.890  13.143  0.00  0.00    +0.000 A 
ATOM     16  N   UNL     1      46.998   5.368  13.948  0.00  0.00    +0.000 NA
ATOM     17  C   UNL     1      47.030   4.030  13.989  0.00  0.00    +0.000 A 
ATOM     18  N   UNL     1      46.243   3.194  13.291  0.00  0.00    +0.000 NA
ATOM     19  H   UNL     1      44.837   1.919  11.959  0.00  0.00    +0.000 HD
ENDBRANCH  11  12
ENDBRANCH   4  11
TORSDOF 4
ENDMDL
MODEL 2
REMARK VINA RESULT:    -7.791      0.856      1.258
REMARK INTER + INTRA:          -9.790
REMARK INTER:                  -9.420
REMARK INTRA:                  -0.370
REMARK UNBOUND:                -0.405
REMARK  Name = 
REMARK  4 active torsions:
REMARK  status: ('A' for Active; 'I' for Inactive)
REMARK    1  A    between atoms: C_2  and  O_3
REMARK    2  A    between atoms: C_2  and  C_4
REMARK    3  A    between atoms: C_7  and  C_8
REMARK    4  A    between atoms: C_8  and  N_9
REMARK                            x       y       z     vdW  Elec       q    Type
REMARK                         _______ _______ _______ _____ _____    ______ ____
ROOT
ATOM      1  C   UNL     1      46.582   2.690   7.360  0.00  0.00    +0.000 A 
ATOM      2  C   UNL     1      46.018   1.757   8.232  0.00  0.00    +0.000 A 
ATOM      3  C   UNL     1      45.129   2.193   9.214  0.00  0.00    +0.000 A 
ATOM      4  C   UNL     1      44.846   3.555   9.317  0.00  0.00    +0.000 A 
ATOM      5  N   UNL     1      45.401   4.472   8.482  0.00  0.00    +0.000 NA
ATOM      6  C   UNL     1      46.258   4.026   7.530  0.00  0.00    +0.000 A 
ENDROOT
BRANCH   1   8
ATOM      7  O   UNL     1      48.331   1.406   6.414  0.00  0.00    +0.000 OA
ATOM      8  C   UNL     1      47.540   2.325   6.300  0.00  0.00    +0.000 C 
BRANCH   8   9
ATOM      9  O   UNL     1      47.475   3.122   5.214  0.00  0.00    +0.000 OA
ATOM     10  H   UNL     1      46.828   3.849   5.265  0.00  0.00    +0.000 HD
ENDBRANCH   8   9
ENDBRANCH   1   8
BRANCH   4  11
ATOM     11  C   UNL     1      43.916   4.065  10.403  0.00  0.00    +0.000 C 
BRANCH  11  12
ATOM     12  N   UNL     1      44.301   3.571  11.713  0.00  0.00    +0.000 N 
ATOM     13  C   UNL     1      45.404   4.094  12.364  0.00  0.00    +0.000 A 
ATOM     14  C   UNL     1      45.821   5.402  12.221  0.00  0.00    +0.000 A 
ATOM     15  C   UNL     1      46.909   5.795  12.969  0.00  0.00    +0.000 A 
ATOM     16  N   UNL     1      47.551   4.984  13.824  0.00  0.00    +0.000 NA
ATOM     17  C   UNL     1      47.056   3.743  13.907  0.00  0.00    +0.000 A 
ATOM     18  N   UNL     1      46.020   3.251  13.206  0.00  0.00    +0.000 NA
ATOM     19  H   UNL     1      44.259   2.569  11.862  0.00  0.00    +0.000 HD
ENDBRANCH  11  12
ENDBRANCH   4  11
TORSDOF 4
ENDMDL
MODEL 3
REMARK VINA RESULT:    -7.104      1.717      2.282
REMARK INTER + INTRA:          -8.962
REMARK INTER:                  -8.721
REMARK INTRA:                  -0.242
REMARK UNBOUND:                -0.405
REMARK  Name = 
REMARK  4 active torsions:
REMARK  status: ('A' for Active; 'I' for Inactive)
REMARK    1  A    between atoms: C_2  and  O_3
REMARK    2  A    between atoms: C_2  and  C_4
REMARK    3  A    between atoms: C_7  and  C_8
REMARK    4  A    between atoms: C_8  and  N_9
REMARK                            x       y       z     vdW  Elec       q    Type
REMARK                         _______ _______ _______ _____ _____    ______ ____
ROOT
ATOM      1  C   UNL     1      46.445   2.243   7.737  0.00  0.00    +0.000 A 
ATOM      2  C   UNL     1      46.375   3.629   7.581  0.00  0.00    +0.000 A 
ATOM      3  C   UNL     1      45.558   4.370   8.435  0.00  0.00    +0.000 A 
ATOM      4  C   UNL     1      44.809   3.704   9.406  0.00  0.00    +0.000 A 
ATOM      5  N   UNL     1      44.860   2.354   9.555  0.00  0.00    +0.000 NA
ATOM      6  C   UNL     1      45.666   1.654   8.719  0.00  0.00    +0.000 A 
ENDROOT
BRANCH   1   8
ATOM      7  O   UNL     1      48.199   1.801   6.212  0.00  0.00    +0.000 OA
ATOM      8  C   UNL     1      47.270   1.378   6.875  0.00  0.00    +0.000 C 
BRANCH   8   9
ATOM      9  O   UNL     1      46.878   0.087   6.870  0.00  0.00    +0.000 OA
ATOM     10  H   UNL     1      47.161  -0.440   7.640  0.00  0.00    +0.000 HD
ENDBRANCH   8   9
ENDBRANCH   1   8
BRANCH   4  11
ATOM     11  C   UNL     1      43.878   4.478  10.321  0.00  0.00    +0.000 C 
BRANCH  11  12
ATOM     12  N   UNL     1      44.244   5.881  10.395  0.00  0.00    +0.000 N 
ATOM     13  C   UNL     1      45.053   6.342  11.417  0.00  0.00    +0.000 A 
ATOM     14  C   UNL     1      46.034   5.576  12.015  0.00  0.00    +0.000 A 
ATOM     15  C   UNL     1      46.794   6.184  12.989  0.00  0.00    +0.000 A 
ATOM     16  N   UNL     1      46.639   7.466  13.356  0.00  0.00    +0.000 NA
ATOM     17  C   UNL     1      45.678   8.129  12.701  0.00  0.00    +0.000 A 
ATOM     18  N   UNL     1      44.865   7.626  11.758  0.00  0.00    +0.000 NA
ATOM     19  H   UNL     1      43.518   6.561  10.199  0.00  0.00    +0.000 HD
ENDBRANCH  11  12
ENDBRANCH   4  11
TORSDOF 4
ENDMDL
MODEL 4
REMARK VINA RESULT:    -6.968      3.617      6.136
REMARK INTER + INTRA:          -8.799
REMARK INTER:                  -8.460
REMARK INTRA:                  -0.339
REMARK UNBOUND:                -0.405
REMARK  Name = 
REMARK  4 active torsions:
REMARK  status: ('A' for Active; 'I' for Inactive)
REMARK    1  A    between atoms: C_2  and  O_3
REMARK    2  A    between atoms: C_2  and  C_4
REMARK    3  A    between atoms: C_7  and  C_8
REMARK    4  A    between atoms: C_8  and  N_9
REMARK                            x       y       z     vdW  Elec       q    Type
REMARK                         _______ _______ _______ _____ _____    ______ ____
ROOT
ATOM      1  C   UNL     1      46.563   5.221  13.298  0.00  0.00    +0.000 A 
ATOM      2  C   UNL     1      46.352   6.050  12.193  0.00  0.00    +0.000 A 
ATOM      3  C   UNL     1      45.412   5.677  11.231  0.00  0.00    +0.000 A 
ATOM      4  C   UNL     1      44.727   4.472  11.384  0.00  0.00    +0.000 A 
ATOM      5  N   UNL     1      44.936   3.652  12.448  0.00  0.00    +0.000 NA
ATOM      6  C   UNL     1      45.848   4.037  13.374  0.00  0.00    +0.000 A 
ENDROOT
BRANCH   1   8
ATOM      7  O   UNL     1      48.596   6.094  14.136  0.00  0.00    +0.000 OA
ATOM      8  C   UNL     1      47.541   5.526  14.356  0.00  0.00    +0.000 C 
BRANCH   8   9
ATOM      9  O   UNL     1      47.171   5.090  15.578  0.00  0.00    +0.000 OA
ATOM     10  H   UNL     1      46.676   4.250  15.591  0.00  0.00    +0.000 HD
ENDBRANCH   8   9
ENDBRANCH   1   8
BRANCH   4  11
ATOM     11  C   UNL     1      43.730   4.018  10.333  0.00  0.00    +0.000 C 
BRANCH  11  12
ATOM     12  N   UNL     1      44.220   4.268   8.989  0.00  0.00    +0.000 N 
ATOM     13  C   UNL     1      45.198   3.461   8.436  0.00  0.00    +0.000 A 
ATOM     14  C   UNL     1      45.337   2.121   8.738  0.00  0.00    +0.000 A 
ATOM     15  C   UNL     1      46.328   1.432   8.076  0.00  0.00    +0.000 A 
ATOM     16  N   UNL     1      47.130   1.991   7.155  0.00  0.00    +0.000 NA
ATOM     17  C   UNL     1      46.900   3.288   6.918  0.00  0.00    +0.000 A 
ATOM     18  N   UNL     1      45.981   4.058   7.526  0.00  0.00    +0.000 NA
ATOM     19  H   UNL     1      44.384   5.234   8.726  0.00  0.00    +0.000 HD
ENDBRANCH  11  12
ENDBRANCH   4  11
TORSDOF 4
ENDMDL
MODEL 5
REMARK VINA RESULT:    -6.054      3.265      4.933
REMARK INTER + INTRA:          -7.698
REMARK INTER:                  -7.479
REMARK INTRA:                  -0.219
REMARK UNBOUND:                -0.405
REMARK  Name = 
REMARK  4 active torsions:
REMARK  status: ('A' for Active; 'I' for Inactive)
REMARK    1  A    between atoms: C_2  and  O_3
REMARK    2  A    between atoms: C_2  and  C_4
REMARK    3  A    between atoms: C_7  and  C_8
REMARK    4  A    between atoms: C_8  and  N_9
REMARK                            x       y       z     vdW  Elec       q    Type
REMARK                         _______ _______ _______ _____ _____    ______ ____
ROOT
ATOM      1  C   UNL     1      45.378   4.770  10.847  0.00  0.00    +0.000 A 
ATOM      2  C   UNL     1      46.078   5.867  11.353  0.00  0.00    +0.000 A 
ATOM      3  C   UNL     1      46.545   5.831  12.667  0.00  0.00    +0.000 A 
ATOM      4  C   UNL     1      46.276   4.709  13.452  0.00  0.00    +0.000 A 
ATOM      5  N   UNL     1      45.583   3.643  12.972  0.00  0.00    +0.000 NA
ATOM      6  C   UNL     1      45.145   3.696  11.691  0.00  0.00    +0.000 A 
ENDROOT
BRANCH   1   8
ATOM      7  O   UNL     1      45.548   4.715   8.488  0.00  0.00    +0.000 OA
ATOM      8  C   UNL     1      44.838   4.723   9.477  0.00  0.00    +0.000 C 
BRANCH   8   9
ATOM      9  O   UNL     1      43.490   4.722   9.425  0.00  0.00    +0.000 OA
ATOM     10  H   UNL     1      43.064   3.861   9.591  0.00  0.00    +0.000 HD
ENDBRANCH   8   9
ENDBRANCH   1   8
BRANCH   4  11
ATOM     11  C   UNL     1      46.732   4.658  14.899  0.00  0.00    +0.000 C 
BRANCH  11  12
ATOM     12  N   UNL     1      47.227   3.341  15.257  0.00  0.00    +0.000 N 
ATOM     13  C   UNL     1      48.294   3.205  16.127  0.00  0.00    +0.000 A 
ATOM     14  C   UNL     1      48.558   4.093  17.150  0.00  0.00    +0.000 A 
ATOM     15  C   UNL     1      49.629   3.804  17.967  0.00  0.00    +0.000 A 
ATOM     16  N   UNL     1      50.393   2.710  17.824  0.00  0.00    +0.000 NA
ATOM     17  C   UNL     1      50.042   1.901  16.817  0.00  0.00    +0.000 A 
ATOM     18  N   UNL     1      49.036   2.102  15.949  0.00  0.00    +0.000 NA
ATOM     19  H   UNL     1      47.302   2.655  14.514  0.00  0.00    +0.000 HD
ENDBRANCH  11  12
ENDBRANCH   4  11
TORSDOF 4
ENDMDL
MODEL 6
REMARK VINA RESULT:    -5.897      5.549      8.306
REMARK INTER + INTRA:          -7.509
REMARK INTER:                  -7.268
REMARK INTRA:                  -0.241
REMARK UNBOUND:                -0.405
REMARK  Name = 
REMARK  4 active torsions:
REMARK  status: ('A' for Active; 'I' for Inactive)
REMARK    1  A    between atoms: C_2  and  O_3
REMARK    2  A    between atoms: C_2  and  C_4
REMARK    3  A    between atoms: C_7  and  C_8
REMARK    4  A    between atoms: C_8  and  N_9
REMARK                            x       y       z     vdW  Elec       q    Type
REMARK                         _______ _______ _______ _____ _____    ______ ____
ROOT
ATOM      1  C   UNL     1      48.311   4.398  18.029  0.00  0.00    +0.000 A 
ATOM      2  C   UNL     1      48.704   5.529  17.311  0.00  0.00    +0.000 A 
ATOM      3  C   UNL     1      48.260   5.691  15.998  0.00  0.00    +0.000 A 
ATOM      4  C   UNL     1      47.456   4.705  15.427  0.00  0.00    +0.000 A 
ATOM      5  N   UNL     1      47.079   3.594  16.114  0.00  0.00    +0.000 NA
ATOM      6  C   UNL     1      47.516   3.459  17.390  0.00  0.00    +0.000 A 
ENDROOT
BRANCH   1   8
ATOM      7  O   UNL     1      49.468   4.890  20.034  0.00  0.00    +0.000 OA
ATOM      8  C   UNL     1      48.739   4.136  19.415  0.00  0.00    +0.000 C 
BRANCH   8   9
ATOM      9  O   UNL     1      48.273   2.972  19.915  0.00  0.00    +0.000 OA
ATOM     10  H   UNL     1      48.586   2.746  20.810  0.00  0.00    +0.000 HD
ENDBRANCH   8   9
ENDBRANCH   1   8
BRANCH   4  11
ATOM     11  C   UNL     1      46.993   4.832  13.987  0.00  0.00    +0.000 C 
BRANCH  11  12
ATOM     12  N   UNL     1      46.228   3.671  13.567  0.00  0.00    +0.000 N 
ATOM     13  C   UNL     1      45.261   3.785  12.585  0.00  0.00    +0.000 A 
ATOM     14  C   UNL     1      45.339   4.690  11.544  0.00  0.00    +0.000 A 
ATOM     15  C   UNL     1      44.325   4.658  10.613  0.00  0.00    +0.000 A 
ATOM     16  N   UNL     1      43.302   3.791  10.662  0.00  0.00    +0.000 NA
ATOM     17  C   UNL     1      43.330   2.941  11.696  0.00  0.00    +0.000 A 
ATOM     18  N   UNL     1      44.253   2.904  12.672  0.00  0.00    +0.000 NA
ATOM     19  H   UNL     1      45.905   3.040  14.293  0.00  0.00    +0.000 HD
ENDBRANCH  11  12
ENDBRANCH   4  11
TORSDOF 4
ENDMDL
MODEL 7
REMARK VINA RESULT:    -5.399      2.973      3.835
REMARK INTER + INTRA:          -6.909
REMARK INTER:                  -6.722
REMARK INTRA:                  -0.186
REMARK UNBOUND:                -0.405
REMARK  Name = 
REMARK  4 active torsions:
REMARK  status: ('A' for Active; 'I' for Inactive)
REMARK    1  A    between atoms: C_2  and  O_3
REMARK    2  A    between atoms: C_2  and  C_4
REMARK    3  A    between atoms: C_7  and  C_8
REMARK    4  A    between atoms: C_8  and  N_9
REMARK                            x       y       z     vdW  Elec       q    Type
REMARK                         _______ _______ _______ _____ _____    ______ ____
ROOT
ATOM      1  C   UNL     1      45.373   2.899   8.866  0.00  0.00    +0.000 A 
ATOM      2  C   UNL     1      44.509   2.438   9.862  0.00  0.00    +0.000 A 
ATOM      3  C   UNL     1      43.892   3.359  10.709  0.00  0.00    +0.000 A 
ATOM      4  C   UNL     1      44.176   4.717  10.557  0.00  0.00    +0.000 A 
ATOM      5  N   UNL     1      45.027   5.173   9.600  0.00  0.00    +0.000 NA
ATOM      6  C   UNL     1      45.610   4.262   8.784  0.00  0.00    +0.000 A 
ENDROOT
BRANCH   1   8
ATOM      7  O   UNL     1      46.574   2.389   6.892  0.00  0.00    +0.000 OA
ATOM      8  C   UNL     1      46.078   2.001   7.934  0.00  0.00    +0.000 C 
BRANCH   8   9
ATOM      9  O   UNL     1      46.090   0.711   8.330  0.00  0.00    +0.000 OA
ATOM     10  H   UNL     1      46.969   0.346   8.542  0.00  0.00    +0.000 HD
ENDBRANCH   8   9
ENDBRANCH   1   8
BRANCH   4  11
ATOM     11  C   UNL     1      43.555   5.740  11.491  0.00  0.00    +0.000 C 
BRANCH  11  12
ATOM     12  N   UNL     1      43.635   7.082  10.943  0.00  0.00    +0.000 N 
ATOM     13  C   UNL     1      44.546   7.993  11.448  0.00  0.00    +0.000 A 
ATOM     14  C   UNL     1      45.771   7.631  11.971  0.00  0.00    +0.000 A 
ATOM     15  C   UNL     1      46.594   8.651  12.395  0.00  0.00    +0.000 A 
ATOM     16  N   UNL     1      46.270   9.950  12.302  0.00  0.00    +0.000 NA
ATOM     17  C   UNL     1      45.071  10.197  11.760  0.00  0.00    +0.000 A 
ATOM     18  N   UNL     1      44.183   9.279  11.342  0.00  0.00    +0.000 NA
ATOM     19  H   UNL     1      42.761   7.552  10.735  0.00  0.00    +0.000 HD
ENDBRANCH  11  12
ENDBRANCH   4  11
TORSDOF 4
ENDMDL
MODEL 8
REMARK VINA RESULT:    -5.227      4.538      7.096
REMARK INTER + INTRA:          -6.701
REMARK INTER:                  -6.415
REMARK INTRA:                  -0.287
REMARK UNBOUND:                -0.405
REMARK  Name = 
REMARK  4 active torsions:
REMARK  status: ('A' for Active; 'I' for Inactive)
REMARK    1  A    between atoms: C_2  and  O_3
REMARK    2  A    between atoms: C_2  and  C_4
REMARK    3  A    between atoms: C_7  and  C_8
REMARK    4  A    between atoms: C_8  and  N_9
REMARK                            x       y       z     vdW  Elec       q    Type
REMARK                         _______ _______ _______ _____ _____    ______ ____
ROOT
ATOM      1  C   UNL     1      47.819   8.398  13.432  0.00  0.00    +0.000 A 
ATOM      2  C   UNL     1      48.221   7.107  13.082  0.00  0.00    +0.000 A 
ATOM      3  C   UNL     1      47.305   6.249  12.473  0.00  0.00    +0.000 A 
ATOM      4  C   UNL     1      46.001   6.694  12.256  0.00  0.00    +0.000 A 
ATOM      5  N   UNL     1      45.596   7.943  12.606  0.00  0.00    +0.000 NA
ATOM      6  C   UNL     1      46.504   8.763  13.190  0.00  0.00    +0.000 A 
ENDROOT
BRANCH   1   8
ATOM      7  O   UNL     1      49.857   9.565  13.722  0.00  0.00    +0.000 OA
ATOM      8  C   UNL     1      48.712   9.369  14.088  0.00  0.00    +0.000 C 
BRANCH   8   9
ATOM      9  O   UNL     1      48.152   9.991  15.147  0.00  0.00    +0.000 OA
ATOM     10  H   UNL     1      47.694  10.828  14.947  0.00  0.00    +0.000 HD
ENDBRANCH   8   9
ENDBRANCH   1   8
BRANCH   4  11
ATOM     11  C   UNL     1      44.969   5.769  11.635  0.00  0.00    +0.000 C 
BRANCH  11  12
ATOM     12  N   UNL     1      45.049   5.773  10.186  0.00  0.00    +0.000 N 
ATOM     13  C   UNL     1      45.319   4.607   9.494  0.00  0.00    +0.000 A 
ATOM     14  C   UNL     1      44.931   3.356   9.932  0.00  0.00    +0.000 A 
ATOM     15  C   UNL     1      45.229   2.288   9.115  0.00  0.00    +0.000 A 
ATOM     16  N   UNL     1      45.846   2.414   7.929  0.00  0.00    +0.000 NA
ATOM     17  C   UNL     1      46.161   3.668   7.585  0.00  0.00    +0.000 A 
ATOM     18  N   UNL     1      45.941   4.773   8.317  0.00  0.00    +0.000 NA
ATOM     19  H   UNL     1      45.535   6.550   9.750  0.00  0.00    +0.000 HD
ENDBRANCH  11  12
ENDBRANCH   4  11
TORSDOF 4
ENDMDL
MODEL 9
REMARK VINA RESULT:    -5.151      2.152      3.290
REMARK INTER + INTRA:          -6.610
REMARK INTER:                  -6.287
REMARK INTRA:                  -0.323
REMARK UNBOUND:                -0.405
REMARK  Name = 
REMARK  4 active torsions:
REMARK  status: ('A' for Active; 'I' for Inactive)
REMARK    1  A    between atoms: C_2  and  O_3
REMARK    2  A    between atoms: C_2  and  C_4
REMARK    3  A    between atoms: C_7  and  C_8
REMARK    4  A    between atoms: C_8  and  N_9
REMARK                            x       y       z     vdW  Elec       q    Type
REMARK                         _______ _______ _______ _____ _____    ______ ____
ROOT
ATOM      1  C   UNL     1      45.393   3.513   9.251  0.00  0.00    +0.000 A 
ATOM      2  C   UNL     1      44.912   2.890  10.405  0.00  0.00    +0.000 A 
ATOM      3  C   UNL     1      44.652   3.662  11.538  0.00  0.00    +0.000 A 
ATOM      4  C   UNL     1      44.906   5.033  11.497  0.00  0.00    +0.000 A 
ATOM      5  N   UNL     1      45.386   5.646  10.383  0.00  0.00    +0.000 NA
ATOM      6  C   UNL     1      45.625   4.878   9.292  0.00  0.00    +0.000 A 
ENDROOT
BRANCH   1   8
ATOM      7  O   UNL     1      46.004   1.598   8.002  0.00  0.00    +0.000 OA
ATOM      8  C   UNL     1      45.706   2.779   8.012  0.00  0.00    +0.000 C 
BRANCH   8   9
ATOM      9  O   UNL     1      45.663   3.545   6.902  0.00  0.00    +0.000 OA
ATOM     10  H   UNL     1      46.125   4.402   6.966  0.00  0.00    +0.000 HD
ENDBRANCH   8   9
ENDBRANCH   1   8
BRANCH   4  11
ATOM     11  C   UNL     1      44.674   5.893  12.727  0.00  0.00    +0.000 C 
BRANCH  11  12
ATOM     12  N   UNL     1      45.824   5.878  13.614  0.00  0.00    +0.000 N 
ATOM     13  C   UNL     1      46.919   6.683  13.357  0.00  0.00    +0.000 A 
ATOM     14  C   UNL     1      46.829   7.913  12.736  0.00  0.00    +0.000 A 
ATOM     15  C   UNL     1      47.998   8.624  12.588  0.00  0.00    +0.000 A 
ATOM     16  N   UNL     1      49.189   8.191  13.032  0.00  0.00    +0.000 NA
ATOM     17  C   UNL     1      49.166   6.999  13.640  0.00  0.00    +0.000 A 
ATOM     18  N   UNL     1      48.090   6.213  13.812  0.00  0.00    +0.000 NA
ATOM     19  H   UNL     1      46.135   4.975  13.956  0.00  0.00    +0.000 HD
ENDBRANCH  11  12
ENDBRANCH   4  11
TORSDOF 4
ENDMDL
