MODEL 1
REMARK VINA RESULT:    -7.624      0.000      0.000
REMARK INTER + INTRA:         -11.445
REMARK INTER:                 -10.298
REMARK INTRA:                  -1.146
REMARK UNBOUND:                -1.146
REMARK  Name = 
REMARK  9 active torsions:
REMARK  status: ('A' for Active; 'I' for Inactive)
REMARK    1  A    between atoms: C_1  and  C_2
REMARK    2  A    between atoms: C_2  and  N_3
REMARK    3  A    between atoms: C_2  and  C_17
REMARK    4  A    between atoms: C_4  and  C_6
REMARK    5  A    between atoms: N_12  and  C_13
REMARK    6  A    between atoms: C_20  and  C_21
REMARK    7  A    between atoms: C_21  and  N_22
REMARK    8  A    between atoms: C_23  and  C_25
REMARK    9  A    between atoms: N_29  and  C_30
REMARK                            x       y       z     vdW  Elec       q    Type
REMARK                         _______ _______ _______ _____ _____    ______ ____
ROOT
ATOM      1  C   UNL     1      47.040   9.232  13.194  0.00  0.00    +0.000 C 
ATOM      2  C   UNL     1      47.626   7.847  13.476  0.00  0.00    +0.000 C 
ENDROOT
BRANCH   2   3
ATOM      3  C   UNL     1      46.717   6.738  12.969  0.00  0.00    +0.000 A 
ATOM      4  C   UNL     1      45.795   7.007  11.948  0.00  0.00    +0.000 A 
ATOM      5  C   UNL     1      44.996   5.989  11.421  0.00  0.00    +0.000 A 
ATOM      6  C   UNL     1      45.092   4.678  11.904  0.00  0.00    +0.000 A 
ATOM      7  C   UNL     1      46.008   4.405  12.929  0.00  0.00    +0.000 A 
ATOM      8  C   UNL     1      46.803   5.425  13.460  0.00  0.00    +0.000 A 
BRANCH   6   9
ATOM      9  C   UNL     1      44.251   3.576  11.315  0.00  0.00    +0.000 C 
BRANCH   9  10
ATOM     10  N   UNL     1      45.016   2.743  10.417  0.00  0.00    +0.000 N 
ATOM     11  C   UNL     1      45.071   3.015   9.067  0.00  0.00    +0.000 C 
ATOM     12  O   UNL     1      44.463   3.966   8.582  0.00  0.00    +0.000 OA
ATOM     13  H   UNL     1      45.575   2.004  10.814  0.00  0.00    +0.000 HD
BRANCH  11  14
ATOM     14  C   UNL     1      45.882   2.111   8.281  0.00  0.00    +0.000 A 
ATOM     15  C   UNL     1      45.945   0.729   8.258  0.00  0.00    +0.000 A 
ATOM     16  N   UNL     1      46.847   0.271   7.335  0.00  0.00    +0.000 NA
ATOM     17  C   UNL     1      47.347   1.351   6.783  0.00  0.00    +0.000 A 
ATOM     18  N   UNL     1      46.810   2.482   7.326  0.00  0.00    +0.000 N 
ATOM     19  C   UNL     1      47.176   3.827   6.946  0.00  0.00    +0.000 C 
ENDBRANCH  11  14
ENDBRANCH   9  10
ENDBRANCH   6   9
ENDBRANCH   2   3
BRANCH   2  20
ATOM     20  N   UNL     1      47.864   7.649  14.892  0.00  0.00    +0.000 N 
ATOM     21  C   UNL     1      49.052   7.904  15.517  0.00  0.00    +0.000 C 
ATOM     22  O   UNL     1      50.073   8.215  14.912  0.00  0.00    +0.000 OA
ATOM     23  H   UNL     1      47.036   7.539  15.463  0.00  0.00    +0.000 HD
BRANCH  21  24
ATOM     24  C   UNL     1      49.044   7.721  16.976  0.00  0.00    +0.000 A 
ATOM     25  C   UNL     1      49.182   8.808  17.825  0.00  0.00    +0.000 A 
ATOM     26  S   UNL     1      49.171   8.383  19.478  0.00  0.00    +0.000 S 
ATOM     27  C   UNL     1      48.944   6.737  19.114  0.00  0.00    +0.000 A 
ATOM     28  N   UNL     1      48.830   5.809  20.099  0.00  0.00    +0.000 NA
ATOM     29  C   UNL     1      48.638   4.600  19.679  0.00  0.00    +0.000 A 
ATOM     30  N   UNL     1      48.550   4.216  18.356  0.00  0.00    +0.000 N 
ATOM     31  C   UNL     1      48.346   2.831  17.995  0.00  0.00    +0.000 C 
ATOM     32  C   UNL     1      48.690   5.136  17.322  0.00  0.00    +0.000 A 
ATOM     33  O   UNL     1      48.681   4.808  16.138  0.00  0.00    +0.000 OA
ATOM     34  C   UNL     1      48.894   6.510  17.752  0.00  0.00    +0.000 A 
ENDBRANCH  21  24
ENDBRANCH   2  20
TORSDOF 6
ENDMDL
MODEL 2
REMARK VINA RESULT:    -7.384      1.491      2.331
REMARK INTER + INTRA:         -11.121
REMARK INTER:                 -10.235
REMARK INTRA:                  -0.886
REMARK UNBOUND:                -1.146
REMARK  Name = 
REMARK  9 active torsions:
REMARK  status: ('A' for Active; 'I' for Inactive)
REMARK    1  A    between atoms: C_1  and  C_2
REMARK    2  A    between atoms: C_2  and  N_3
REMARK    3  A    between atoms: C_2  and  C_17
REMARK    4  A    between atoms: C_4  and  C_6
REMARK    5  A    between atoms: N_12  and  C_13
REMARK    6  A    between atoms: C_20  and  C_21
REMARK    7  A    between atoms: C_21  and  N_22
REMARK    8  A    between atoms: C_23  and  C_25
REMARK    9  A    between atoms: N_29  and  C_30
REMARK                            x       y       z     vdW  Elec       q    Type
REMARK                         _______ _______ _______ _____ _____    ______ ____
ROOT
ATOM      1  C   UNL     1      47.499   8.885  13.752  0.00  0.00    +0.000 C 
ATOM      2  C   UNL     1      47.819   7.390  13.791  0.00  0.00    +0.000 C 
ENDROOT
BRANCH   2   3
ATOM      3  C   UNL     1      46.794   6.574  13.019  0.00  0.00    +0.000 A 
ATOM      4  C   UNL     1      46.038   7.185  12.008  0.00  0.00    +0.000 A 
ATOM      5  C   UNL     1      45.138   6.441  11.242  0.00  0.00    +0.000 A 
ATOM      6  C   UNL     1      44.964   5.069  11.468  0.00  0.00    +0.000 A 
ATOM      7  C   UNL     1      45.713   4.456  12.481  0.00  0.00    +0.000 A 
ATOM      8  C   UNL     1      46.610   5.202  13.252  0.00  0.00    +0.000 A 
BRANCH   6   9
ATOM      9  C   UNL     1      44.015   4.263  10.621  0.00  0.00    +0.000 C 
BRANCH   9  10
ATOM     10  N   UNL     1      44.700   3.211   9.906  0.00  0.00    +0.000 N 
ATOM     11  C   UNL     1      45.305   3.453   8.693  0.00  0.00    +0.000 C 
ATOM     12  O   UNL     1      45.272   4.566   8.173  0.00  0.00    +0.000 OA
ATOM     13  H   UNL     1      44.794   2.314  10.357  0.00  0.00    +0.000 HD
BRANCH  11  14
ATOM     14  C   UNL     1      45.966   2.317   8.088  0.00  0.00    +0.000 A 
ATOM     15  C   UNL     1      45.992   0.980   8.446  0.00  0.00    +0.000 A 
ATOM     16  N   UNL     1      46.734   0.229   7.572  0.00  0.00    +0.000 NA
ATOM     17  C   UNL     1      47.169   1.082   6.676  0.00  0.00    +0.000 A 
ATOM     18  N   UNL     1      46.748   2.351   6.948  0.00  0.00    +0.000 N 
ATOM     19  C   UNL     1      47.083   3.513   6.158  0.00  0.00    +0.000 C 
ENDBRANCH  11  14
ENDBRANCH   9  10
ENDBRANCH   6   9
ENDBRANCH   2   3
BRANCH   2  20
ATOM     20  N   UNL     1      47.884   6.895  15.152  0.00  0.00    +0.000 N 
ATOM     21  C   UNL     1      49.045   6.613  15.816  0.00  0.00    +0.000 C 
ATOM     22  O   UNL     1      50.147   6.638  15.276  0.00  0.00    +0.000 OA
ATOM     23  H   UNL     1      47.035   6.994  15.694  0.00  0.00    +0.000 HD
BRANCH  21  24
ATOM     24  C   UNL     1      48.882   6.211  17.220  0.00  0.00    +0.000 A 
ATOM     25  C   UNL     1      49.250   4.942  17.639  0.00  0.00    +0.000 A 
ATOM     26  S   UNL     1      48.960   4.664  19.298  0.00  0.00    +0.000 S 
ATOM     27  C   UNL     1      48.369   6.243  19.519  0.00  0.00    +0.000 A 
ATOM     28  N   UNL     1      47.957   6.675  20.739  0.00  0.00    +0.000 NA
ATOM     29  C   UNL     1      47.553   7.904  20.767  0.00  0.00    +0.000 A 
ATOM     30  N   UNL     1      47.513   8.758  19.684  0.00  0.00    +0.000 N 
ATOM     31  C   UNL     1      47.030  10.114  19.823  0.00  0.00    +0.000 C 
ATOM     32  C   UNL     1      47.900   8.341  18.415  0.00  0.00    +0.000 A 
ATOM     33  O   UNL     1      47.811   9.063  17.425  0.00  0.00    +0.000 OA
ATOM     34  C   UNL     1      48.375   6.969  18.343  0.00  0.00    +0.000 A 
ENDBRANCH  21  24
ENDBRANCH   2  20
TORSDOF 6
ENDMDL
MODEL 3
REMARK VINA RESULT:    -7.181      3.116      9.017
REMARK INTER + INTRA:         -10.847
REMARK INTER:                  -9.708
REMARK INTRA:                  -1.139
REMARK UNBOUND:                -1.146
REMARK  Name = 
REMARK  9 active torsions:
REMARK  status: ('A' for Active; 'I' for Inactive)
REMARK    1  A    between atoms: C_1  and  C_2
REMARK    2  A    between atoms: C_2  and  N_3
REMARK    3  A    between atoms: C_2  and  C_17
REMARK    4  A    between atoms: C_4  and  C_6
REMARK    5  A    between atoms: N_12  and  C_13
REMARK    6  A    between atoms: C_20  and  C_21
REMARK    7  A    between atoms: C_21  and  N_22
REMARK    8  A    between atoms: C_23  and  C_25
REMARK    9  A    between atoms: N_29  and  C_30
REMARK                            x       y       z     vdW  Elec       q    Type
REMARK                         _______ _______ _______ _____ _____    ______ ____
ROOT
ATOM      1  C   UNL     1      48.392   7.977  11.387  0.00  0.00    +0.000 C 
ATOM      2  C   UNL     1      47.474   7.678  12.573  0.00  0.00    +0.000 C 
ENDROOT
BRANCH   2   3
ATOM      3  C   UNL     1      48.261   7.487  13.861  0.00  0.00    +0.000 A 
ATOM      4  C   UNL     1      47.977   6.396  14.693  0.00  0.00    +0.000 A 
ATOM      5  C   UNL     1      48.731   6.165  15.847  0.00  0.00    +0.000 A 
ATOM      6  C   UNL     1      49.782   7.019  16.202  0.00  0.00    +0.000 A 
ATOM      7  C   UNL     1      50.066   8.114  15.376  0.00  0.00    +0.000 A 
ATOM      8  C   UNL     1      49.308   8.350  14.224  0.00  0.00    +0.000 A 
BRANCH   6   9
ATOM      9  C   UNL     1      50.613   6.751  17.430  0.00  0.00    +0.000 C 
BRANCH   9  10
ATOM     10  N   UNL     1      51.235   5.448  17.380  0.00  0.00    +0.000 N 
ATOM     11  C   UNL     1      50.962   4.492  18.333  0.00  0.00    +0.000 C 
ATOM     12  O   UNL     1      50.191   4.719  19.263  0.00  0.00    +0.000 OA
ATOM     13  H   UNL     1      51.812   5.228  16.583  0.00  0.00    +0.000 HD
BRANCH  11  14
ATOM     14  C   UNL     1      51.642   3.227  18.160  0.00  0.00    +0.000 A 
ATOM     15  C   UNL     1      52.885   2.795  18.586  0.00  0.00    +0.000 A 
ATOM     16  N   UNL     1      53.132   1.498  18.219  0.00  0.00    +0.000 NA
ATOM     17  C   UNL     1      52.058   1.119  17.569  0.00  0.00    +0.000 A 
ATOM     18  N   UNL     1      51.139   2.125  17.494  0.00  0.00    +0.000 N 
ATOM     19  C   UNL     1      49.865   2.023  16.820  0.00  0.00    +0.000 C 
ENDBRANCH  11  14
ENDBRANCH   9  10
ENDBRANCH   6   9
ENDBRANCH   2   3
BRANCH   2  20
ATOM     20  N   UNL     1      46.668   6.496  12.336  0.00  0.00    +0.000 N 
ATOM     21  C   UNL     1      45.438   6.508  11.741  0.00  0.00    +0.000 C 
ATOM     22  O   UNL     1      44.843   7.543  11.457  0.00  0.00    +0.000 OA
ATOM     23  H   UNL     1      47.156   5.613  12.410  0.00  0.00    +0.000 HD
BRANCH  21  24
ATOM     24  C   UNL     1      44.838   5.185  11.516  0.00  0.00    +0.000 A 
ATOM     25  C   UNL     1      44.041   4.597  12.487  0.00  0.00    +0.000 A 
ATOM     26  S   UNL     1      43.460   3.054  12.045  0.00  0.00    +0.000 S 
ATOM     27  C   UNL     1      44.224   3.138  10.527  0.00  0.00    +0.000 A 
ATOM     28  N   UNL     1      44.111   2.126   9.628  0.00  0.00    +0.000 NA
ATOM     29  C   UNL     1      44.723   2.332   8.507  0.00  0.00    +0.000 A 
ATOM     30  N   UNL     1      45.451   3.460   8.188  0.00  0.00    +0.000 N 
ATOM     31  C   UNL     1      46.110   3.584   6.906  0.00  0.00    +0.000 C 
ATOM     32  C   UNL     1      45.611   4.502   9.095  0.00  0.00    +0.000 A 
ATOM     33  O   UNL     1      46.308   5.485   8.858  0.00  0.00    +0.000 OA
ATOM     34  C   UNL     1      44.926   4.316  10.364  0.00  0.00    +0.000 A 
ENDBRANCH  21  24
ENDBRANCH   2  20
TORSDOF 6
ENDMDL
MODEL 4
REMARK VINA RESULT:    -7.049      4.759      9.460
REMARK INTER + INTRA:         -10.668
REMARK INTER:                 -10.196
REMARK INTRA:                  -0.472
REMARK UNBOUND:                -1.146
REMARK  Name = 
REMARK  9 active torsions:
REMARK  status: ('A' for Active; 'I' for Inactive)
REMARK    1  A    between atoms: C_1  and  C_2
REMARK    2  A    between atoms: C_2  and  N_3
REMARK    3  A    between atoms: C_2  and  C_17
REMARK    4  A    between atoms: C_4  and  C_6
REMARK    5  A    between atoms: N_12  and  C_13
REMARK    6  A    between atoms: C_20  and  C_21
REMARK    7  A    between atoms: C_21  and  N_22
REMARK    8  A    between atoms: C_23  and  C_25
REMARK    9  A    between atoms: N_29  and  C_30
REMARK                            x       y       z     vdW  Elec       q    Type
REMARK                         _______ _______ _______ _____ _____    ______ ____
ROOT
ATOM      1  C   UNL     1      47.137   4.946  18.502  0.00  0.00    +0.000 C 
ATOM      2  C   UNL     1      47.612   4.137  17.293  0.00  0.00    +0.000 C 
ENDROOT
BRANCH   2   3
ATOM      3  C   UNL     1      49.085   3.772  17.404  0.00  0.00    +0.000 A 
ATOM      4  C   UNL     1      50.029   4.769  17.685  0.00  0.00    +0.000 A 
ATOM      5  C   UNL     1      51.377   4.446  17.857  0.00  0.00    +0.000 A 
ATOM      6  C   UNL     1      51.819   3.121  17.747  0.00  0.00    +0.000 A 
ATOM      7  C   UNL     1      50.880   2.122  17.460  0.00  0.00    +0.000 A 
ATOM      8  C   UNL     1      49.531   2.446  17.282  0.00  0.00    +0.000 A 
BRANCH   6   9
ATOM      9  C   UNL     1      53.268   2.772  17.961  0.00  0.00    +0.000 C 
BRANCH   9  10
ATOM     10  N   UNL     1      53.514   1.363  17.754  0.00  0.00    +0.000 N 
ATOM     11  C   UNL     1      54.256   0.631  18.653  0.00  0.00    +0.000 C 
ATOM     12  O   UNL     1      54.743   1.151  19.654  0.00  0.00    +0.000 OA
ATOM     13  H   UNL     1      53.060   0.912  16.975  0.00  0.00    +0.000 HD
BRANCH  11  14
ATOM     14  C   UNL     1      54.418  -0.771  18.333  0.00  0.00    +0.000 A 
ATOM     15  C   UNL     1      53.976  -1.911  18.981  0.00  0.00    +0.000 A 
ATOM     16  N   UNL     1      54.337  -3.053  18.315  0.00  0.00    +0.000 NA
ATOM     17  C   UNL     1      54.998  -2.637  17.262  0.00  0.00    +0.000 A 
ATOM     18  N   UNL     1      55.087  -1.276  17.233  0.00  0.00    +0.000 N 
ATOM     19  C   UNL     1      55.775  -0.520  16.212  0.00  0.00    +0.000 C 
ENDBRANCH  11  14
ENDBRANCH   9  10
ENDBRANCH   6   9
ENDBRANCH   2   3
BRANCH   2  20
ATOM     20  N   UNL     1      47.400   4.860  16.054  0.00  0.00    +0.000 N 
ATOM     21  C   UNL     1      47.325   4.272  14.822  0.00  0.00    +0.000 C 
ATOM     22  O   UNL     1      47.551   3.081  14.635  0.00  0.00    +0.000 OA
ATOM     23  H   UNL     1      47.063   5.808  16.154  0.00  0.00    +0.000 HD
BRANCH  21  24
ATOM     24  C   UNL     1      47.012   5.184  13.712  0.00  0.00    +0.000 A 
ATOM     25  C   UNL     1      47.589   6.444  13.650  0.00  0.00    +0.000 A 
ATOM     26  S   UNL     1      47.080   7.355  12.299  0.00  0.00    +0.000 S 
ATOM     27  C   UNL     1      46.103   6.083  11.734  0.00  0.00    +0.000 A 
ATOM     28  N   UNL     1      45.390   6.202  10.585  0.00  0.00    +0.000 NA
ATOM     29  C   UNL     1      44.709   5.150  10.263  0.00  0.00    +0.000 A 
ATOM     30  N   UNL     1      44.663   3.975  10.983  0.00  0.00    +0.000 N 
ATOM     31  C   UNL     1      43.857   2.859  10.538  0.00  0.00    +0.000 C 
ATOM     32  C   UNL     1      45.358   3.828  12.179  0.00  0.00    +0.000 A 
ATOM     33  O   UNL     1      45.280   2.816  12.870  0.00  0.00    +0.000 OA
ATOM     34  C   UNL     1      46.149   4.984  12.570  0.00  0.00    +0.000 A 
ENDBRANCH  21  24
ENDBRANCH   2  20
TORSDOF 6
ENDMDL
MODEL 5
REMARK VINA RESULT:    -6.322      1.970      3.094
REMARK INTER + INTRA:          -9.686
REMARK INTER:                  -8.440
REMARK INTRA:                  -1.246
REMARK UNBOUND:                -1.146
REMARK  Name = 
REMARK  9 active torsions:
REMARK  status: ('A' for Active; 'I' for Inactive)
REMARK    1  A    between atoms: C_1  and  C_2
REMARK    2  A    between atoms: C_2  and  N_3
REMARK    3  A    between atoms: C_2  and  C_17
REMARK    4  A    between atoms: C_4  and  C_6
REMARK    5  A    between atoms: N_12  and  C_13
REMARK    6  A    between atoms: C_20  and  C_21
REMARK    7  A    between atoms: C_21  and  N_22
REMARK    8  A    between atoms: C_23  and  C_25
REMARK    9  A    between atoms: N_29  and  C_30
REMARK                            x       y       z     vdW  Elec       q    Type
REMARK                         _______ _______ _______ _____ _____    ______ ____
ROOT
ATOM      1  C   UNL     1      50.256  10.210  14.903  0.00  0.00    +0.000 C 
ATOM      2  C   UNL     1      50.018   8.704  14.790  0.00  0.00    +0.000 C 
ENDROOT
BRANCH   2   3
ATOM      3  C   UNL     1      48.751   8.391  14.008  0.00  0.00    +0.000 A 
ATOM      4  C   UNL     1      48.332   7.061  13.868  0.00  0.00    +0.000 A 
ATOM      5  C   UNL     1      47.137   6.755  13.211  0.00  0.00    +0.000 A 
ATOM      6  C   UNL     1      46.334   7.768  12.672  0.00  0.00    +0.000 A 
ATOM      7  C   UNL     1      46.751   9.099  12.806  0.00  0.00    +0.000 A 
ATOM      8  C   UNL     1      47.950   9.405  13.458  0.00  0.00    +0.000 A 
BRANCH   6   9
ATOM      9  C   UNL     1      45.031   7.439  11.991  0.00  0.00    +0.000 C 
BRANCH   9  10
ATOM     10  N   UNL     1      45.122   6.214  11.230  0.00  0.00    +0.000 N 
ATOM     11  C   UNL     1      43.989   5.542  10.827  0.00  0.00    +0.000 C 
ATOM     12  O   UNL     1      42.867   5.953  11.111  0.00  0.00    +0.000 OA
ATOM     13  H   UNL     1      46.034   5.907  10.931  0.00  0.00    +0.000 HD
BRANCH  11  14
ATOM     14  C   UNL     1      44.219   4.335  10.062  0.00  0.00    +0.000 A 
ATOM     15  C   UNL     1      44.718   4.146   8.786  0.00  0.00    +0.000 A 
ATOM     16  N   UNL     1      44.791   2.819   8.454  0.00  0.00    +0.000 NA
ATOM     17  C   UNL     1      44.343   2.180   9.508  0.00  0.00    +0.000 A 
ATOM     18  N   UNL     1      43.973   3.045  10.496  0.00  0.00    +0.000 N 
ATOM     19  C   UNL     1      43.418   2.648  11.770  0.00  0.00    +0.000 C 
ENDBRANCH  11  14
ENDBRANCH   9  10
ENDBRANCH   6   9
ENDBRANCH   2   3
BRANCH   2  20
ATOM     20  N   UNL     1      49.930   8.080  16.096  0.00  0.00    +0.000 N 
ATOM     21  C   UNL     1      51.007   7.651  16.820  0.00  0.00    +0.000 C 
ATOM     22  O   UNL     1      52.151   7.645  16.376  0.00  0.00    +0.000 OA
ATOM     23  H   UNL     1      49.045   8.190  16.574  0.00  0.00    +0.000 HD
BRANCH  21  24
ATOM     24  C   UNL     1      50.695   7.133  18.159  0.00  0.00    +0.000 A 
ATOM     25  C   UNL     1      51.161   7.782  19.293  0.00  0.00    +0.000 A 
ATOM     26  S   UNL     1      50.710   7.011  20.748  0.00  0.00    +0.000 S 
ATOM     27  C   UNL     1      49.848   5.807  19.912  0.00  0.00    +0.000 A 
ATOM     28  N   UNL     1      49.191   4.823  20.578  0.00  0.00    +0.000 NA
ATOM     29  C   UNL     1      48.558   3.989  19.818  0.00  0.00    +0.000 A 
ATOM     30  N   UNL     1      48.517   4.034  18.440  0.00  0.00    +0.000 N 
ATOM     31  C   UNL     1      47.787   3.040  17.684  0.00  0.00    +0.000 C 
ATOM     32  C   UNL     1      49.201   5.010  17.724  0.00  0.00    +0.000 A 
ATOM     33  O   UNL     1      49.233   5.032  16.497  0.00  0.00    +0.000 OA
ATOM     34  C   UNL     1      49.914   5.978  18.543  0.00  0.00    +0.000 A 
ENDBRANCH  21  24
ENDBRANCH   2  20
TORSDOF 6
ENDMDL
MODEL 6
REMARK VINA RESULT:    -6.253      3.345      9.636
REMARK INTER + INTRA:          -9.592
REMARK INTER:                  -8.516
REMARK INTRA:                  -1.076
REMARK UNBOUND:                -1.146
REMARK  Name = 
REMARK  9 active torsions:
REMARK  status: ('A' for Active; 'I' for Inactive)
REMARK    1  A    between atoms: C_1  and  C_2
REMARK    2  A    between atoms: C_2  and  N_3
REMARK    3  A    between atoms: C_2  and  C_17
REMARK    4  A    between atoms: C_4  and  C_6
REMARK    5  A    between atoms: N_12  and  C_13
REMARK    6  A    between atoms: C_20  and  C_21
REMARK    7  A    between atoms: C_21  and  N_22
REMARK    8  A    between atoms: C_23  and  C_25
REMARK    9  A    between atoms: N_29  and  C_30
REMARK                            x       y       z     vdW  Elec       q    Type
REMARK                         _______ _______ _______ _____ _____    ______ ____
ROOT
ATOM      1  C   UNL     1      48.714   7.676  11.362  0.00  0.00    +0.000 C 
ATOM      2  C   UNL     1      47.513   7.627  12.308  0.00  0.00    +0.000 C 
ENDROOT
BRANCH   2   3
ATOM      3  C   UNL     1      47.943   7.680  13.766  0.00  0.00    +0.000 A 
ATOM      4  C   UNL     1      48.229   6.490  14.449  0.00  0.00    +0.000 A 
ATOM      5  C   UNL     1      48.689   6.518  15.768  0.00  0.00    +0.000 A 
ATOM      6  C   UNL     1      48.867   7.733  16.442  0.00  0.00    +0.000 A 
ATOM      7  C   UNL     1      48.576   8.925  15.765  0.00  0.00    +0.000 A 
ATOM      8  C   UNL     1      48.111   8.897  14.446  0.00  0.00    +0.000 A 
BRANCH   6   9
ATOM      9  C   UNL     1      49.390   7.763  17.854  0.00  0.00    +0.000 C 
BRANCH   9  10
ATOM     10  N   UNL     1      50.747   7.271  17.931  0.00  0.00    +0.000 N 
ATOM     11  C   UNL     1      51.023   6.023  18.445  0.00  0.00    +0.000 C 
ATOM     12  O   UNL     1      50.128   5.293  18.865  0.00  0.00    +0.000 OA
ATOM     13  H   UNL     1      51.479   7.832  17.524  0.00  0.00    +0.000 HD
BRANCH  11  14
ATOM     14  C   UNL     1      52.420   5.648  18.455  0.00  0.00    +0.000 A 
ATOM     15  C   UNL     1      53.317   5.447  17.421  0.00  0.00    +0.000 A 
ATOM     16  N   UNL     1      54.565   5.118  17.880  0.00  0.00    +0.000 NA
ATOM     17  C   UNL     1      54.455   5.111  19.187  0.00  0.00    +0.000 A 
ATOM     18  N   UNL     1      53.184   5.409  19.583  0.00  0.00    +0.000 N 
ATOM     19  C   UNL     1      52.742   5.456  20.957  0.00  0.00    +0.000 C 
ENDBRANCH  11  14
ENDBRANCH   9  10
ENDBRANCH   6   9
ENDBRANCH   2   3
BRANCH   2  20
ATOM     20  N   UNL     1      46.718   6.433  12.095  0.00  0.00    +0.000 N 
ATOM     21  C   UNL     1      45.402   6.439  11.727  0.00  0.00    +0.000 C 
ATOM     22  O   UNL     1      44.732   7.464  11.658  0.00  0.00    +0.000 OA
ATOM     23  H   UNL     1      47.241   5.573  11.992  0.00  0.00    +0.000 HD
BRANCH  21  24
ATOM     24  C   UNL     1      44.816   5.114  11.476  0.00  0.00    +0.000 A 
ATOM     25  C   UNL     1      44.006   4.509  12.426  0.00  0.00    +0.000 A 
ATOM     26  S   UNL     1      43.446   2.967  11.955  0.00  0.00    +0.000 S 
ATOM     27  C   UNL     1      44.236   3.074  10.453  0.00  0.00    +0.000 A 
ATOM     28  N   UNL     1      44.147   2.072   9.540  0.00  0.00    +0.000 NA
ATOM     29  C   UNL     1      44.779   2.296   8.433  0.00  0.00    +0.000 A 
ATOM     30  N   UNL     1      45.504   3.432   8.140  0.00  0.00    +0.000 N 
ATOM     31  C   UNL     1      46.185   3.576   6.872  0.00  0.00    +0.000 C 
ATOM     32  C   UNL     1      45.639   4.465   9.062  0.00  0.00    +0.000 A 
ATOM     33  O   UNL     1      46.333   5.456   8.850  0.00  0.00    +0.000 OA
ATOM     34  C   UNL     1      44.932   4.259  10.316  0.00  0.00    +0.000 A 
ENDBRANCH  21  24
ENDBRANCH   2  20
TORSDOF 6
ENDMDL
MODEL 7
REMARK VINA RESULT:    -5.324      3.634      6.847
REMARK INTER + INTRA:          -8.337
REMARK INTER:                  -7.398
REMARK INTRA:                  -0.940
REMARK UNBOUND:                -1.146
REMARK  Name = 
REMARK  9 active torsions:
REMARK  status: ('A' for Active; 'I' for Inactive)
REMARK    1  A    between atoms: C_1  and  C_2
REMARK    2  A    between atoms: C_2  and  N_3
REMARK    3  A    between atoms: C_2  and  C_17
REMARK    4  A    between atoms: C_4  and  C_6
REMARK    5  A    between atoms: N_12  and  C_13
REMARK    6  A    between atoms: C_20  and  C_21
REMARK    7  A    between atoms: C_21  and  N_22
REMARK    8  A    between atoms: C_23  and  C_25
REMARK    9  A    between atoms: N_29  and  C_30
REMARK                            x       y       z     vdW  Elec       q    Type
REMARK                         _______ _______ _______ _____ _____    ______ ____
ROOT
ATOM      1  C   UNL     1      45.720   4.302  12.389  0.00  0.00    +0.000 C 
ATOM      2  C   UNL     1      45.637   5.487  13.353  0.00  0.00    +0.000 C 
ENDROOT
BRANCH   2   3
ATOM      3  C   UNL     1      46.306   6.727  12.781  0.00  0.00    +0.000 A 
ATOM      4  C   UNL     1      45.653   7.965  12.856  0.00  0.00    +0.000 A 
ATOM      5  C   UNL     1      46.276   9.129  12.397  0.00  0.00    +0.000 A 
ATOM      6  C   UNL     1      47.562   9.085  11.844  0.00  0.00    +0.000 A 
ATOM      7  C   UNL     1      48.216   7.849  11.761  0.00  0.00    +0.000 A 
ATOM      8  C   UNL     1      47.590   6.683  12.216  0.00  0.00    +0.000 A 
BRANCH   6   9
ATOM      9  C   UNL     1      48.243  10.345  11.376  0.00  0.00    +0.000 C 
BRANCH   9  10
ATOM     10  N   UNL     1      49.680  10.253  11.501  0.00  0.00    +0.000 N 
ATOM     11  C   UNL     1      50.330  10.744  12.612  0.00  0.00    +0.000 C 
ATOM     12  O   UNL     1      49.713  11.286  13.526  0.00  0.00    +0.000 OA
ATOM     13  H   UNL     1      50.187   9.747  10.792  0.00  0.00    +0.000 HD
BRANCH  11  14
ATOM     14  C   UNL     1      51.767  10.578  12.617  0.00  0.00    +0.000 A 
ATOM     15  C   UNL     1      52.774  11.337  12.049  0.00  0.00    +0.000 A 
ATOM     16  N   UNL     1      54.017  10.828  12.320  0.00  0.00    +0.000 NA
ATOM     17  C   UNL     1      53.795   9.761  13.049  0.00  0.00    +0.000 A 
ATOM     18  N   UNL     1      52.460   9.559  13.246  0.00  0.00    +0.000 N 
ATOM     19  C   UNL     1      51.897   8.454  13.987  0.00  0.00    +0.000 C 
ENDBRANCH  11  14
ENDBRANCH   9  10
ENDBRANCH   6   9
ENDBRANCH   2   3
BRANCH   2  20
ATOM     20  N   UNL     1      46.244   5.174  14.632  0.00  0.00    +0.000 N 
ATOM     21  C   UNL     1      47.208   4.222  14.816  0.00  0.00    +0.000 C 
ATOM     22  O   UNL     1      47.567   3.454  13.929  0.00  0.00    +0.000 OA
ATOM     23  H   UNL     1      46.103   5.860  15.362  0.00  0.00    +0.000 HD
BRANCH  21  24
ATOM     24  C   UNL     1      47.750   4.135  16.180  0.00  0.00    +0.000 A 
ATOM     25  C   UNL     1      47.598   2.977  16.926  0.00  0.00    +0.000 A 
ATOM     26  S   UNL     1      48.276   3.085  18.489  0.00  0.00    +0.000 S 
ATOM     27  C   UNL     1      48.826   4.669  18.205  0.00  0.00    +0.000 A 
ATOM     28  N   UNL     1      49.516   5.353  19.154  0.00  0.00    +0.000 NA
ATOM     29  C   UNL     1      49.893   6.538  18.795  0.00  0.00    +0.000 A 
ATOM     30  N   UNL     1      49.643   7.120  17.570  0.00  0.00    +0.000 N 
ATOM     31  C   UNL     1      50.099   8.461  17.275  0.00  0.00    +0.000 C 
ATOM     32  C   UNL     1      48.914   6.460  16.586  0.00  0.00    +0.000 A 
ATOM     33  O   UNL     1      48.623   6.983  15.514  0.00  0.00    +0.000 OA
ATOM     34  C   UNL     1      48.485   5.118  16.945  0.00  0.00    +0.000 A 
ENDBRANCH  21  24
ENDBRANCH   2  20
TORSDOF 6
ENDMDL
MODEL 8
REMARK VINA RESULT:    -5.144      2.867      4.236
REMARK INTER + INTRA:          -8.094
REMARK INTER:                  -8.091
REMARK INTRA:                  -0.003
REMARK UNBOUND:                -1.146
REMARK  Name = 
REMARK  9 active torsions:
REMARK  status: ('A' for Active; 'I' for Inactive)
REMARK    1  A    between atoms: C_1  and  C_2
REMARK    2  A    between atoms: C_2  and  N_3
REMARK    3  A    between atoms: C_2  and  C_17
REMARK    4  A    between atoms: C_4  and  C_6
REMARK    5  A    between atoms: N_12  and  C_13
REMARK    6  A    between atoms: C_20  and  C_21
REMARK    7  A    between atoms: C_21  and  N_22
REMARK    8  A    between atoms: C_23  and  C_25
REMARK    9  A    between atoms: N_29  and  C_30
REMARK                            x       y       z     vdW  Elec       q    Type
REMARK                         _______ _______ _______ _____ _____    ______ ____
ROOT
ATOM      1  C   UNL     1      49.788  10.860  16.210  0.00  0.00    +0.000 C 
ATOM      2  C   UNL     1      50.152   9.910  15.067  0.00  0.00    +0.000 C 
ENDROOT
BRANCH   2   3
ATOM      3  C   UNL     1      48.950   9.604  14.186  0.00  0.00    +0.000 A 
ATOM      4  C   UNL     1      48.321   8.355  14.279  0.00  0.00    +0.000 A 
ATOM      5  C   UNL     1      47.176   8.076  13.528  0.00  0.00    +0.000 A 
ATOM      6  C   UNL     1      46.636   9.033  12.659  0.00  0.00    +0.000 A 
ATOM      7  C   UNL     1      47.265  10.280  12.558  0.00  0.00    +0.000 A 
ATOM      8  C   UNL     1      48.414  10.558  13.306  0.00  0.00    +0.000 A 
BRANCH   6   9
ATOM      9  C   UNL     1      45.385   8.740  11.872  0.00  0.00    +0.000 C 
BRANCH   9  10
ATOM     10  N   UNL     1      44.825   7.454  12.218  0.00  0.00    +0.000 N 
ATOM     11  C   UNL     1      45.227   6.306  11.573  0.00  0.00    +0.000 C 
ATOM     12  O   UNL     1      46.065   6.338  10.674  0.00  0.00    +0.000 OA
ATOM     13  H   UNL     1      44.191   7.407  13.001  0.00  0.00    +0.000 HD
BRANCH  11  14
ATOM     14  C   UNL     1      44.597   5.084  12.023  0.00  0.00    +0.000 A 
ATOM     15  C   UNL     1      44.443   4.551  13.290  0.00  0.00    +0.000 A 
ATOM     16  N   UNL     1      43.755   3.366  13.269  0.00  0.00    +0.000 NA
ATOM     17  C   UNL     1      43.480   3.155  12.005  0.00  0.00    +0.000 A 
ATOM     18  N   UNL     1      43.975   4.151  11.213  0.00  0.00    +0.000 N 
ATOM     19  C   UNL     1      43.857   4.190   9.774  0.00  0.00    +0.000 C 
ENDBRANCH  11  14
ENDBRANCH   9  10
ENDBRANCH   6   9
ENDBRANCH   2   3
BRANCH   2  20
ATOM     20  N   UNL     1      50.698   8.663  15.567  0.00  0.00    +0.000 N 
ATOM     21  C   UNL     1      50.429   8.144  16.802  0.00  0.00    +0.000 C 
ATOM     22  O   UNL     1      49.790   8.749  17.657  0.00  0.00    +0.000 OA
ATOM     23  H   UNL     1      51.104   8.054  14.869  0.00  0.00    +0.000 HD
BRANCH  21  24
ATOM     24  C   UNL     1      51.016   6.822  17.066  0.00  0.00    +0.000 A 
ATOM     25  C   UNL     1      52.381   6.682  17.259  0.00  0.00    +0.000 A 
ATOM     26  S   UNL     1      52.866   5.067  17.528  0.00  0.00    +0.000 S 
ATOM     27  C   UNL     1      51.262   4.509  17.433  0.00  0.00    +0.000 A 
ATOM     28  N   UNL     1      50.966   3.194  17.597  0.00  0.00    +0.000 NA
ATOM     29  C   UNL     1      49.705   2.913  17.522  0.00  0.00    +0.000 A 
ATOM     30  N   UNL     1      48.694   3.824  17.294  0.00  0.00    +0.000 N 
ATOM     31  C   UNL     1      47.313   3.400  17.216  0.00  0.00    +0.000 C 
ATOM     32  C   UNL     1      48.964   5.174  17.093  0.00  0.00    +0.000 A 
ATOM     33  O   UNL     1      48.088   5.991  16.823  0.00  0.00    +0.000 OA
ATOM     34  C   UNL     1      50.370   5.533  17.183  0.00  0.00    +0.000 A 
ENDBRANCH  21  24
ENDBRANCH   2  20
TORSDOF 6
ENDMDL
MODEL 9
REMARK VINA RESULT:    -5.045     10.823     14.074
REMARK INTER + INTRA:          -7.960
REMARK INTER:                  -6.738
REMARK INTRA:                  -1.222
REMARK UNBOUND:                -1.146
REMARK  Name = 
REMARK  9 active torsions:
REMARK  status: ('A' for Active; 'I' for Inactive)
REMARK    1  A    between atoms: C_1  and  C_2
REMARK    2  A    between atoms: C_2  and  N_3
REMARK    3  A    between atoms: C_2  and  C_17
REMARK    4  A    between atoms: C_4  and  C_6
REMARK    5  A    between atoms: N_12  and  C_13
REMARK    6  A    between atoms: C_20  and  C_21
REMARK    7  A    between atoms: C_21  and  N_22
REMARK    8  A    between atoms: C_23  and  C_25
REMARK    9  A    between atoms: N_29  and  C_30
REMARK                            x       y       z     vdW  Elec       q    Type
REMARK                         _______ _______ _______ _____ _____    ______ ____
ROOT
ATOM      1  C   UNL     1      41.628  -5.365  13.538  0.00  0.00    +0.000 C 
ATOM      2  C   UNL     1      41.262  -3.887  13.397  0.00  0.00    +0.000 C 
ENDROOT
BRANCH   2   3
ATOM      3  C   UNL     1      40.732  -3.311  14.702  0.00  0.00    +0.000 A 
ATOM      4  C   UNL     1      41.322  -3.687  15.917  0.00  0.00    +0.000 A 
ATOM      5  C   UNL     1      40.896  -3.122  17.122  0.00  0.00    +0.000 A 
ATOM      6  C   UNL     1      39.867  -2.173  17.146  0.00  0.00    +0.000 A 
ATOM      7  C   UNL     1      39.270  -1.798  15.935  0.00  0.00    +0.000 A 
ATOM      8  C   UNL     1      39.692  -2.368  14.729  0.00  0.00    +0.000 A 
BRANCH   6   9
ATOM      9  C   UNL     1      39.429  -1.543  18.442  0.00  0.00    +0.000 C 
BRANCH   9  10
ATOM     10  N   UNL     1      39.156  -0.133  18.285  0.00  0.00    +0.000 N 
ATOM     11  C   UNL     1      37.863   0.338  18.223  0.00  0.00    +0.000 C 
ATOM     12  O   UNL     1      36.901  -0.424  18.287  0.00  0.00    +0.000 OA
ATOM     13  H   UNL     1      39.934   0.507  18.304  0.00  0.00    +0.000 HD
BRANCH  11  14
ATOM     14  C   UNL     1      37.727   1.771  18.077  0.00  0.00    +0.000 A 
ATOM     15  C   UNL     1      37.871   2.799  18.991  0.00  0.00    +0.000 A 
ATOM     16  N   UNL     1      37.673   4.028  18.419  0.00  0.00    +0.000 NA
ATOM     17  C   UNL     1      37.406   3.777  17.160  0.00  0.00    +0.000 A 
ATOM     18  N   UNL     1      37.413   2.436  16.905  0.00  0.00    +0.000 N 
ATOM     19  C   UNL     1      37.132   1.844  15.618  0.00  0.00    +0.000 C 
ENDBRANCH  11  14
ENDBRANCH   9  10
ENDBRANCH   6   9
ENDBRANCH   2   3
BRANCH   2  20
ATOM     20  N   UNL     1      40.272  -3.681  12.358  0.00  0.00    +0.000 N 
ATOM     21  C   UNL     1      40.332  -2.688  11.421  0.00  0.00    +0.000 C 
ATOM     22  O   UNL     1      41.175  -1.796  11.446  0.00  0.00    +0.000 OA
ATOM     23  H   UNL     1      39.644  -4.457  12.194  0.00  0.00    +0.000 HD
BRANCH  21  24
ATOM     24  C   UNL     1      39.271  -2.721  10.404  0.00  0.00    +0.000 A 
ATOM     25  C   UNL     1      39.309  -3.650   9.376  0.00  0.00    +0.000 A 
ATOM     26  S   UNL     1      38.001  -3.509   8.288  0.00  0.00    +0.000 S 
ATOM     27  C   UNL     1      37.323  -2.228   9.176  0.00  0.00    +0.000 A 
ATOM     28  N   UNL     1      36.159  -1.644   8.790  0.00  0.00    +0.000 NA
ATOM     29  C   UNL     1      35.748  -0.698   9.571  0.00  0.00    +0.000 A 
ATOM     30  N   UNL     1      36.391  -0.264  10.712  0.00  0.00    +0.000 N 
ATOM     31  C   UNL     1      35.848   0.815  11.508  0.00  0.00    +0.000 C 
ATOM     32  C   UNL     1      37.599  -0.820  11.121  0.00  0.00    +0.000 A 
ATOM     33  O   UNL     1      38.222  -0.406  12.095  0.00  0.00    +0.000 OA
ATOM     34  C   UNL     1      38.089  -1.898  10.277  0.00  0.00    +0.000 A 
ENDBRANCH  21  24
ENDBRANCH   2  20
TORSDOF 6
ENDMDL
