MODEL 1
REMARK VINA RESULT:    -7.969      0.000      0.000
REMARK INTER + INTRA:         -12.106
REMARK INTER:                 -11.231
REMARK INTRA:                  -0.876
REMARK UNBOUND:                -0.876
REMARK  Name = 
REMARK  7 active torsions:
REMARK  status: ('A' for Active; 'I' for Inactive)
REMARK    1  A    between atoms: C_2  and  C_3
REMARK    2  A    between atoms: C_7  and  N_8
REMARK    3  A    between atoms: N_8  and  C_9
REMARK    4  A    between atoms: C_9  and  C_10
REMARK    5  A    between atoms: C_14  and  C_15
REMARK    6  A    between atoms: C_19  and  O_20
REMARK    7  A    between atoms: O_20  and  C_21
REMARK                            x       y       z     vdW  Elec       q    Type
REMARK                         _______ _______ _______ _____ _____    ______ ____
ROOT
ATOM      1  C   UNL     1      45.242   5.285  12.303  0.00  0.00    +0.000 A 
ATOM      2  C   UNL     1      45.925   6.445  11.917  0.00  0.00    +0.000 A 
ATOM      3  C   UNL     1      47.071   6.860  12.595  0.00  0.00    +0.000 A 
ATOM      4  C   UNL     1      47.543   6.124  13.684  0.00  0.00    +0.000 A 
ATOM      5  C   UNL     1      46.915   4.935  14.087  0.00  0.00    +0.000 A 
ATOM      6  C   UNL     1      45.806   4.509  13.338  0.00  0.00    +0.000 A 
ENDROOT
BRANCH   5   7
ATOM      7  C   UNL     1      47.311   4.225  15.319  0.00  0.00    +0.000 A 
ATOM      8  C   UNL     1      46.697   4.521  16.541  0.00  0.00    +0.000 A 
ATOM      9  N   UNL     1      46.964   3.909  17.717  0.00  0.00    +0.000 NA
ATOM     10  C   UNL     1      47.886   2.925  17.681  0.00  0.00    +0.000 A 
ATOM     11  C   UNL     1      48.535   2.504  16.528  0.00  0.00    +0.000 A 
ATOM     12  C   UNL     1      48.255   3.181  15.337  0.00  0.00    +0.000 A 
BRANCH  11  13
ATOM     13  O   UNL     1      49.420   1.480  16.685  0.00  0.00    +0.000 OA
BRANCH  13  14
ATOM     14  C   UNL     1      50.585   1.784  17.431  0.00  0.00    +0.000 C 
ATOM     15  F   UNL     1      51.531   0.852  17.160  0.00  0.00    +0.000 F 
ATOM     16  F   UNL     1      51.059   2.970  16.970  0.00  0.00    +0.000 F 
ENDBRANCH  13  14
ENDBRANCH  11  13
ENDBRANCH   5   7
BRANCH   1  17
ATOM     17  C   UNL     1      43.877   4.926  11.711  0.00  0.00    +0.000 C 
ATOM     18  C   UNL     1      42.671   5.221  12.605  0.00  0.00    +0.000 C 
ATOM     19  C   UNL     1      42.923   6.065  11.405  0.00  0.00    +0.000 C 
BRANCH  17  20
ATOM     20  N   UNL     1      43.853   3.640  10.977  0.00  0.00    +0.000 N 
ATOM     21  H   UNL     1      43.908   2.839  11.605  0.00  0.00    +0.000 HD
BRANCH  20  26
ATOM     22  C   UNL     1      45.917   2.024   8.298  0.00  0.00    +0.000 A 
ATOM     23  C   UNL     1      46.195   3.160   7.548  0.00  0.00    +0.000 A 
ATOM     24  N   UNL     1      45.727   4.386   7.858  0.00  0.00    +0.000 NA
ATOM     25  C   UNL     1      44.954   4.476   8.970  0.00  0.00    +0.000 A 
ATOM     26  C   UNL     1      44.587   3.404   9.791  0.00  0.00    +0.000 A 
ATOM     27  C   UNL     1      45.097   2.157   9.426  0.00  0.00    +0.000 A 
BRANCH  22  29
ATOM     28  N   UNL     1      46.938  -0.263   7.635  0.00  0.00    +0.000 NA
ATOM     29  C   UNL     1      46.479   0.765   7.929  0.00  0.00    +0.000 C 
ENDBRANCH  22  29
ENDBRANCH  20  26
ENDBRANCH  17  20
ENDBRANCH   1  17
TORSDOF 7
ENDMDL
MODEL 2
REMARK VINA RESULT:    -7.865      2.148      2.522
REMARK INTER + INTRA:         -11.958
REMARK INTER:                 -11.304
REMARK INTRA:                  -0.654
REMARK UNBOUND:                -0.876
REMARK  Name = 
REMARK  7 active torsions:
REMARK  status: ('A' for Active; 'I' for Inactive)
REMARK    1  A    between atoms: C_2  and  C_3
REMARK    2  A    between atoms: C_7  and  N_8
REMARK    3  A    between atoms: N_8  and  C_9
REMARK    4  A    between atoms: C_9  and  C_10
REMARK    5  A    between atoms: C_14  and  C_15
REMARK    6  A    between atoms: C_19  and  O_20
REMARK    7  A    between atoms: O_20  and  C_21
REMARK                            x       y       z     vdW  Elec       q    Type
REMARK                         _______ _______ _______ _____ _____    ______ ____
ROOT
ATOM      1  C   UNL     1      45.463   5.281  12.194  0.00  0.00    +0.000 A 
ATOM      2  C   UNL     1      46.214   6.302  11.597  0.00  0.00    +0.000 A 
ATOM      3  C   UNL     1      47.391   6.761  12.185  0.00  0.00    +0.000 A 
ATOM      4  C   UNL     1      47.829   6.216  13.393  0.00  0.00    +0.000 A 
ATOM      5  C   UNL     1      47.132   5.167  14.014  0.00  0.00    +0.000 A 
ATOM      6  C   UNL     1      45.988   4.680  13.358  0.00  0.00    +0.000 A 
ENDROOT
BRANCH   5   7
ATOM      7  C   UNL     1      47.496   4.678  15.358  0.00  0.00    +0.000 A 
ATOM      8  C   UNL     1      47.553   3.305  15.624  0.00  0.00    +0.000 A 
ATOM      9  N   UNL     1      47.905   2.756  16.809  0.00  0.00    +0.000 NA
ATOM     10  C   UNL     1      48.241   3.617  17.791  0.00  0.00    +0.000 A 
ATOM     11  C   UNL     1      48.268   4.998  17.642  0.00  0.00    +0.000 A 
ATOM     12  C   UNL     1      47.870   5.531  16.413  0.00  0.00    +0.000 A 
BRANCH  11  13
ATOM     13  O   UNL     1      48.655   5.705  18.741  0.00  0.00    +0.000 OA
BRANCH  13  14
ATOM     14  C   UNL     1      47.626   6.419  19.405  0.00  0.00    +0.000 C 
ATOM     15  F   UNL     1      47.489   7.632  18.818  0.00  0.00    +0.000 F 
ATOM     16  F   UNL     1      46.468   5.745  19.189  0.00  0.00    +0.000 F 
ENDBRANCH  13  14
ENDBRANCH  11  13
ENDBRANCH   5   7
BRANCH   1  17
ATOM     17  C   UNL     1      44.071   4.907  11.681  0.00  0.00    +0.000 C 
ATOM     18  C   UNL     1      42.914   5.184  12.643  0.00  0.00    +0.000 C 
ATOM     19  C   UNL     1      43.086   6.035  11.433  0.00  0.00    +0.000 C 
BRANCH  17  20
ATOM     20  N   UNL     1      44.021   3.623  10.946  0.00  0.00    +0.000 N 
ATOM     21  H   UNL     1      44.098   2.820  11.569  0.00  0.00    +0.000 HD
BRANCH  20  26
ATOM     22  C   UNL     1      45.991   2.012   8.193  0.00  0.00    +0.000 A 
ATOM     23  C   UNL     1      46.243   3.150   7.436  0.00  0.00    +0.000 A 
ATOM     24  N   UNL     1      45.786   4.375   7.764  0.00  0.00    +0.000 NA
ATOM     25  C   UNL     1      45.052   4.463   8.903  0.00  0.00    +0.000 A 
ATOM     26  C   UNL     1      44.713   3.389   9.734  0.00  0.00    +0.000 A 
ATOM     27  C   UNL     1      45.211   2.143   9.349  0.00  0.00    +0.000 A 
BRANCH  22  29
ATOM     28  N   UNL     1      46.982  -0.275   7.488  0.00  0.00    +0.000 NA
ATOM     29  C   UNL     1      46.539   0.754   7.802  0.00  0.00    +0.000 C 
ENDBRANCH  22  29
ENDBRANCH  20  26
ENDBRANCH  17  20
ENDBRANCH   1  17
TORSDOF 7
ENDMDL
MODEL 3
REMARK VINA RESULT:    -7.792      3.675      4.856
REMARK INTER + INTRA:         -11.856
REMARK INTER:                 -10.852
REMARK INTRA:                  -1.004
REMARK UNBOUND:                -0.876
REMARK  Name = 
REMARK  7 active torsions:
REMARK  status: ('A' for Active; 'I' for Inactive)
REMARK    1  A    between atoms: C_2  and  C_3
REMARK    2  A    between atoms: C_7  and  N_8
REMARK    3  A    between atoms: N_8  and  C_9
REMARK    4  A    between atoms: C_9  and  C_10
REMARK    5  A    between atoms: C_14  and  C_15
REMARK    6  A    between atoms: C_19  and  O_20
REMARK    7  A    between atoms: O_20  and  C_21
REMARK                            x       y       z     vdW  Elec       q    Type
REMARK                         _______ _______ _______ _____ _____    ______ ____
ROOT
ATOM      1  C   UNL     1      45.013   5.182  12.354  0.00  0.00    +0.000 A 
ATOM      2  C   UNL     1      45.452   4.196  13.247  0.00  0.00    +0.000 A 
ATOM      3  C   UNL     1      46.698   4.293  13.865  0.00  0.00    +0.000 A 
ATOM      4  C   UNL     1      47.535   5.375  13.584  0.00  0.00    +0.000 A 
ATOM      5  C   UNL     1      47.127   6.407  12.724  0.00  0.00    +0.000 A 
ATOM      6  C   UNL     1      45.838   6.313  12.174  0.00  0.00    +0.000 A 
ENDROOT
BRANCH   5   7
ATOM      7  C   UNL     1      48.049   7.480  12.304  0.00  0.00    +0.000 A 
ATOM      8  C   UNL     1      47.567   8.761  12.015  0.00  0.00    +0.000 A 
ATOM      9  N   UNL     1      48.329   9.818  11.653  0.00  0.00    +0.000 NA
ATOM     10  C   UNL     1      49.659   9.602  11.590  0.00  0.00    +0.000 A 
ATOM     11  C   UNL     1      50.268   8.391  11.895  0.00  0.00    +0.000 A 
ATOM     12  C   UNL     1      49.445   7.314  12.237  0.00  0.00    +0.000 A 
BRANCH  11  13
ATOM     13  O   UNL     1      51.627   8.369  11.795  0.00  0.00    +0.000 OA
BRANCH  13  14
ATOM     14  C   UNL     1      52.143   8.178  10.489  0.00  0.00    +0.000 C 
ATOM     15  F   UNL     1      53.436   7.783  10.586  0.00  0.00    +0.000 F 
ATOM     16  F   UNL     1      51.458   7.146   9.934  0.00  0.00    +0.000 F 
ENDBRANCH  13  14
ENDBRANCH  11  13
ENDBRANCH   5   7
BRANCH   1  17
ATOM     17  C   UNL     1      43.749   4.993  11.512  0.00  0.00    +0.000 C 
ATOM     18  C   UNL     1      42.438   5.402  12.186  0.00  0.00    +0.000 C 
ATOM     19  C   UNL     1      42.994   6.239  11.088  0.00  0.00    +0.000 C 
BRANCH  17  20
ATOM     20  N   UNL     1      43.723   3.735  10.732  0.00  0.00    +0.000 N 
ATOM     21  H   UNL     1      43.658   2.913  11.331  0.00  0.00    +0.000 HD
BRANCH  20  26
ATOM     22  C   UNL     1      45.969   2.069   8.236  0.00  0.00    +0.000 A 
ATOM     23  C   UNL     1      46.388   3.204   7.555  0.00  0.00    +0.000 A 
ATOM     24  N   UNL     1      45.959   4.447   7.851  0.00  0.00    +0.000 NA
ATOM     25  C   UNL     1      45.077   4.555   8.878  0.00  0.00    +0.000 A 
ATOM     26  C   UNL     1      44.565   3.486   9.622  0.00  0.00    +0.000 A 
ATOM     27  C   UNL     1      45.042   2.221   9.275  0.00  0.00    +0.000 A 
BRANCH  22  29
ATOM     28  N   UNL     1      46.927  -0.253   7.601  0.00  0.00    +0.000 NA
ATOM     29  C   UNL     1      46.496   0.789   7.890  0.00  0.00    +0.000 C 
ENDBRANCH  22  29
ENDBRANCH  20  26
ENDBRANCH  17  20
ENDBRANCH   1  17
TORSDOF 7
ENDMDL
MODEL 4
REMARK VINA RESULT:    -7.692      1.771      2.157
REMARK INTER + INTRA:         -11.715
REMARK INTER:                 -10.850
REMARK INTRA:                  -0.866
REMARK UNBOUND:                -0.876
REMARK  Name = 
REMARK  7 active torsions:
REMARK  status: ('A' for Active; 'I' for Inactive)
REMARK    1  A    between atoms: C_2  and  C_3
REMARK    2  A    between atoms: C_7  and  N_8
REMARK    3  A    between atoms: N_8  and  C_9
REMARK    4  A    between atoms: C_9  and  C_10
REMARK    5  A    between atoms: C_14  and  C_15
REMARK    6  A    between atoms: C_19  and  O_20
REMARK    7  A    between atoms: O_20  and  C_21
REMARK                            x       y       z     vdW  Elec       q    Type
REMARK                         _______ _______ _______ _____ _____    ______ ____
ROOT
ATOM      1  C   UNL     1      45.066   6.178  12.103  0.00  0.00    +0.000 A 
ATOM      2  C   UNL     1      44.974   7.505  11.663  0.00  0.00    +0.000 A 
ATOM      3  C   UNL     1      45.866   8.473  12.121  0.00  0.00    +0.000 A 
ATOM      4  C   UNL     1      46.858   8.130  13.043  0.00  0.00    +0.000 A 
ATOM      5  C   UNL     1      47.013   6.808  13.487  0.00  0.00    +0.000 A 
ATOM      6  C   UNL     1      46.143   5.844  12.951  0.00  0.00    +0.000 A 
ENDROOT
BRANCH   5   7
ATOM      7  C   UNL     1      47.957   6.455  14.565  0.00  0.00    +0.000 A 
ATOM      8  C   UNL     1      49.068   7.263  14.833  0.00  0.00    +0.000 A 
ATOM      9  N   UNL     1      49.972   7.045  15.814  0.00  0.00    +0.000 NA
ATOM     10  C   UNL     1      49.756   5.968  16.597  0.00  0.00    +0.000 A 
ATOM     11  C   UNL     1      48.670   5.112  16.465  0.00  0.00    +0.000 A 
ATOM     12  C   UNL     1      47.773   5.352  15.421  0.00  0.00    +0.000 A 
BRANCH  11  13
ATOM     13  O   UNL     1      48.609   4.088  17.362  0.00  0.00    +0.000 OA
BRANCH  13  14
ATOM     14  C   UNL     1      48.012   2.893  16.890  0.00  0.00    +0.000 C 
ATOM     15  F   UNL     1      48.964   1.931  16.817  0.00  0.00    +0.000 F 
ATOM     16  F   UNL     1      47.119   2.492  17.830  0.00  0.00    +0.000 F 
ENDBRANCH  13  14
ENDBRANCH  11  13
ENDBRANCH   5   7
BRANCH   1  17
ATOM     17  C   UNL     1      43.979   5.151  11.777  0.00  0.00    +0.000 C 
ATOM     18  C   UNL     1      42.778   5.135  12.725  0.00  0.00    +0.000 C 
ATOM     19  C   UNL     1      42.622   5.676  11.347  0.00  0.00    +0.000 C 
BRANCH  17  20
ATOM     20  N   UNL     1      44.499   3.831  11.354  0.00  0.00    +0.000 N 
ATOM     21  H   UNL     1      45.095   3.407  12.064  0.00  0.00    +0.000 HD
BRANCH  20  26
ATOM     22  C   UNL     1      45.983   2.138   8.356  0.00  0.00    +0.000 A 
ATOM     23  C   UNL     1      46.161   3.262   7.560  0.00  0.00    +0.000 A 
ATOM     24  N   UNL     1      45.801   4.505   7.940  0.00  0.00    +0.000 NA
ATOM     25  C   UNL     1      45.246   4.624   9.173  0.00  0.00    +0.000 A 
ATOM     26  C   UNL     1      44.996   3.567  10.055  0.00  0.00    +0.000 A 
ATOM     27  C   UNL     1      45.387   2.302   9.613  0.00  0.00    +0.000 A 
BRANCH  22  29
ATOM     28  N   UNL     1      46.788  -0.181   7.530  0.00  0.00    +0.000 NA
ATOM     29  C   UNL     1      46.423   0.859   7.901  0.00  0.00    +0.000 C 
ENDBRANCH  22  29
ENDBRANCH  20  26
ENDBRANCH  17  20
ENDBRANCH   1  17
TORSDOF 7
ENDMDL
MODEL 5
REMARK VINA RESULT:    -7.547      4.184      7.950
REMARK INTER + INTRA:         -11.511
REMARK INTER:                 -10.275
REMARK INTRA:                  -1.236
REMARK UNBOUND:                -0.876
REMARK  Name = 
REMARK  7 active torsions:
REMARK  status: ('A' for Active; 'I' for Inactive)
REMARK    1  A    between atoms: C_2  and  C_3
REMARK    2  A    between atoms: C_7  and  N_8
REMARK    3  A    between atoms: N_8  and  C_9
REMARK    4  A    between atoms: C_9  and  C_10
REMARK    5  A    between atoms: C_14  and  C_15
REMARK    6  A    between atoms: C_19  and  O_20
REMARK    7  A    between atoms: O_20  and  C_21
REMARK                            x       y       z     vdW  Elec       q    Type
REMARK                         _______ _______ _______ _____ _____    ______ ____
ROOT
ATOM      1  C   UNL     1      47.216   7.794  12.389  0.00  0.00    +0.000 A 
ATOM      2  C   UNL     1      46.241   8.792  12.507  0.00  0.00    +0.000 A 
ATOM      3  C   UNL     1      44.941   8.579  12.052  0.00  0.00    +0.000 A 
ATOM      4  C   UNL     1      44.600   7.364  11.455  0.00  0.00    +0.000 A 
ATOM      5  C   UNL     1      45.531   6.320  11.345  0.00  0.00    +0.000 A 
ATOM      6  C   UNL     1      46.812   6.543  11.878  0.00  0.00    +0.000 A 
ENDROOT
BRANCH   5   7
ATOM      7  C   UNL     1      45.233   5.086  10.590  0.00  0.00    +0.000 A 
ATOM      8  C   UNL     1      44.538   4.033  11.194  0.00  0.00    +0.000 A 
ATOM      9  N   UNL     1      44.190   2.878  10.583  0.00  0.00    +0.000 NA
ATOM     10  C   UNL     1      44.534   2.762   9.284  0.00  0.00    +0.000 A 
ATOM     11  C   UNL     1      45.185   3.751   8.558  0.00  0.00    +0.000 A 
ATOM     12  C   UNL     1      45.555   4.918   9.231  0.00  0.00    +0.000 A 
BRANCH  11  13
ATOM     13  O   UNL     1      45.431   3.461   7.249  0.00  0.00    +0.000 OA
BRANCH  13  14
ATOM     14  C   UNL     1      46.798   3.374   6.886  0.00  0.00    +0.000 C 
ATOM     15  F   UNL     1      47.334   2.274   7.469  0.00  0.00    +0.000 F 
ATOM     16  F   UNL     1      46.844   3.169   5.545  0.00  0.00    +0.000 F 
ENDBRANCH  13  14
ENDBRANCH  11  13
ENDBRANCH   5   7
BRANCH   1  17
ATOM     17  C   UNL     1      48.690   8.077  12.689  0.00  0.00    +0.000 C 
ATOM     18  C   UNL     1      49.483   8.730  11.555  0.00  0.00    +0.000 C 
ATOM     19  C   UNL     1      49.127   9.529  12.761  0.00  0.00    +0.000 C 
BRANCH  17  20
ATOM     20  N   UNL     1      49.376   6.996  13.433  0.00  0.00    +0.000 N 
ATOM     21  H   UNL     1      49.474   6.148  12.875  0.00  0.00    +0.000 HD
BRANCH  20  26
ATOM     22  C   UNL     1      48.049   5.371  16.539  0.00  0.00    +0.000 A 
ATOM     23  C   UNL     1      48.455   6.332  17.456  0.00  0.00    +0.000 A 
ATOM     24  N   UNL     1      49.146   7.438  17.114  0.00  0.00    +0.000 NA
ATOM     25  C   UNL     1      49.435   7.588  15.796  0.00  0.00    +0.000 A 
ATOM     26  C   UNL     1      49.101   6.680  14.785  0.00  0.00    +0.000 A 
ATOM     27  C   UNL     1      48.387   5.553  15.192  0.00  0.00    +0.000 A 
BRANCH  22  29
ATOM     28  N   UNL     1      46.662   3.327  17.321  0.00  0.00    +0.000 NA
ATOM     29  C   UNL     1      47.288   4.243  16.971  0.00  0.00    +0.000 C 
ENDBRANCH  22  29
ENDBRANCH  20  26
ENDBRANCH  17  20
ENDBRANCH   1  17
TORSDOF 7
ENDMDL
MODEL 6
REMARK VINA RESULT:    -7.240      4.596      8.663
REMARK INTER + INTRA:         -11.079
REMARK INTER:                  -9.978
REMARK INTRA:                  -1.100
REMARK UNBOUND:                -0.876
REMARK  Name = 
REMARK  7 active torsions:
REMARK  status: ('A' for Active; 'I' for Inactive)
REMARK    1  A    between atoms: C_2  and  C_3
REMARK    2  A    between atoms: C_7  and  N_8
REMARK    3  A    between atoms: N_8  and  C_9
REMARK    4  A    between atoms: C_9  and  C_10
REMARK    5  A    between atoms: C_14  and  C_15
REMARK    6  A    between atoms: C_19  and  O_20
REMARK    7  A    between atoms: O_20  and  C_21
REMARK                            x       y       z     vdW  Elec       q    Type
REMARK                         _______ _______ _______ _____ _____    ______ ____
ROOT
ATOM      1  C   UNL     1      47.520   7.618  12.473  0.00  0.00    +0.000 A 
ATOM      2  C   UNL     1      46.596   8.645  12.704  0.00  0.00    +0.000 A 
ATOM      3  C   UNL     1      45.266   8.514  12.306  0.00  0.00    +0.000 A 
ATOM      4  C   UNL     1      44.843   7.354  11.653  0.00  0.00    +0.000 A 
ATOM      5  C   UNL     1      45.721   6.283  11.430  0.00  0.00    +0.000 A 
ATOM      6  C   UNL     1      47.036   6.419  11.907  0.00  0.00    +0.000 A 
ENDROOT
BRANCH   5   7
ATOM      7  C   UNL     1      45.332   5.113  10.617  0.00  0.00    +0.000 A 
ATOM      8  C   UNL     1      44.594   4.067  11.182  0.00  0.00    +0.000 A 
ATOM      9  N   UNL     1      44.163   2.971  10.519  0.00  0.00    +0.000 NA
ATOM     10  C   UNL     1      44.464   2.910   9.205  0.00  0.00    +0.000 A 
ATOM     11  C   UNL     1      45.152   3.901   8.516  0.00  0.00    +0.000 A 
ATOM     12  C   UNL     1      45.607   5.006   9.241  0.00  0.00    +0.000 A 
BRANCH  11  13
ATOM     13  O   UNL     1      45.344   3.674   7.186  0.00  0.00    +0.000 OA
BRANCH  13  14
ATOM     14  C   UNL     1      46.689   3.471   6.786  0.00  0.00    +0.000 C 
ATOM     15  F   UNL     1      47.243   2.529   7.587  0.00  0.00    +0.000 F 
ATOM     16  F   UNL     1      46.661   2.953   5.532  0.00  0.00    +0.000 F 
ENDBRANCH  13  14
ENDBRANCH  11  13
ENDBRANCH   5   7
BRANCH   1  17
ATOM     17  C   UNL     1      49.017   7.821  12.712  0.00  0.00    +0.000 C 
ATOM     18  C   UNL     1      49.894   7.822  11.457  0.00  0.00    +0.000 C 
ATOM     19  C   UNL     1      49.647   9.098  12.185  0.00  0.00    +0.000 C 
BRANCH  17  20
ATOM     20  N   UNL     1      49.549   7.090  13.884  0.00  0.00    +0.000 N 
ATOM     21  H   UNL     1      49.674   6.096  13.693  0.00  0.00    +0.000 HD
BRANCH  20  26
ATOM     22  C   UNL     1      48.355   8.684  17.060  0.00  0.00    +0.000 A 
ATOM     23  C   UNL     1      48.441   7.571  17.886  0.00  0.00    +0.000 A 
ATOM     24  N   UNL     1      48.833   6.355  17.455  0.00  0.00    +0.000 NA
ATOM     25  C   UNL     1      49.159   6.255  16.141  0.00  0.00    +0.000 A 
ATOM     26  C   UNL     1      49.092   7.296  15.207  0.00  0.00    +0.000 A 
ATOM     27  C   UNL     1      48.680   8.532  15.706  0.00  0.00    +0.000 A 
BRANCH  22  29
ATOM     28  N   UNL     1      47.644  10.976  18.036  0.00  0.00    +0.000 NA
ATOM     29  C   UNL     1      47.967   9.948  17.597  0.00  0.00    +0.000 C 
ENDBRANCH  22  29
ENDBRANCH  20  26
ENDBRANCH  17  20
ENDBRANCH   1  17
TORSDOF 7
ENDMDL
MODEL 7
REMARK VINA RESULT:    -7.118      1.896      2.294
REMARK INTER + INTRA:         -10.907
REMARK INTER:                 -10.408
REMARK INTRA:                  -0.499
REMARK UNBOUND:                -0.876
REMARK  Name = 
REMARK  7 active torsions:
REMARK  status: ('A' for Active; 'I' for Inactive)
REMARK    1  A    between atoms: C_2  and  C_3
REMARK    2  A    between atoms: C_7  and  N_8
REMARK    3  A    between atoms: N_8  and  C_9
REMARK    4  A    between atoms: C_9  and  C_10
REMARK    5  A    between atoms: C_14  and  C_15
REMARK    6  A    between atoms: C_19  and  O_20
REMARK    7  A    between atoms: O_20  and  C_21
REMARK                            x       y       z     vdW  Elec       q    Type
REMARK                         _______ _______ _______ _____ _____    ______ ____
ROOT
ATOM      1  C   UNL     1      45.278   5.565  11.538  0.00  0.00    +0.000 A 
ATOM      2  C   UNL     1      46.039   6.534  10.872  0.00  0.00    +0.000 A 
ATOM      3  C   UNL     1      47.231   7.007  11.417  0.00  0.00    +0.000 A 
ATOM      4  C   UNL     1      47.674   6.528  12.651  0.00  0.00    +0.000 A 
ATOM      5  C   UNL     1      46.966   5.531  13.342  0.00  0.00    +0.000 A 
ATOM      6  C   UNL     1      45.807   5.025  12.730  0.00  0.00    +0.000 A 
ENDROOT
BRANCH   5   7
ATOM      7  C   UNL     1      47.339   5.117  14.709  0.00  0.00    +0.000 A 
ATOM      8  C   UNL     1      46.788   3.964  15.279  0.00  0.00    +0.000 A 
ATOM      9  N   UNL     1      47.085   3.484  16.508  0.00  0.00    +0.000 NA
ATOM     10  C   UNL     1      48.002   4.176  17.214  0.00  0.00    +0.000 A 
ATOM     11  C   UNL     1      48.655   5.309  16.746  0.00  0.00    +0.000 A 
ATOM     12  C   UNL     1      48.300   5.793  15.484  0.00  0.00    +0.000 A 
BRANCH  11  13
ATOM     13  O   UNL     1      49.567   5.862  17.595  0.00  0.00    +0.000 OA
BRANCH  13  14
ATOM     14  C   UNL     1      50.804   5.178  17.698  0.00  0.00    +0.000 C 
ATOM     15  F   UNL     1      51.623   5.610  16.708  0.00  0.00    +0.000 F 
ATOM     16  F   UNL     1      51.373   5.553  18.871  0.00  0.00    +0.000 F 
ENDBRANCH  13  14
ENDBRANCH  11  13
ENDBRANCH   5   7
BRANCH   1  17
ATOM     17  C   UNL     1      43.874   5.185  11.064  0.00  0.00    +0.000 C 
ATOM     18  C   UNL     1      43.029   4.391  12.063  0.00  0.00    +0.000 C 
ATOM     19  C   UNL     1      42.695   5.814  11.782  0.00  0.00    +0.000 C 
BRANCH  17  20
ATOM     20  N   UNL     1      43.809   4.743   9.652  0.00  0.00    +0.000 N 
ATOM     21  H   UNL     1      42.849   4.643   9.324  0.00  0.00    +0.000 HD
BRANCH  20  26
ATOM     22  C   UNL     1      46.079   2.784   7.402  0.00  0.00    +0.000 A 
ATOM     23  C   UNL     1      46.021   1.568   8.069  0.00  0.00    +0.000 A 
ATOM     24  N   UNL     1      45.316   1.377   9.202  0.00  0.00    +0.000 NA
ATOM     25  C   UNL     1      44.635   2.450   9.681  0.00  0.00    +0.000 A 
ATOM     26  C   UNL     1      44.635   3.729   9.112  0.00  0.00    +0.000 A 
ATOM     27  C   UNL     1      45.381   3.872   7.941  0.00  0.00    +0.000 A 
BRANCH  22  29
ATOM     28  N   UNL     1      47.426   2.996   5.199  0.00  0.00    +0.000 NA
ATOM     29  C   UNL     1      46.818   2.901   6.186  0.00  0.00    +0.000 C 
ENDBRANCH  22  29
ENDBRANCH  20  26
ENDBRANCH  17  20
ENDBRANCH   1  17
TORSDOF 7
ENDMDL
MODEL 8
REMARK VINA RESULT:    -6.764      4.259      8.132
REMARK INTER + INTRA:         -10.408
REMARK INTER:                  -9.306
REMARK INTRA:                  -1.102
REMARK UNBOUND:                -0.876
REMARK  Name = 
REMARK  7 active torsions:
REMARK  status: ('A' for Active; 'I' for Inactive)
REMARK    1  A    between atoms: C_2  and  C_3
REMARK    2  A    between atoms: C_7  and  N_8
REMARK    3  A    between atoms: N_8  and  C_9
REMARK    4  A    between atoms: C_9  and  C_10
REMARK    5  A    between atoms: C_14  and  C_15
REMARK    6  A    between atoms: C_19  and  O_20
REMARK    7  A    between atoms: O_20  and  C_21
REMARK                            x       y       z     vdW  Elec       q    Type
REMARK                         _______ _______ _______ _____ _____    ______ ____
ROOT
ATOM      1  C   UNL     1      48.744   8.272  14.106  0.00  0.00    +0.000 A 
ATOM      2  C   UNL     1      49.506   8.754  13.034  0.00  0.00    +0.000 A 
ATOM      3  C   UNL     1      49.231   8.358  11.726  0.00  0.00    +0.000 A 
ATOM      4  C   UNL     1      48.195   7.456  11.471  0.00  0.00    +0.000 A 
ATOM      5  C   UNL     1      47.381   6.972  12.507  0.00  0.00    +0.000 A 
ATOM      6  C   UNL     1      47.640   7.446  13.803  0.00  0.00    +0.000 A 
ENDROOT
BRANCH   5   7
ATOM      7  C   UNL     1      46.379   5.912  12.278  0.00  0.00    +0.000 A 
ATOM      8  C   UNL     1      45.892   5.150  13.346  0.00  0.00    +0.000 A 
ATOM      9  N   UNL     1      44.955   4.180  13.248  0.00  0.00    +0.000 NA
ATOM     10  C   UNL     1      44.450   3.960  12.017  0.00  0.00    +0.000 A 
ATOM     11  C   UNL     1      44.814   4.676  10.884  0.00  0.00    +0.000 A 
ATOM     12  C   UNL     1      45.807   5.651  11.019  0.00  0.00    +0.000 A 
BRANCH  11  13
ATOM     13  O   UNL     1      44.179   4.326   9.730  0.00  0.00    +0.000 OA
BRANCH  13  14
ATOM     14  C   UNL     1      44.774   3.267   8.999  0.00  0.00    +0.000 C 
ATOM     15  F   UNL     1      44.151   2.109   9.326  0.00  0.00    +0.000 F 
ATOM     16  F   UNL     1      44.518   3.494   7.686  0.00  0.00    +0.000 F 
ENDBRANCH  13  14
ENDBRANCH  11  13
ENDBRANCH   5   7
BRANCH   1  17
ATOM     17  C   UNL     1      49.155   8.527  15.558  0.00  0.00    +0.000 C 
ATOM     18  C   UNL     1      49.303   9.998  15.955  0.00  0.00    +0.000 C 
ATOM     19  C   UNL     1      48.147   9.210  16.464  0.00  0.00    +0.000 C 
BRANCH  17  20
ATOM     20  N   UNL     1      50.192   7.602  16.066  0.00  0.00    +0.000 N 
ATOM     21  H   UNL     1      50.858   7.335  15.341  0.00  0.00    +0.000 HD
BRANCH  20  26
ATOM     22  C   UNL     1      48.575   4.629  17.678  0.00  0.00    +0.000 A 
ATOM     23  C   UNL     1      49.369   4.562  18.816  0.00  0.00    +0.000 A 
ATOM     24  N   UNL     1      50.395   5.403  19.054  0.00  0.00    +0.000 NA
ATOM     25  C   UNL     1      50.628   6.356  18.115  0.00  0.00    +0.000 A 
ATOM     26  C   UNL     1      49.914   6.509  16.922  0.00  0.00    +0.000 A 
ATOM     27  C   UNL     1      48.863   5.613  16.724  0.00  0.00    +0.000 A 
BRANCH  22  29
ATOM     28  N   UNL     1      46.593   2.989  17.369  0.00  0.00    +0.000 NA
ATOM     29  C   UNL     1      47.482   3.726  17.512  0.00  0.00    +0.000 C 
ENDBRANCH  22  29
ENDBRANCH  20  26
ENDBRANCH  17  20
ENDBRANCH   1  17
TORSDOF 7
ENDMDL
MODEL 9
REMARK VINA RESULT:    -6.676      5.179      7.799
REMARK INTER + INTRA:         -10.284
REMARK INTER:                  -9.217
REMARK INTRA:                  -1.066
REMARK UNBOUND:                -0.876
REMARK  Name = 
REMARK  7 active torsions:
REMARK  status: ('A' for Active; 'I' for Inactive)
REMARK    1  A    between atoms: C_2  and  C_3
REMARK    2  A    between atoms: C_7  and  N_8
REMARK    3  A    between atoms: N_8  and  C_9
REMARK    4  A    between atoms: C_9  and  C_10
REMARK    5  A    between atoms: C_14  and  C_15
REMARK    6  A    between atoms: C_19  and  O_20
REMARK    7  A    between atoms: O_20  and  C_21
REMARK                            x       y       z     vdW  Elec       q    Type
REMARK                         _______ _______ _______ _____ _____    ______ ____
ROOT
ATOM      1  C   UNL     1      47.026   7.776  12.838  0.00  0.00    +0.000 A 
ATOM      2  C   UNL     1      46.164   8.877  12.749  0.00  0.00    +0.000 A 
ATOM      3  C   UNL     1      44.970   8.794  12.034  0.00  0.00    +0.000 A 
ATOM      4  C   UNL     1      44.627   7.609  11.381  0.00  0.00    +0.000 A 
ATOM      5  C   UNL     1      45.439   6.467  11.470  0.00  0.00    +0.000 A 
ATOM      6  C   UNL     1      46.599   6.563  12.256  0.00  0.00    +0.000 A 
ENDROOT
BRANCH   5   7
ATOM      7  C   UNL     1      45.168   5.255  10.672  0.00  0.00    +0.000 A 
ATOM      8  C   UNL     1      44.467   4.179  11.227  0.00  0.00    +0.000 A 
ATOM      9  N   UNL     1      44.142   3.040  10.574  0.00  0.00    +0.000 NA
ATOM     10  C   UNL     1      44.516   2.966   9.281  0.00  0.00    +0.000 A 
ATOM     11  C   UNL     1      45.176   3.981   8.600  0.00  0.00    +0.000 A 
ATOM     12  C   UNL     1      45.522   5.130   9.315  0.00  0.00    +0.000 A 
BRANCH  11  13
ATOM     13  O   UNL     1      45.454   3.732   7.288  0.00  0.00    +0.000 OA
BRANCH  13  14
ATOM     14  C   UNL     1      46.825   3.563   6.973  0.00  0.00    +0.000 C 
ATOM     15  F   UNL     1      47.273   2.432   7.570  0.00  0.00    +0.000 F 
ATOM     16  F   UNL     1      46.906   3.358   5.633  0.00  0.00    +0.000 F 
ENDBRANCH  13  14
ENDBRANCH  11  13
ENDBRANCH   5   7
BRANCH   1  17
ATOM     17  C   UNL     1      48.428   7.905  13.437  0.00  0.00    +0.000 C 
ATOM     18  C   UNL     1      48.509   7.805  14.962  0.00  0.00    +0.000 C 
ATOM     19  C   UNL     1      49.016   6.685  14.122  0.00  0.00    +0.000 C 
BRANCH  17  20
ATOM     20  N   UNL     1      49.265   8.949  12.803  0.00  0.00    +0.000 N 
ATOM     21  H   UNL     1      48.727   9.542  12.172  0.00  0.00    +0.000 HD
BRANCH  20  26
ATOM     22  C   UNL     1      52.108   7.780  10.656  0.00  0.00    +0.000 A 
ATOM     23  C   UNL     1      53.150   8.093  11.518  0.00  0.00    +0.000 A 
ATOM     24  N   UNL     1      52.969   8.677  12.720  0.00  0.00    +0.000 NA
ATOM     25  C   UNL     1      51.687   8.951  13.073  0.00  0.00    +0.000 A 
ATOM     26  C   UNL     1      50.559   8.705  12.283  0.00  0.00    +0.000 A 
ATOM     27  C   UNL     1      50.802   8.100  11.049  0.00  0.00    +0.000 A 
BRANCH  22  29
ATOM     28  N   UNL     1      52.588   6.604   8.398  0.00  0.00    +0.000 NA
ATOM     29  C   UNL     1      52.374   7.129   9.414  0.00  0.00    +0.000 C 
ENDBRANCH  22  29
ENDBRANCH  20  26
ENDBRANCH  17  20
ENDBRANCH   1  17
TORSDOF 7
ENDMDL
