MODEL 1
REMARK VINA RESULT:    -7.941      0.000      0.000
REMARK INTER + INTRA:         -12.175
REMARK INTER:                 -10.958
REMARK INTRA:                  -1.217
REMARK UNBOUND:                -1.217
REMARK  Name = 
REMARK  8 active torsions:
REMARK  status: ('A' for Active; 'I' for Inactive)
REMARK    1  A    between atoms: C_1  and  N_2
REMARK    2  A    between atoms: N_2  and  C_3
REMARK    3  A    between atoms: C_3  and  C_4
REMARK    4  A    between atoms: C_7  and  C_8
REMARK    5  A    between atoms: C_8  and  O_9
REMARK    6  A    between atoms: C_8  and  C_10
REMARK    7  A    between atoms: C_10  and  C_11
REMARK    8  A    between atoms: C_18  and  C_20
REMARK                            x       y       z     vdW  Elec       q    Type
REMARK                         _______ _______ _______ _____ _____    ______ ____
ROOT
ATOM      1  C   UNL     1      47.065   6.290  12.156  0.00  0.00    +0.000 C 
ENDROOT
BRANCH   1   2
ATOM      2  C   UNL     1      47.349   5.771  13.538  0.00  0.00    +0.000 A 
ATOM      3  C   UNL     1      48.130   6.517  14.430  0.00  0.00    +0.000 A 
ATOM      4  C   UNL     1      48.348   6.062  15.730  0.00  0.00    +0.000 A 
ATOM      5  C   UNL     1      47.789   4.852  16.164  0.00  0.00    +0.000 A 
ATOM      6  C   UNL     1      47.031   4.096  15.257  0.00  0.00    +0.000 A 
ATOM      7  C   UNL     1      46.813   4.549  13.957  0.00  0.00    +0.000 A 
BRANCH   5   8
ATOM      8  C   UNL     1      48.039   4.380  17.584  0.00  0.00    +0.000 C 
BRANCH   8   9
ATOM      9  O   UNL     1      46.867   4.595  18.381  0.00  0.00    +0.000 OA
ATOM     10  H   UNL     1      46.412   3.743  18.485  0.00  0.00    +0.000 HD
ENDBRANCH   8   9
BRANCH   8  11
ATOM     11  C   UNL     1      48.406   2.901  17.677  0.00  0.00    +0.000 C 
BRANCH  11  12
ATOM     12  C   UNL     1      49.889   2.691  17.581  0.00  0.00    +0.000 C 
ATOM     13  N   UNL     1      50.742   3.556  18.068  0.00  0.00    +0.000 NA
ATOM     14  C   UNL     1      52.073   2.943  17.777  0.00  0.00    +0.000 C 
ATOM     15  C   UNL     1      51.798   1.474  17.434  0.00  0.00    +0.000 C 
ATOM     16  N   UNL     1      50.416   1.551  17.030  0.00  0.00    +0.000 N 
ATOM     17  H   UNL     1      49.862   0.704  17.041  0.00  0.00    +0.000 HD
ENDBRANCH  11  12
ENDBRANCH   8  11
ENDBRANCH   5   8
ENDBRANCH   1   2
BRANCH   1  19
ATOM     18  C   UNL     1      46.069   8.619  12.048  0.00  0.00    +0.000 C 
ATOM     19  N   UNL     1      45.910   7.172  11.971  0.00  0.00    +0.000 N 
ATOM     20  C   UNL     1      44.662   6.714  11.508  0.00  0.00    +0.000 C 
ATOM     21  O   UNL     1      43.768   7.504  11.213  0.00  0.00    +0.000 OA
BRANCH  20  22
ATOM     22  C   UNL     1      44.409   5.267  11.412  0.00  0.00    +0.000 A 
ATOM     23  C   UNL     1      43.656   4.536  12.317  0.00  0.00    +0.000 A 
ATOM     24  S   UNL     1      43.491   2.889  11.898  0.00  0.00    +0.000 S 
ATOM     25  C   UNL     1      44.288   3.133  10.416  0.00  0.00    +0.000 A 
ATOM     26  N   UNL     1      44.392   2.132   9.502  0.00  0.00    +0.000 NA
ATOM     27  C   UNL     1      44.959   2.483   8.395  0.00  0.00    +0.000 A 
ATOM     28  N   UNL     1      45.468   3.732   8.139  0.00  0.00    +0.000 N 
ATOM     29  C   UNL     1      45.512   4.729   9.087  0.00  0.00    +0.000 A 
ATOM     30  O   UNL     1      46.196   5.734   8.914  0.00  0.00    +0.000 OA
ATOM     31  C   UNL     1      44.767   4.425  10.295  0.00  0.00    +0.000 A 
ATOM     32  H   UNL     1      45.969   3.921   7.282  0.00  0.00    +0.000 HD
ENDBRANCH  20  22
ENDBRANCH   1  19
TORSDOF 7
ENDMDL
MODEL 2
REMARK VINA RESULT:    -7.605      1.451      2.291
REMARK INTER + INTRA:         -11.711
REMARK INTER:                 -10.377
REMARK INTRA:                  -1.334
REMARK UNBOUND:                -1.217
REMARK  Name = 
REMARK  8 active torsions:
REMARK  status: ('A' for Active; 'I' for Inactive)
REMARK    1  A    between atoms: C_1  and  N_2
REMARK    2  A    between atoms: N_2  and  C_3
REMARK    3  A    between atoms: C_3  and  C_4
REMARK    4  A    between atoms: C_7  and  C_8
REMARK    5  A    between atoms: C_8  and  O_9
REMARK    6  A    between atoms: C_8  and  C_10
REMARK    7  A    between atoms: C_10  and  C_11
REMARK    8  A    between atoms: C_18  and  C_20
REMARK                            x       y       z     vdW  Elec       q    Type
REMARK                         _______ _______ _______ _____ _____    ______ ____
ROOT
ATOM      1  C   UNL     1      47.427   6.609  12.403  0.00  0.00    +0.000 C 
ENDROOT
BRANCH   1   2
ATOM      2  C   UNL     1      47.508   5.786  13.658  0.00  0.00    +0.000 A 
ATOM      3  C   UNL     1      46.996   4.482  13.688  0.00  0.00    +0.000 A 
ATOM      4  C   UNL     1      47.120   3.700  14.835  0.00  0.00    +0.000 A 
ATOM      5  C   UNL     1      47.759   4.205  15.976  0.00  0.00    +0.000 A 
ATOM      6  C   UNL     1      48.244   5.520  15.949  0.00  0.00    +0.000 A 
ATOM      7  C   UNL     1      48.120   6.305  14.804  0.00  0.00    +0.000 A 
BRANCH   5   8
ATOM      8  C   UNL     1      47.883   3.331  17.210  0.00  0.00    +0.000 C 
BRANCH   8   9
ATOM      9  O   UNL     1      46.580   2.933  17.657  0.00  0.00    +0.000 OA
ATOM     10  H   UNL     1      46.671   2.541  18.541  0.00  0.00    +0.000 HD
ENDBRANCH   8   9
BRANCH   8  11
ATOM     11  C   UNL     1      48.706   2.066  16.978  0.00  0.00    +0.000 C 
BRANCH  11  12
ATOM     12  C   UNL     1      50.162   2.293  17.265  0.00  0.00    +0.000 C 
ATOM     13  N   UNL     1      50.590   3.385  17.846  0.00  0.00    +0.000 NA
ATOM     14  C   UNL     1      52.065   3.175  17.952  0.00  0.00    +0.000 C 
ATOM     15  C   UNL     1      52.299   1.679  17.714  0.00  0.00    +0.000 C 
ATOM     16  N   UNL     1      51.104   1.336  16.984  0.00  0.00    +0.000 N 
ATOM     17  H   UNL     1      50.818   0.365  16.953  0.00  0.00    +0.000 HD
ENDBRANCH  11  12
ENDBRANCH   8  11
ENDBRANCH   5   8
ENDBRANCH   1   2
BRANCH   1  19
ATOM     18  C   UNL     1      46.417   8.887  12.867  0.00  0.00    +0.000 C 
ATOM     19  N   UNL     1      46.323   7.561  12.268  0.00  0.00    +0.000 N 
ATOM     20  C   UNL     1      45.232   7.352  11.404  0.00  0.00    +0.000 C 
ATOM     21  O   UNL     1      44.409   8.242  11.197  0.00  0.00    +0.000 OA
BRANCH  20  22
ATOM     22  C   UNL     1      45.051   6.038  10.767  0.00  0.00    +0.000 A 
ATOM     23  C   UNL     1      45.637   5.654   9.571  0.00  0.00    +0.000 A 
ATOM     24  S   UNL     1      45.288   4.044   9.124  0.00  0.00    +0.000 S 
ATOM     25  C   UNL     1      44.472   3.759  10.588  0.00  0.00    +0.000 A 
ATOM     26  N   UNL     1      44.009   2.520  10.904  0.00  0.00    +0.000 NA
ATOM     27  C   UNL     1      43.475   2.439  12.078  0.00  0.00    +0.000 A 
ATOM     28  N   UNL     1      43.325   3.494  12.944  0.00  0.00    +0.000 N 
ATOM     29  C   UNL     1      43.649   4.789  12.607  0.00  0.00    +0.000 A 
ATOM     30  O   UNL     1      43.268   5.733  13.292  0.00  0.00    +0.000 OA
ATOM     31  C   UNL     1      44.375   4.906  11.355  0.00  0.00    +0.000 A 
ATOM     32  H   UNL     1      42.829   3.381  13.817  0.00  0.00    +0.000 HD
ENDBRANCH  20  22
ENDBRANCH   1  19
TORSDOF 7
ENDMDL
MODEL 3
REMARK VINA RESULT:    -7.344      2.025      2.917
REMARK INTER + INTRA:         -11.351
REMARK INTER:                  -9.672
REMARK INTRA:                  -1.679
REMARK UNBOUND:                -1.217
REMARK  Name = 
REMARK  8 active torsions:
REMARK  status: ('A' for Active; 'I' for Inactive)
REMARK    1  A    between atoms: C_1  and  N_2
REMARK    2  A    between atoms: N_2  and  C_3
REMARK    3  A    between atoms: C_3  and  C_4
REMARK    4  A    between atoms: C_7  and  C_8
REMARK    5  A    between atoms: C_8  and  O_9
REMARK    6  A    between atoms: C_8  and  C_10
REMARK    7  A    between atoms: C_10  and  C_11
REMARK    8  A    between atoms: C_18  and  C_20
REMARK                            x       y       z     vdW  Elec       q    Type
REMARK                         _______ _______ _______ _____ _____    ______ ____
ROOT
ATOM      1  C   UNL     1      46.776   6.265  12.047  0.00  0.00    +0.000 C 
ENDROOT
BRANCH   1   2
ATOM      2  C   UNL     1      47.212   5.920  13.444  0.00  0.00    +0.000 A 
ATOM      3  C   UNL     1      46.730   4.765  14.074  0.00  0.00    +0.000 A 
ATOM      4  C   UNL     1      47.176   4.416  15.348  0.00  0.00    +0.000 A 
ATOM      5  C   UNL     1      48.116   5.213  16.017  0.00  0.00    +0.000 A 
ATOM      6  C   UNL     1      48.574   6.383  15.392  0.00  0.00    +0.000 A 
ATOM      7  C   UNL     1      48.127   6.734  14.119  0.00  0.00    +0.000 A 
BRANCH   5   8
ATOM      8  C   UNL     1      48.588   4.809  17.401  0.00  0.00    +0.000 C 
BRANCH   8   9
ATOM      9  O   UNL     1      49.668   5.657  17.813  0.00  0.00    +0.000 OA
ATOM     10  H   UNL     1      50.352   5.099  18.219  0.00  0.00    +0.000 HD
ENDBRANCH   8   9
BRANCH   8  11
ATOM     11  C   UNL     1      47.494   4.892  18.463  0.00  0.00    +0.000 C 
BRANCH  11  12
ATOM     12  C   UNL     1      47.553   6.188  19.219  0.00  0.00    +0.000 C 
ATOM     13  N   UNL     1      48.056   6.261  20.425  0.00  0.00    +0.000 NA
ATOM     14  C   UNL     1      47.935   7.710  20.771  0.00  0.00    +0.000 C 
ATOM     15  C   UNL     1      47.672   8.442  19.450  0.00  0.00    +0.000 C 
ATOM     16  N   UNL     1      47.135   7.366  18.653  0.00  0.00    +0.000 N 
ATOM     17  H   UNL     1      47.153   7.456  17.645  0.00  0.00    +0.000 HD
ENDBRANCH  11  12
ENDBRANCH   8  11
ENDBRANCH   5   8
ENDBRANCH   1   2
BRANCH   1  19
ATOM     18  C   UNL     1      45.584   8.501  11.970  0.00  0.00    +0.000 C 
ATOM     19  N   UNL     1      45.549   7.046  11.878  0.00  0.00    +0.000 N 
ATOM     20  C   UNL     1      44.342   6.488  11.417  0.00  0.00    +0.000 C 
ATOM     21  O   UNL     1      43.381   7.201  11.135  0.00  0.00    +0.000 OA
BRANCH  20  22
ATOM     22  C   UNL     1      44.213   5.026  11.307  0.00  0.00    +0.000 A 
ATOM     23  C   UNL     1      43.508   4.226  12.193  0.00  0.00    +0.000 A 
ATOM     24  S   UNL     1      43.490   2.575  11.760  0.00  0.00    +0.000 S 
ATOM     25  C   UNL     1      44.290   2.897  10.295  0.00  0.00    +0.000 A 
ATOM     26  N   UNL     1      44.495   1.915   9.377  0.00  0.00    +0.000 NA
ATOM     27  C   UNL     1      45.050   2.322   8.283  0.00  0.00    +0.000 A 
ATOM     28  N   UNL     1      45.457   3.611   8.045  0.00  0.00    +0.000 N 
ATOM     29  C   UNL     1      45.399   4.601   8.999  0.00  0.00    +0.000 A 
ATOM     30  O   UNL     1      46.000   5.660   8.846  0.00  0.00    +0.000 OA
ATOM     31  C   UNL     1      44.661   4.225  10.191  0.00  0.00    +0.000 A 
ATOM     32  H   UNL     1      45.955   3.848   7.198  0.00  0.00    +0.000 HD
ENDBRANCH  20  22
ENDBRANCH   1  19
TORSDOF 7
ENDMDL
MODEL 4
REMARK VINA RESULT:    -7.159      2.422      7.905
REMARK INTER + INTRA:         -11.096
REMARK INTER:                 -10.047
REMARK INTRA:                  -1.049
REMARK UNBOUND:                -1.217
REMARK  Name = 
REMARK  8 active torsions:
REMARK  status: ('A' for Active; 'I' for Inactive)
REMARK    1  A    between atoms: C_1  and  N_2
REMARK    2  A    between atoms: N_2  and  C_3
REMARK    3  A    between atoms: C_3  and  C_4
REMARK    4  A    between atoms: C_7  and  C_8
REMARK    5  A    between atoms: C_8  and  O_9
REMARK    6  A    between atoms: C_8  and  C_10
REMARK    7  A    between atoms: C_10  and  C_11
REMARK    8  A    between atoms: C_18  and  C_20
REMARK                            x       y       z     vdW  Elec       q    Type
REMARK                         _______ _______ _______ _____ _____    ______ ____
ROOT
ATOM      1  C   UNL     1      48.800   6.609  14.274  0.00  0.00    +0.000 C 
ENDROOT
BRANCH   1   2
ATOM      2  C   UNL     1      47.455   6.159  13.779  0.00  0.00    +0.000 A 
ATOM      3  C   UNL     1      47.079   4.812  13.867  0.00  0.00    +0.000 A 
ATOM      4  C   UNL     1      45.811   4.402  13.459  0.00  0.00    +0.000 A 
ATOM      5  C   UNL     1      44.891   5.332  12.953  0.00  0.00    +0.000 A 
ATOM      6  C   UNL     1      45.283   6.674  12.841  0.00  0.00    +0.000 A 
ATOM      7  C   UNL     1      46.552   7.085  13.248  0.00  0.00    +0.000 A 
BRANCH   5   8
ATOM      8  C   UNL     1      43.516   4.861  12.518  0.00  0.00    +0.000 C 
BRANCH   8   9
ATOM      9  O   UNL     1      42.510   5.493  13.320  0.00  0.00    +0.000 OA
ATOM     10  H   UNL     1      41.874   5.922  12.724  0.00  0.00    +0.000 HD
ENDBRANCH   8   9
BRANCH   8  11
ATOM     11  C   UNL     1      43.207   5.163  11.053  0.00  0.00    +0.000 C 
BRANCH  11  12
ATOM     12  C   UNL     1      43.948   4.239  10.129  0.00  0.00    +0.000 C 
ATOM     13  N   UNL     1      43.863   2.938  10.241  0.00  0.00    +0.000 NA
ATOM     14  C   UNL     1      44.721   2.431   9.128  0.00  0.00    +0.000 C 
ATOM     15  C   UNL     1      44.943   3.621   8.187  0.00  0.00    +0.000 C 
ATOM     16  N   UNL     1      44.699   4.721   9.088  0.00  0.00    +0.000 N 
ATOM     17  H   UNL     1      44.466   5.624   8.696  0.00  0.00    +0.000 HD
ENDBRANCH  11  12
ENDBRANCH   8  11
ENDBRANCH   5   8
ENDBRANCH   1   2
BRANCH   1  19
ATOM     18  C   UNL     1      48.869   9.017  15.064  0.00  0.00    +0.000 C 
ATOM     19  N   UNL     1      48.845   7.590  15.361  0.00  0.00    +0.000 N 
ATOM     20  C   UNL     1      48.656   7.246  16.713  0.00  0.00    +0.000 C 
ATOM     21  O   UNL     1      48.541   8.113  17.577  0.00  0.00    +0.000 OA
BRANCH  20  22
ATOM     22  C   UNL     1      48.633   5.828  17.105  0.00  0.00    +0.000 A 
ATOM     23  C   UNL     1      47.491   5.044  17.164  0.00  0.00    +0.000 A 
ATOM     24  S   UNL     1      47.796   3.420  17.590  0.00  0.00    +0.000 S 
ATOM     25  C   UNL     1      49.477   3.673  17.557  0.00  0.00    +0.000 A 
ATOM     26  N   UNL     1      50.346   2.641  17.728  0.00  0.00    +0.000 NA
ATOM     27  C   UNL     1      51.590   2.972  17.607  0.00  0.00    +0.000 A 
ATOM     28  N   UNL     1      52.041   4.247  17.373  0.00  0.00    +0.000 N 
ATOM     29  C   UNL     1      51.205   5.340  17.337  0.00  0.00    +0.000 A 
ATOM     30  O   UNL     1      51.657   6.480  17.385  0.00  0.00    +0.000 OA
ATOM     31  C   UNL     1      49.794   5.000  17.333  0.00  0.00    +0.000 A 
ATOM     32  H   UNL     1      53.030   4.452  17.366  0.00  0.00    +0.000 HD
ENDBRANCH  20  22
ENDBRANCH   1  19
TORSDOF 7
ENDMDL
MODEL 5
REMARK VINA RESULT:    -7.149      3.326      8.000
REMARK INTER + INTRA:         -11.082
REMARK INTER:                  -9.791
REMARK INTRA:                  -1.291
REMARK UNBOUND:                -1.217
REMARK  Name = 
REMARK  8 active torsions:
REMARK  status: ('A' for Active; 'I' for Inactive)
REMARK    1  A    between atoms: C_1  and  N_2
REMARK    2  A    between atoms: N_2  and  C_3
REMARK    3  A    between atoms: C_3  and  C_4
REMARK    4  A    between atoms: C_7  and  C_8
REMARK    5  A    between atoms: C_8  and  O_9
REMARK    6  A    between atoms: C_8  and  C_10
REMARK    7  A    between atoms: C_10  and  C_11
REMARK    8  A    between atoms: C_18  and  C_20
REMARK                            x       y       z     vdW  Elec       q    Type
REMARK                         _______ _______ _______ _____ _____    ______ ____
ROOT
ATOM      1  C   UNL     1      47.566   7.692  13.772  0.00  0.00    +0.000 C 
ENDROOT
BRANCH   1   2
ATOM      2  C   UNL     1      46.816   6.494  13.263  0.00  0.00    +0.000 A 
ATOM      3  C   UNL     1      45.932   6.615  12.182  0.00  0.00    +0.000 A 
ATOM      4  C   UNL     1      45.278   5.494  11.674  0.00  0.00    +0.000 A 
ATOM      5  C   UNL     1      45.495   4.228  12.236  0.00  0.00    +0.000 A 
ATOM      6  C   UNL     1      46.358   4.118  13.335  0.00  0.00    +0.000 A 
ATOM      7  C   UNL     1      47.013   5.238  13.846  0.00  0.00    +0.000 A 
BRANCH   5   8
ATOM      8  C   UNL     1      44.772   3.023  11.663  0.00  0.00    +0.000 C 
BRANCH   8   9
ATOM      9  O   UNL     1      43.815   2.533  12.611  0.00  0.00    +0.000 OA
ATOM     10  H   UNL     1      44.263   1.895  13.190  0.00  0.00    +0.000 HD
ENDBRANCH   8   9
BRANCH   8  11
ATOM     11  C   UNL     1      44.032   3.323  10.361  0.00  0.00    +0.000 C 
BRANCH  11  12
ATOM     12  C   UNL     1      44.856   2.963   9.159  0.00  0.00    +0.000 C 
ATOM     13  N   UNL     1      45.191   3.854   8.261  0.00  0.00    +0.000 NA
ATOM     14  C   UNL     1      46.009   3.077   7.281  0.00  0.00    +0.000 C 
ATOM     15  C   UNL     1      46.386   1.769   7.986  0.00  0.00    +0.000 C 
ATOM     16  N   UNL     1      45.345   1.694   8.981  0.00  0.00    +0.000 N 
ATOM     17  H   UNL     1      45.495   1.112   9.794  0.00  0.00    +0.000 HD
ENDBRANCH  11  12
ENDBRANCH   8  11
ENDBRANCH   5   8
ENDBRANCH   1   2
BRANCH   1  19
ATOM     18  C   UNL     1      49.735   7.383  12.496  0.00  0.00    +0.000 C 
ATOM     19  N   UNL     1      49.030   7.657  13.743  0.00  0.00    +0.000 N 
ATOM     20  C   UNL     1      49.830   8.083  14.821  0.00  0.00    +0.000 C 
ATOM     21  O   UNL     1      51.048   8.190  14.701  0.00  0.00    +0.000 OA
BRANCH  20  22
ATOM     22  C   UNL     1      49.203   8.368  16.121  0.00  0.00    +0.000 A 
ATOM     23  C   UNL     1      48.822   9.629  16.554  0.00  0.00    +0.000 A 
ATOM     24  S   UNL     1      48.062   9.628  18.082  0.00  0.00    +0.000 S 
ATOM     25  C   UNL     1      48.076   7.929  18.146  0.00  0.00    +0.000 A 
ATOM     26  N   UNL     1      47.468   7.259  19.161  0.00  0.00    +0.000 NA
ATOM     27  C   UNL     1      47.498   5.973  19.039  0.00  0.00    +0.000 A 
ATOM     28  N   UNL     1      48.120   5.299  18.017  0.00  0.00    +0.000 N 
ATOM     29  C   UNL     1      48.867   5.932  17.050  0.00  0.00    +0.000 A 
ATOM     30  O   UNL     1      49.613   5.295  16.312  0.00  0.00    +0.000 OA
ATOM     31  C   UNL     1      48.748   7.379  17.070  0.00  0.00    +0.000 A 
ATOM     32  H   UNL     1      48.174   4.290  18.020  0.00  0.00    +0.000 HD
ENDBRANCH  20  22
ENDBRANCH   1  19
TORSDOF 7
ENDMDL
MODEL 6
REMARK VINA RESULT:    -7.012      3.217      8.308
REMARK INTER + INTRA:         -10.894
REMARK INTER:                  -9.634
REMARK INTRA:                  -1.260
REMARK UNBOUND:                -1.217
REMARK  Name = 
REMARK  8 active torsions:
REMARK  status: ('A' for Active; 'I' for Inactive)
REMARK    1  A    between atoms: C_1  and  N_2
REMARK    2  A    between atoms: N_2  and  C_3
REMARK    3  A    between atoms: C_3  and  C_4
REMARK    4  A    between atoms: C_7  and  C_8
REMARK    5  A    between atoms: C_8  and  O_9
REMARK    6  A    between atoms: C_8  and  C_10
REMARK    7  A    between atoms: C_10  and  C_11
REMARK    8  A    between atoms: C_18  and  C_20
REMARK                            x       y       z     vdW  Elec       q    Type
REMARK                         _______ _______ _______ _____ _____    ______ ____
ROOT
ATOM      1  C   UNL     1      47.487   7.387  13.906  0.00  0.00    +0.000 C 
ENDROOT
BRANCH   1   2
ATOM      2  C   UNL     1      46.711   6.403  13.075  0.00  0.00    +0.000 A 
ATOM      3  C   UNL     1      46.347   5.158  13.605  0.00  0.00    +0.000 A 
ATOM      4  C   UNL     1      45.581   4.268  12.854  0.00  0.00    +0.000 A 
ATOM      5  C   UNL     1      45.162   4.604  11.559  0.00  0.00    +0.000 A 
ATOM      6  C   UNL     1      45.554   5.841  11.025  0.00  0.00    +0.000 A 
ATOM      7  C   UNL     1      46.322   6.732  11.773  0.00  0.00    +0.000 A 
BRANCH   5   8
ATOM      8  C   UNL     1      44.327   3.618  10.765  0.00  0.00    +0.000 C 
BRANCH   8   9
ATOM      9  O   UNL     1      43.022   3.506  11.348  0.00  0.00    +0.000 OA
ATOM     10  H   UNL     1      42.693   2.608  11.181  0.00  0.00    +0.000 HD
ENDBRANCH   8   9
BRANCH   8  11
ATOM     11  C   UNL     1      44.154   4.012   9.299  0.00  0.00    +0.000 C 
BRANCH  11  12
ATOM     12  C   UNL     1      45.154   3.321   8.419  0.00  0.00    +0.000 C 
ATOM     13  N   UNL     1      45.930   3.987   7.601  0.00  0.00    +0.000 NA
ATOM     14  C   UNL     1      46.761   2.925   6.959  0.00  0.00    +0.000 C 
ATOM     15  C   UNL     1      46.596   1.673   7.827  0.00  0.00    +0.000 C 
ATOM     16  N   UNL     1      45.342   1.964   8.476  0.00  0.00    +0.000 N 
ATOM     17  H   UNL     1      45.117   1.477   9.335  0.00  0.00    +0.000 HD
ENDBRANCH  11  12
ENDBRANCH   8  11
ENDBRANCH   5   8
ENDBRANCH   1   2
BRANCH   1  19
ATOM     18  C   UNL     1      49.780   7.640  12.854  0.00  0.00    +0.000 C 
ATOM     19  N   UNL     1      48.942   7.238  13.978  0.00  0.00    +0.000 N 
ATOM     20  C   UNL     1      49.622   6.916  15.167  0.00  0.00    +0.000 C 
ATOM     21  O   UNL     1      50.849   6.957  15.226  0.00  0.00    +0.000 OA
BRANCH  20  22
ATOM     22  C   UNL     1      48.856   6.486  16.348  0.00  0.00    +0.000 A 
ATOM     23  C   UNL     1      48.552   5.169  16.656  0.00  0.00    +0.000 A 
ATOM     24  S   UNL     1      47.706   4.986  18.127  0.00  0.00    +0.000 S 
ATOM     25  C   UNL     1      47.854   6.644  18.477  0.00  0.00    +0.000 A 
ATOM     26  N   UNL     1      47.431   7.150  19.666  0.00  0.00    +0.000 NA
ATOM     27  C   UNL     1      47.673   8.410  19.820  0.00  0.00    +0.000 A 
ATOM     28  N   UNL     1      48.260   9.215  18.875  0.00  0.00    +0.000 N 
ATOM     29  C   UNL     1      48.570   8.776  17.609  0.00  0.00    +0.000 A 
ATOM     30  O   UNL     1      48.849   9.570  16.716  0.00  0.00    +0.000 OA
ATOM     31  C   UNL     1      48.442   7.339  17.437  0.00  0.00    +0.000 A 
ATOM     32  H   UNL     1      48.351  10.210  19.028  0.00  0.00    +0.000 HD
ENDBRANCH  20  22
ENDBRANCH   1  19
TORSDOF 7
ENDMDL
MODEL 7
REMARK VINA RESULT:    -6.883      3.900      5.054
REMARK INTER + INTRA:         -10.715
REMARK INTER:                  -9.108
REMARK INTRA:                  -1.607
REMARK UNBOUND:                -1.217
REMARK  Name = 
REMARK  8 active torsions:
REMARK  status: ('A' for Active; 'I' for Inactive)
REMARK    1  A    between atoms: C_1  and  N_2
REMARK    2  A    between atoms: N_2  and  C_3
REMARK    3  A    between atoms: C_3  and  C_4
REMARK    4  A    between atoms: C_7  and  C_8
REMARK    5  A    between atoms: C_8  and  O_9
REMARK    6  A    between atoms: C_8  and  C_10
REMARK    7  A    between atoms: C_10  and  C_11
REMARK    8  A    between atoms: C_18  and  C_20
REMARK                            x       y       z     vdW  Elec       q    Type
REMARK                         _______ _______ _______ _____ _____    ______ ____
ROOT
ATOM      1  C   UNL     1      46.370   6.373  12.953  0.00  0.00    +0.000 C 
ENDROOT
BRANCH   1   2
ATOM      2  C   UNL     1      47.767   6.909  12.816  0.00  0.00    +0.000 A 
ATOM      3  C   UNL     1      48.266   7.281  11.561  0.00  0.00    +0.000 A 
ATOM      4  C   UNL     1      49.542   7.829  11.441  0.00  0.00    +0.000 A 
ATOM      5  C   UNL     1      50.345   8.018  12.575  0.00  0.00    +0.000 A 
ATOM      6  C   UNL     1      49.851   7.617  13.824  0.00  0.00    +0.000 A 
ATOM      7  C   UNL     1      48.576   7.067  13.946  0.00  0.00    +0.000 A 
BRANCH   5   8
ATOM      8  C   UNL     1      51.729   8.619  12.417  0.00  0.00    +0.000 C 
BRANCH   8   9
ATOM      9  O   UNL     1      52.705   7.760  13.020  0.00  0.00    +0.000 OA
ATOM     10  H   UNL     1      52.857   7.009  12.423  0.00  0.00    +0.000 HD
ENDBRANCH   8   9
BRANCH   8  11
ATOM     11  C   UNL     1      52.133   8.839  10.961  0.00  0.00    +0.000 C 
BRANCH  11  12
ATOM     12  C   UNL     1      53.141   7.823  10.506  0.00  0.00    +0.000 C 
ATOM     13  N   UNL     1      54.408   8.120  10.373  0.00  0.00    +0.000 NA
ATOM     14  C   UNL     1      55.029   6.833   9.935  0.00  0.00    +0.000 C 
ATOM     15  C   UNL     1      53.998   5.740  10.239  0.00  0.00    +0.000 C 
ATOM     16  N   UNL     1      52.786   6.519  10.269  0.00  0.00    +0.000 N 
ATOM     17  H   UNL     1      51.979   6.140  10.747  0.00  0.00    +0.000 HD
ENDBRANCH  11  12
ENDBRANCH   8  11
ENDBRANCH   5   8
ENDBRANCH   1   2
BRANCH   1  19
ATOM     18  C   UNL     1      45.288   8.627  12.535  0.00  0.00    +0.000 C 
ATOM     19  N   UNL     1      45.265   7.174  12.421  0.00  0.00    +0.000 N 
ATOM     20  C   UNL     1      44.252   6.637  11.605  0.00  0.00    +0.000 C 
ATOM     21  O   UNL     1      43.434   7.366  11.048  0.00  0.00    +0.000 OA
BRANCH  20  22
ATOM     22  C   UNL     1      44.145   5.178  11.445  0.00  0.00    +0.000 A 
ATOM     23  C   UNL     1      43.378   4.350  12.249  0.00  0.00    +0.000 A 
ATOM     24  S   UNL     1      43.408   2.711  11.772  0.00  0.00    +0.000 S 
ATOM     25  C   UNL     1      44.321   3.078  10.385  0.00  0.00    +0.000 A 
ATOM     26  N   UNL     1      44.608   2.124   9.461  0.00  0.00    +0.000 NA
ATOM     27  C   UNL     1      45.246   2.564   8.427  0.00  0.00    +0.000 A 
ATOM     28  N   UNL     1      45.660   3.862   8.257  0.00  0.00    +0.000 N 
ATOM     29  C   UNL     1      45.517   4.824   9.230  0.00  0.00    +0.000 A 
ATOM     30  O   UNL     1      46.119   5.891   9.155  0.00  0.00    +0.000 OA
ATOM     31  C   UNL     1      44.688   4.411  10.348  0.00  0.00    +0.000 A 
ATOM     32  H   UNL     1      46.223   4.125   7.461  0.00  0.00    +0.000 HD
ENDBRANCH  20  22
ENDBRANCH   1  19
TORSDOF 7
ENDMDL
MODEL 8
REMARK VINA RESULT:    -6.806      1.834      2.268
REMARK INTER + INTRA:         -10.610
REMARK INTER:                  -9.062
REMARK INTRA:                  -1.547
REMARK UNBOUND:                -1.217
REMARK  Name = 
REMARK  8 active torsions:
REMARK  status: ('A' for Active; 'I' for Inactive)
REMARK    1  A    between atoms: C_1  and  N_2
REMARK    2  A    between atoms: N_2  and  C_3
REMARK    3  A    between atoms: C_3  and  C_4
REMARK    4  A    between atoms: C_7  and  C_8
REMARK    5  A    between atoms: C_8  and  O_9
REMARK    6  A    between atoms: C_8  and  C_10
REMARK    7  A    between atoms: C_10  and  C_11
REMARK    8  A    between atoms: C_18  and  C_20
REMARK                            x       y       z     vdW  Elec       q    Type
REMARK                         _______ _______ _______ _____ _____    ______ ____
ROOT
ATOM      1  C   UNL     1      47.361   5.786  13.075  0.00  0.00    +0.000 C 
ENDROOT
BRANCH   1   2
ATOM      2  C   UNL     1      47.598   5.495  14.530  0.00  0.00    +0.000 A 
ATOM      3  C   UNL     1      46.989   4.391  15.142  0.00  0.00    +0.000 A 
ATOM      4  C   UNL     1      47.252   4.088  16.477  0.00  0.00    +0.000 A 
ATOM      5  C   UNL     1      48.130   4.883  17.228  0.00  0.00    +0.000 A 
ATOM      6  C   UNL     1      48.714   6.003  16.617  0.00  0.00    +0.000 A 
ATOM      7  C   UNL     1      48.451   6.308  15.283  0.00  0.00    +0.000 A 
BRANCH   5   8
ATOM      8  C   UNL     1      48.401   4.531  18.678  0.00  0.00    +0.000 C 
BRANCH   8   9
ATOM      9  O   UNL     1      49.463   3.571  18.755  0.00  0.00    +0.000 OA
ATOM     10  H   UNL     1      49.220   2.807  18.206  0.00  0.00    +0.000 HD
ENDBRANCH   8   9
BRANCH   8  11
ATOM     11  C   UNL     1      48.794   5.734  19.532  0.00  0.00    +0.000 C 
BRANCH  11  12
ATOM     12  C   UNL     1      50.221   5.648  19.988  0.00  0.00    +0.000 C 
ATOM     13  N   UNL     1      50.556   5.036  21.095  0.00  0.00    +0.000 NA
ATOM     14  C   UNL     1      52.043   5.172  21.139  0.00  0.00    +0.000 C 
ATOM     15  C   UNL     1      52.474   5.584  19.726  0.00  0.00    +0.000 C 
ATOM     16  N   UNL     1      51.246   6.156  19.232  0.00  0.00    +0.000 N 
ATOM     17  H   UNL     1      51.119   6.237  18.231  0.00  0.00    +0.000 HD
ENDBRANCH  11  12
ENDBRANCH   8  11
ENDBRANCH   5   8
ENDBRANCH   1   2
BRANCH   1  19
ATOM     18  C   UNL     1      46.777   8.246  12.893  0.00  0.00    +0.000 C 
ATOM     19  N   UNL     1      46.411   6.845  12.725  0.00  0.00    +0.000 N 
ATOM     20  C   UNL     1      45.213   6.601  12.029  0.00  0.00    +0.000 C 
ATOM     21  O   UNL     1      44.521   7.528  11.613  0.00  0.00    +0.000 OA
BRANCH  20  22
ATOM     22  C   UNL     1      44.760   5.215  11.826  0.00  0.00    +0.000 A 
ATOM     23  C   UNL     1      44.038   4.478  12.751  0.00  0.00    +0.000 A 
ATOM     24  S   UNL     1      43.603   2.922  12.199  0.00  0.00    +0.000 S 
ATOM     25  C   UNL     1      44.230   3.240  10.651  0.00  0.00    +0.000 A 
ATOM     26  N   UNL     1      44.084   2.346   9.638  0.00  0.00    +0.000 NA
ATOM     27  C   UNL     1      44.547   2.754   8.502  0.00  0.00    +0.000 A 
ATOM     28  N   UNL     1      45.181   3.955   8.302  0.00  0.00    +0.000 N 
ATOM     29  C   UNL     1      45.476   4.824   9.327  0.00  0.00    +0.000 A 
ATOM     30  O   UNL     1      46.260   5.753   9.160  0.00  0.00    +0.000 OA
ATOM     31  C   UNL     1      44.857   4.471  10.593  0.00  0.00    +0.000 A 
ATOM     32  H   UNL     1      45.589   4.181   7.405  0.00  0.00    +0.000 HD
ENDBRANCH  20  22
ENDBRANCH   1  19
TORSDOF 7
ENDMDL
MODEL 9
REMARK VINA RESULT:    -6.689      2.004      2.826
REMARK INTER + INTRA:         -10.447
REMARK INTER:                  -8.987
REMARK INTRA:                  -1.460
REMARK UNBOUND:                -1.217
REMARK  Name = 
REMARK  8 active torsions:
REMARK  status: ('A' for Active; 'I' for Inactive)
REMARK    1  A    between atoms: C_1  and  N_2
REMARK    2  A    between atoms: N_2  and  C_3
REMARK    3  A    between atoms: C_3  and  C_4
REMARK    4  A    between atoms: C_7  and  C_8
REMARK    5  A    between atoms: C_8  and  O_9
REMARK    6  A    between atoms: C_8  and  C_10
REMARK    7  A    between atoms: C_10  and  C_11
REMARK    8  A    between atoms: C_18  and  C_20
REMARK                            x       y       z     vdW  Elec       q    Type
REMARK                         _______ _______ _______ _____ _____    ______ ____
ROOT
ATOM      1  C   UNL     1      47.304   6.119  12.757  0.00  0.00    +0.000 C 
ENDROOT
BRANCH   1   2
ATOM      2  C   UNL     1      47.522   5.657  14.171  0.00  0.00    +0.000 A 
ATOM      3  C   UNL     1      46.880   4.507  14.649  0.00  0.00    +0.000 A 
ATOM      4  C   UNL     1      47.124   4.047  15.942  0.00  0.00    +0.000 A 
ATOM      5  C   UNL     1      48.017   4.727  16.783  0.00  0.00    +0.000 A 
ATOM      6  C   UNL     1      48.635   5.893  16.308  0.00  0.00    +0.000 A 
ATOM      7  C   UNL     1      48.390   6.356  15.015  0.00  0.00    +0.000 A 
BRANCH   5   8
ATOM      8  C   UNL     1      48.268   4.204  18.185  0.00  0.00    +0.000 C 
BRANCH   8   9
ATOM      9  O   UNL     1      49.361   3.277  18.170  0.00  0.00    +0.000 OA
ATOM     10  H   UNL     1      50.060   3.643  17.603  0.00  0.00    +0.000 HD
ENDBRANCH   8   9
BRANCH   8  11
ATOM     11  C   UNL     1      48.598   5.303  19.193  0.00  0.00    +0.000 C 
BRANCH  11  12
ATOM     12  C   UNL     1      50.008   5.190  19.694  0.00  0.00    +0.000 C 
ATOM     13  N   UNL     1      50.278   4.812  20.918  0.00  0.00    +0.000 NA
ATOM     14  C   UNL     1      51.771   4.817  20.968  0.00  0.00    +0.000 C 
ATOM     15  C   UNL     1      52.246   4.862  19.511  0.00  0.00    +0.000 C 
ATOM     16  N   UNL     1      51.081   5.420  18.870  0.00  0.00    +0.000 N 
ATOM     17  H   UNL     1      50.967   5.285  17.873  0.00  0.00    +0.000 HD
ENDBRANCH  11  12
ENDBRANCH   8  11
ENDBRANCH   5   8
ENDBRANCH   1   2
BRANCH   1  19
ATOM     18  C   UNL     1      46.571   8.506  13.199  0.00  0.00    +0.000 C 
ATOM     19  N   UNL     1      46.374   7.228  12.526  0.00  0.00    +0.000 N 
ATOM     20  C   UNL     1      45.395   7.209  11.515  0.00  0.00    +0.000 C 
ATOM     21  O   UNL     1      44.743   8.216  11.247  0.00  0.00    +0.000 OA
BRANCH  20  22
ATOM     22  C   UNL     1      45.120   5.956  10.793  0.00  0.00    +0.000 A 
ATOM     23  C   UNL     1      45.639   5.632   9.550  0.00  0.00    +0.000 A 
ATOM     24  S   UNL     1      45.188   4.079   9.003  0.00  0.00    +0.000 S 
ATOM     25  C   UNL     1      44.414   3.728  10.476  0.00  0.00    +0.000 A 
ATOM     26  N   UNL     1      43.898   2.495  10.721  0.00  0.00    +0.000 NA
ATOM     27  C   UNL     1      43.405   2.355  11.907  0.00  0.00    +0.000 A 
ATOM     28  N   UNL     1      43.344   3.349  12.852  0.00  0.00    +0.000 N 
ATOM     29  C   UNL     1      43.724   4.647  12.596  0.00  0.00    +0.000 A 
ATOM     30  O   UNL     1      43.421   5.555  13.363  0.00  0.00    +0.000 OA
ATOM     31  C   UNL     1      44.407   4.819  11.326  0.00  0.00    +0.000 A 
ATOM     32  H   UNL     1      42.876   3.196  13.734  0.00  0.00    +0.000 HD
ENDBRANCH  20  22
ENDBRANCH   1  19
TORSDOF 7
ENDMDL
