MODEL 1
REMARK VINA RESULT:    -8.322      0.000      0.000
REMARK INTER + INTRA:         -12.346
REMARK INTER:                 -11.241
REMARK INTRA:                  -1.105
REMARK UNBOUND:                -1.105
REMARK  Name = 
REMARK  6 active torsions:
REMARK  status: ('A' for Active; 'I' for Inactive)
REMARK    1  A    between atoms: C_2  and  C_20
REMARK    2  A    between atoms: N_3  and  C_4
REMARK    3  A    between atoms: C_4  and  C_5
REMARK    4  A    between atoms: C_8  and  C_9
REMARK    5  A    between atoms: C_9  and  C_10
REMARK    6  A    between atoms: C_10  and  C_11
REMARK                            x       y       z     vdW  Elec       q    Type
REMARK                         _______ _______ _______ _____ _____    ______ ____
ROOT
ATOM      1  C   UNL     1      47.283   7.746  13.365  0.00  0.00    +0.000 C 
ENDROOT
BRANCH   1   2
ATOM      2  C   UNL     1      46.386   6.876  12.523  0.00  0.00    +0.000 A 
ATOM      3  C   UNL     1      45.276   6.242  13.095  0.00  0.00    +0.000 A 
ATOM      4  C   UNL     1      44.420   5.461  12.313  0.00  0.00    +0.000 A 
ATOM      5  C   UNL     1      44.653   5.294  10.942  0.00  0.00    +0.000 A 
ATOM      6  C   UNL     1      45.784   5.901  10.378  0.00  0.00    +0.000 A 
ATOM      7  C   UNL     1      46.645   6.677  11.161  0.00  0.00    +0.000 A 
BRANCH   5   8
ATOM      8  C   UNL     1      43.738   4.444  10.086  0.00  0.00    +0.000 C 
BRANCH   8   9
ATOM      9  C   UNL     1      44.350   4.077   8.730  0.00  0.00    +0.000 C 
BRANCH   9  10
ATOM     10  C   UNL     1      44.977   2.697   8.740  0.00  0.00    +0.000 C 
ATOM     11  O   UNL     1      44.528   1.766   9.406  0.00  0.00    +0.000 OA
ATOM     12  N   UNL     1      46.080   2.535   7.916  0.00  0.00    +0.000 N 
ATOM     13  C   UNL     1      46.752   3.542   7.117  0.00  0.00    +0.000 C 
ATOM     14  C   UNL     1      47.221   2.754   5.909  0.00  0.00    +0.000 C 
ATOM     15  C   UNL     1      47.606   1.402   6.502  0.00  0.00    +0.000 C 
ATOM     16  C   UNL     1      46.677   1.227   7.702  0.00  0.00    +0.000 C 
ENDBRANCH   9  10
ENDBRANCH   8   9
ENDBRANCH   5   8
ENDBRANCH   1   2
BRANCH   1  19
ATOM     17  O   UNL     1      49.870   7.046  14.215  0.00  0.00    +0.000 OA
ATOM     18  C   UNL     1      48.923   6.841  14.969  0.00  0.00    +0.000 C 
ATOM     19  N   UNL     1      47.628   7.117  14.614  0.00  0.00    +0.000 N 
ATOM     20  H   UNL     1      46.898   7.082  15.319  0.00  0.00    +0.000 HD
BRANCH  18  21
ATOM     21  C   UNL     1      49.121   6.231  16.290  0.00  0.00    +0.000 A 
ATOM     22  C   UNL     1      49.906   6.876  17.237  0.00  0.00    +0.000 A 
ATOM     23  S   UNL     1      50.013   6.043  18.721  0.00  0.00    +0.000 S 
ATOM     24  C   UNL     1      48.984   4.808  18.162  0.00  0.00    +0.000 A 
ATOM     25  N   UNL     1      48.621   3.779  18.975  0.00  0.00    +0.000 NA
ATOM     26  C   UNL     1      47.800   2.940  18.437  0.00  0.00    +0.000 A 
ATOM     27  N   UNL     1      47.326   3.023  17.153  0.00  0.00    +0.000 N 
ATOM     28  C   UNL     1      47.738   3.990  16.268  0.00  0.00    +0.000 A 
ATOM     29  O   UNL     1      47.427   3.942  15.083  0.00  0.00    +0.000 OA
ATOM     30  C   UNL     1      48.601   5.004  16.847  0.00  0.00    +0.000 A 
ATOM     31  H   UNL     1      46.720   2.311  16.778  0.00  0.00    +0.000 HD
ENDBRANCH  18  21
ENDBRANCH   1  19
TORSDOF 6
ENDMDL
MODEL 2
REMARK VINA RESULT:    -7.917      1.937      2.533
REMARK INTER + INTRA:         -11.799
REMARK INTER:                 -10.937
REMARK INTRA:                  -0.862
REMARK UNBOUND:                -1.105
REMARK  Name = 
REMARK  6 active torsions:
REMARK  status: ('A' for Active; 'I' for Inactive)
REMARK    1  A    between atoms: C_2  and  C_20
REMARK    2  A    between atoms: N_3  and  C_4
REMARK    3  A    between atoms: C_4  and  C_5
REMARK    4  A    between atoms: C_8  and  C_9
REMARK    5  A    between atoms: C_9  and  C_10
REMARK    6  A    between atoms: C_10  and  C_11
REMARK                            x       y       z     vdW  Elec       q    Type
REMARK                         _______ _______ _______ _____ _____    ______ ____
ROOT
ATOM      1  C   UNL     1      48.150   6.629  13.714  0.00  0.00    +0.000 C 
ENDROOT
BRANCH   1   2
ATOM      2  C   UNL     1      47.032   6.080  12.867  0.00  0.00    +0.000 A 
ATOM      3  C   UNL     1      46.599   6.774  11.731  0.00  0.00    +0.000 A 
ATOM      4  C   UNL     1      45.584   6.255  10.921  0.00  0.00    +0.000 A 
ATOM      5  C   UNL     1      44.979   5.028  11.228  0.00  0.00    +0.000 A 
ATOM      6  C   UNL     1      45.390   4.352  12.384  0.00  0.00    +0.000 A 
ATOM      7  C   UNL     1      46.400   4.875  13.199  0.00  0.00    +0.000 A 
BRANCH   5   8
ATOM      8  C   UNL     1      43.875   4.459  10.363  0.00  0.00    +0.000 C 
BRANCH   8   9
ATOM      9  C   UNL     1      44.340   4.112   8.944  0.00  0.00    +0.000 C 
BRANCH   9  10
ATOM     10  C   UNL     1      44.977   2.738   8.870  0.00  0.00    +0.000 C 
ATOM     11  O   UNL     1      44.555   1.773   9.505  0.00  0.00    +0.000 OA
ATOM     12  N   UNL     1      46.056   2.624   8.007  0.00  0.00    +0.000 N 
ATOM     13  C   UNL     1      46.696   3.672   7.237  0.00  0.00    +0.000 C 
ATOM     14  C   UNL     1      47.134   2.946   5.979  0.00  0.00    +0.000 C 
ATOM     15  C   UNL     1      47.547   1.571   6.496  0.00  0.00    +0.000 C 
ATOM     16  C   UNL     1      46.655   1.332   7.714  0.00  0.00    +0.000 C 
ENDBRANCH   9  10
ENDBRANCH   8   9
ENDBRANCH   5   8
ENDBRANCH   1   2
BRANCH   1  19
ATOM     17  O   UNL     1      50.199   6.610  15.640  0.00  0.00    +0.000 OA
ATOM     18  C   UNL     1      49.059   6.307  15.983  0.00  0.00    +0.000 C 
ATOM     19  N   UNL     1      48.014   6.253  15.098  0.00  0.00    +0.000 N 
ATOM     20  H   UNL     1      47.067   6.155  15.449  0.00  0.00    +0.000 HD
BRANCH  18  21
ATOM     21  C   UNL     1      48.760   5.927  17.370  0.00  0.00    +0.000 A 
ATOM     22  C   UNL     1      48.942   4.613  17.780  0.00  0.00    +0.000 A 
ATOM     23  S   UNL     1      48.570   4.350  19.423  0.00  0.00    +0.000 S 
ATOM     24  C   UNL     1      48.188   5.993  19.654  0.00  0.00    +0.000 A 
ATOM     25  N   UNL     1      47.826   6.461  20.879  0.00  0.00    +0.000 NA
ATOM     26  C   UNL     1      47.611   7.734  20.920  0.00  0.00    +0.000 A 
ATOM     27  N   UNL     1      47.701   8.577  19.843  0.00  0.00    +0.000 N 
ATOM     28  C   UNL     1      47.970   8.135  18.570  0.00  0.00    +0.000 A 
ATOM     29  O   UNL     1      47.881   8.883  17.603  0.00  0.00    +0.000 OA
ATOM     30  C   UNL     1      48.298   6.722  18.484  0.00  0.00    +0.000 A 
ATOM     31  H   UNL     1      47.477   9.556  19.932  0.00  0.00    +0.000 HD
ENDBRANCH  18  21
ENDBRANCH   1  19
TORSDOF 6
ENDMDL
MODEL 3
REMARK VINA RESULT:    -7.249      2.667      4.348
REMARK INTER + INTRA:         -10.897
REMARK INTER:                  -9.759
REMARK INTRA:                  -1.137
REMARK UNBOUND:                -1.105
REMARK  Name = 
REMARK  6 active torsions:
REMARK  status: ('A' for Active; 'I' for Inactive)
REMARK    1  A    between atoms: C_2  and  C_20
REMARK    2  A    between atoms: N_3  and  C_4
REMARK    3  A    between atoms: C_4  and  C_5
REMARK    4  A    between atoms: C_8  and  C_9
REMARK    5  A    between atoms: C_9  and  C_10
REMARK    6  A    between atoms: C_10  and  C_11
REMARK                            x       y       z     vdW  Elec       q    Type
REMARK                         _______ _______ _______ _____ _____    ______ ____
ROOT
ATOM      1  C   UNL     1      47.530   5.533  14.453  0.00  0.00    +0.000 C 
ENDROOT
BRANCH   1   2
ATOM      2  C   UNL     1      46.587   5.238  13.316  0.00  0.00    +0.000 A 
ATOM      3  C   UNL     1      45.822   4.065  13.317  0.00  0.00    +0.000 A 
ATOM      4  C   UNL     1      44.920   3.801  12.282  0.00  0.00    +0.000 A 
ATOM      5  C   UNL     1      44.761   4.703  11.222  0.00  0.00    +0.000 A 
ATOM      6  C   UNL     1      45.552   5.859  11.204  0.00  0.00    +0.000 A 
ATOM      7  C   UNL     1      46.460   6.121  12.236  0.00  0.00    +0.000 A 
BRANCH   5   8
ATOM      8  C   UNL     1      43.792   4.424  10.092  0.00  0.00    +0.000 C 
BRANCH   8   9
ATOM      9  C   UNL     1      44.490   4.142   8.757  0.00  0.00    +0.000 C 
BRANCH   9  10
ATOM     10  C   UNL     1      45.104   2.756   8.713  0.00  0.00    +0.000 C 
ATOM     11  O   UNL     1      44.669   1.813   9.373  0.00  0.00    +0.000 OA
ATOM     12  N   UNL     1      46.177   2.604   7.849  0.00  0.00    +0.000 N 
ATOM     13  C   UNL     1      46.831   3.622   7.051  0.00  0.00    +0.000 C 
ATOM     14  C   UNL     1      47.251   2.859   5.809  0.00  0.00    +0.000 C 
ATOM     15  C   UNL     1      47.644   1.490   6.357  0.00  0.00    +0.000 C 
ATOM     16  C   UNL     1      46.754   1.295   7.585  0.00  0.00    +0.000 C 
ENDBRANCH   9  10
ENDBRANCH   8   9
ENDBRANCH   5   8
ENDBRANCH   1   2
BRANCH   1  19
ATOM     17  O   UNL     1      49.912   6.320  15.723  0.00  0.00    +0.000 OA
ATOM     18  C   UNL     1      49.396   7.079  14.907  0.00  0.00    +0.000 C 
ATOM     19  N   UNL     1      48.215   6.787  14.275  0.00  0.00    +0.000 N 
ATOM     20  H   UNL     1      47.909   7.363  13.497  0.00  0.00    +0.000 HD
BRANCH  18  21
ATOM     21  C   UNL     1      49.996   8.383  14.599  0.00  0.00    +0.000 A 
ATOM     22  C   UNL     1      50.251   9.285  15.624  0.00  0.00    +0.000 A 
ATOM     23  S   UNL     1      50.969  10.739  15.094  0.00  0.00    +0.000 S 
ATOM     24  C   UNL     1      50.999  10.199  13.481  0.00  0.00    +0.000 A 
ATOM     25  N   UNL     1      51.542  10.965  12.497  0.00  0.00    +0.000 NA
ATOM     26  C   UNL     1      51.540  10.412  11.329  0.00  0.00    +0.000 A 
ATOM     27  N   UNL     1      51.024   9.173  11.052  0.00  0.00    +0.000 N 
ATOM     28  C   UNL     1      50.383   8.405  11.993  0.00  0.00    +0.000 A 
ATOM     29  O   UNL     1      49.788   7.379  11.681  0.00  0.00    +0.000 OA
ATOM     30  C   UNL     1      50.427   8.946  13.340  0.00  0.00    +0.000 A 
ATOM     31  H   UNL     1      51.014   8.816  10.110  0.00  0.00    +0.000 HD
ENDBRANCH  18  21
ENDBRANCH   1  19
TORSDOF 6
ENDMDL
MODEL 4
REMARK VINA RESULT:    -7.233      1.897      2.475
REMARK INTER + INTRA:         -10.875
REMARK INTER:                  -9.591
REMARK INTRA:                  -1.283
REMARK UNBOUND:                -1.105
REMARK  Name = 
REMARK  6 active torsions:
REMARK  status: ('A' for Active; 'I' for Inactive)
REMARK    1  A    between atoms: C_2  and  C_20
REMARK    2  A    between atoms: N_3  and  C_4
REMARK    3  A    between atoms: C_4  and  C_5
REMARK    4  A    between atoms: C_8  and  C_9
REMARK    5  A    between atoms: C_9  and  C_10
REMARK    6  A    between atoms: C_10  and  C_11
REMARK                            x       y       z     vdW  Elec       q    Type
REMARK                         _______ _______ _______ _____ _____    ______ ____
ROOT
ATOM      1  C   UNL     1      49.031   7.376  12.752  0.00  0.00    +0.000 C 
ENDROOT
BRANCH   1   2
ATOM      2  C   UNL     1      47.639   6.799  12.775  0.00  0.00    +0.000 A 
ATOM      3  C   UNL     1      47.443   5.435  13.023  0.00  0.00    +0.000 A 
ATOM      4  C   UNL     1      46.154   4.898  13.080  0.00  0.00    +0.000 A 
ATOM      5  C   UNL     1      45.029   5.712  12.890  0.00  0.00    +0.000 A 
ATOM      6  C   UNL     1      45.228   7.070  12.608  0.00  0.00    +0.000 A 
ATOM      7  C   UNL     1      46.519   7.607  12.544  0.00  0.00    +0.000 A 
BRANCH   5   8
ATOM      8  C   UNL     1      43.628   5.141  12.942  0.00  0.00    +0.000 C 
BRANCH   8   9
ATOM      9  C   UNL     1      43.056   4.822  11.557  0.00  0.00    +0.000 C 
BRANCH   9  10
ATOM     10  C   UNL     1      43.416   3.424  11.097  0.00  0.00    +0.000 C 
ATOM     11  O   UNL     1      42.882   2.414  11.553  0.00  0.00    +0.000 OA
ATOM     12  N   UNL     1      44.370   3.350  10.093  0.00  0.00    +0.000 N 
ATOM     13  C   UNL     1      45.120   4.437   9.495  0.00  0.00    +0.000 C 
ATOM     14  C   UNL     1      45.296   3.974   8.061  0.00  0.00    +0.000 C 
ATOM     15  C   UNL     1      45.492   2.468   8.202  0.00  0.00    +0.000 C 
ATOM     16  C   UNL     1      44.688   2.088   9.445  0.00  0.00    +0.000 C 
ENDBRANCH   9  10
ENDBRANCH   8   9
ENDBRANCH   5   8
ENDBRANCH   1   2
BRANCH   1  19
ATOM     17  O   UNL     1      49.003   8.900  15.114  0.00  0.00    +0.000 OA
ATOM     18  C   UNL     1      49.659   7.862  15.086  0.00  0.00    +0.000 C 
ATOM     19  N   UNL     1      49.756   7.085  13.961  0.00  0.00    +0.000 N 
ATOM     20  H   UNL     1      50.173   6.161  14.026  0.00  0.00    +0.000 HD
BRANCH  18  21
ATOM     21  C   UNL     1      50.430   7.419  16.254  0.00  0.00    +0.000 A 
ATOM     22  C   UNL     1      51.491   8.188  16.713  0.00  0.00    +0.000 A 
ATOM     23  S   UNL     1      52.261   7.541  18.090  0.00  0.00    +0.000 S 
ATOM     24  C   UNL     1      51.180   6.227  18.143  0.00  0.00    +0.000 A 
ATOM     25  N   UNL     1      51.260   5.296  19.132  0.00  0.00    +0.000 NA
ATOM     26  C   UNL     1      50.348   4.382  19.076  0.00  0.00    +0.000 A 
ATOM     27  N   UNL     1      49.379   4.302  18.109  0.00  0.00    +0.000 N 
ATOM     28  C   UNL     1      49.319   5.163  17.041  0.00  0.00    +0.000 A 
ATOM     29  O   UNL     1      48.548   4.968  16.108  0.00  0.00    +0.000 OA
ATOM     30  C   UNL     1      50.273   6.257  17.099  0.00  0.00    +0.000 A 
ATOM     31  H   UNL     1      48.723   3.537  18.097  0.00  0.00    +0.000 HD
ENDBRANCH  18  21
ENDBRANCH   1  19
TORSDOF 6
ENDMDL
MODEL 5
REMARK VINA RESULT:    -7.176      2.439      3.645
REMARK INTER + INTRA:         -10.798
REMARK INTER:                  -9.845
REMARK INTRA:                  -0.953
REMARK UNBOUND:                -1.105
REMARK  Name = 
REMARK  6 active torsions:
REMARK  status: ('A' for Active; 'I' for Inactive)
REMARK    1  A    between atoms: C_2  and  C_20
REMARK    2  A    between atoms: N_3  and  C_4
REMARK    3  A    between atoms: C_4  and  C_5
REMARK    4  A    between atoms: C_8  and  C_9
REMARK    5  A    between atoms: C_9  and  C_10
REMARK    6  A    between atoms: C_10  and  C_11
REMARK                            x       y       z     vdW  Elec       q    Type
REMARK                         _______ _______ _______ _____ _____    ______ ____
ROOT
ATOM      1  C   UNL     1      47.651   4.097  15.498  0.00  0.00    +0.000 C 
ENDROOT
BRANCH   1   2
ATOM      2  C   UNL     1      46.867   4.370  14.241  0.00  0.00    +0.000 A 
ATOM      3  C   UNL     1      46.343   3.310  13.490  0.00  0.00    +0.000 A 
ATOM      4  C   UNL     1      45.586   3.556  12.341  0.00  0.00    +0.000 A 
ATOM      5  C   UNL     1      45.333   4.867  11.915  0.00  0.00    +0.000 A 
ATOM      6  C   UNL     1      45.886   5.926  12.648  0.00  0.00    +0.000 A 
ATOM      7  C   UNL     1      46.651   5.680  13.794  0.00  0.00    +0.000 A 
BRANCH   5   8
ATOM      8  C   UNL     1      44.520   5.146  10.669  0.00  0.00    +0.000 C 
BRANCH   8   9
ATOM      9  C   UNL     1      44.569   4.002   9.650  0.00  0.00    +0.000 C 
BRANCH   9  10
ATOM     10  C   UNL     1      45.636   4.219   8.596  0.00  0.00    +0.000 C 
ATOM     11  O   UNL     1      46.123   5.324   8.358  0.00  0.00    +0.000 OA
ATOM     12  N   UNL     1      46.062   3.079   7.932  0.00  0.00    +0.000 N 
ATOM     13  C   UNL     1      45.553   1.728   8.063  0.00  0.00    +0.000 C 
ATOM     14  C   UNL     1      46.791   0.879   7.843  0.00  0.00    +0.000 C 
ATOM     15  C   UNL     1      47.557   1.652   6.773  0.00  0.00    +0.000 C 
ATOM     16  C   UNL     1      47.192   3.116   7.017  0.00  0.00    +0.000 C 
ENDBRANCH   9  10
ENDBRANCH   8   9
ENDBRANCH   5   8
ENDBRANCH   1   2
BRANCH   1  19
ATOM     17  O   UNL     1      49.823   5.487  16.618  0.00  0.00    +0.000 OA
ATOM     18  C   UNL     1      48.682   5.841  16.904  0.00  0.00    +0.000 C 
ATOM     19  N   UNL     1      47.571   5.191  16.432  0.00  0.00    +0.000 N 
ATOM     20  H   UNL     1      46.655   5.608  16.561  0.00  0.00    +0.000 HD
BRANCH  18  21
ATOM     21  C   UNL     1      48.441   6.960  17.823  0.00  0.00    +0.000 A 
ATOM     22  C   UNL     1      48.365   6.727  19.190  0.00  0.00    +0.000 A 
ATOM     23  S   UNL     1      48.104   8.138  20.112  0.00  0.00    +0.000 S 
ATOM     24  C   UNL     1      48.122   9.116  18.719  0.00  0.00    +0.000 A 
ATOM     25  N   UNL     1      47.994  10.467  18.812  0.00  0.00    +0.000 NA
ATOM     26  C   UNL     1      48.072  11.087  17.682  0.00  0.00    +0.000 A 
ATOM     27  N   UNL     1      48.244  10.479  16.466  0.00  0.00    +0.000 N 
ATOM     28  C   UNL     1      48.282   9.114  16.314  0.00  0.00    +0.000 A 
ATOM     29  O   UNL     1      48.269   8.595  15.203  0.00  0.00    +0.000 OA
ATOM     30  C   UNL     1      48.278   8.372  17.563  0.00  0.00    +0.000 A 
ATOM     31  H   UNL     1      48.253  11.018  15.614  0.00  0.00    +0.000 HD
ENDBRANCH  18  21
ENDBRANCH   1  19
TORSDOF 6
ENDMDL
MODEL 6
REMARK VINA RESULT:    -7.171      2.634      3.421
REMARK INTER + INTRA:         -10.791
REMARK INTER:                  -9.943
REMARK INTRA:                  -0.848
REMARK UNBOUND:                -1.105
REMARK  Name = 
REMARK  6 active torsions:
REMARK  status: ('A' for Active; 'I' for Inactive)
REMARK    1  A    between atoms: C_2  and  C_20
REMARK    2  A    between atoms: N_3  and  C_4
REMARK    3  A    between atoms: C_4  and  C_5
REMARK    4  A    between atoms: C_8  and  C_9
REMARK    5  A    between atoms: C_9  and  C_10
REMARK    6  A    between atoms: C_10  and  C_11
REMARK                            x       y       z     vdW  Elec       q    Type
REMARK                         _______ _______ _______ _____ _____    ______ ____
ROOT
ATOM      1  C   UNL     1      47.824   5.167  14.602  0.00  0.00    +0.000 C 
ENDROOT
BRANCH   1   2
ATOM      2  C   UNL     1      46.783   5.013  13.524  0.00  0.00    +0.000 A 
ATOM      3  C   UNL     1      46.438   6.103  12.714  0.00  0.00    +0.000 A 
ATOM      4  C   UNL     1      45.497   5.960  11.690  0.00  0.00    +0.000 A 
ATOM      5  C   UNL     1      44.878   4.725  11.452  0.00  0.00    +0.000 A 
ATOM      6  C   UNL     1      45.199   3.646  12.285  0.00  0.00    +0.000 A 
ATOM      7  C   UNL     1      46.135   3.790  13.315  0.00  0.00    +0.000 A 
BRANCH   5   8
ATOM      8  C   UNL     1      43.852   4.560  10.350  0.00  0.00    +0.000 C 
BRANCH   8   9
ATOM      9  C   UNL     1      44.479   4.262   8.984  0.00  0.00    +0.000 C 
BRANCH   9  10
ATOM     10  C   UNL     1      44.997   2.841   8.890  0.00  0.00    +0.000 C 
ATOM     11  O   UNL     1      44.502   1.907   9.520  0.00  0.00    +0.000 OA
ATOM     12  N   UNL     1      46.054   2.646   8.014  0.00  0.00    +0.000 N 
ATOM     13  C   UNL     1      46.773   3.645   7.248  0.00  0.00    +0.000 C 
ATOM     14  C   UNL     1      47.136   2.897   5.978  0.00  0.00    +0.000 C 
ATOM     15  C   UNL     1      47.437   1.487   6.478  0.00  0.00    +0.000 C 
ATOM     16  C   UNL     1      46.541   1.311   7.703  0.00  0.00    +0.000 C 
ENDBRANCH   9  10
ENDBRANCH   8   9
ENDBRANCH   5   8
ENDBRANCH   1   2
BRANCH   1  19
ATOM     17  O   UNL     1      50.098   6.712  15.191  0.00  0.00    +0.000 OA
ATOM     18  C   UNL     1      48.986   7.195  15.386  0.00  0.00    +0.000 C 
ATOM     19  N   UNL     1      47.830   6.493  15.162  0.00  0.00    +0.000 N 
ATOM     20  H   UNL     1      46.938   6.979  15.183  0.00  0.00    +0.000 HD
BRANCH  18  21
ATOM     21  C   UNL     1      48.832   8.551  15.928  0.00  0.00    +0.000 A 
ATOM     22  C   UNL     1      49.230   9.646  15.171  0.00  0.00    +0.000 A 
ATOM     23  S   UNL     1      48.960  11.144  15.939  0.00  0.00    +0.000 S 
ATOM     24  C   UNL     1      48.267  10.384  17.295  0.00  0.00    +0.000 A 
ATOM     25  N   UNL     1      47.773  11.116  18.330  0.00  0.00    +0.000 NA
ATOM     26  C   UNL     1      47.235  10.412  19.270  0.00  0.00    +0.000 A 
ATOM     27  N   UNL     1      47.165   9.043  19.280  0.00  0.00    +0.000 N 
ATOM     28  C   UNL     1      47.734   8.261  18.305  0.00  0.00    +0.000 A 
ATOM     29  O   UNL     1      47.802   7.043  18.424  0.00  0.00    +0.000 OA
ATOM     30  C   UNL     1      48.283   9.005  17.185  0.00  0.00    +0.000 A 
ATOM     31  H   UNL     1      46.770   8.551  20.066  0.00  0.00    +0.000 HD
ENDBRANCH  18  21
ENDBRANCH   1  19
TORSDOF 6
ENDMDL
MODEL 7
REMARK VINA RESULT:    -6.922      2.937      8.355
REMARK INTER + INTRA:         -10.454
REMARK INTER:                  -9.141
REMARK INTRA:                  -1.313
REMARK UNBOUND:                -1.105
REMARK  Name = 
REMARK  6 active torsions:
REMARK  status: ('A' for Active; 'I' for Inactive)
REMARK    1  A    between atoms: C_2  and  C_20
REMARK    2  A    between atoms: N_3  and  C_4
REMARK    3  A    between atoms: C_4  and  C_5
REMARK    4  A    between atoms: C_8  and  C_9
REMARK    5  A    between atoms: C_9  and  C_10
REMARK    6  A    between atoms: C_10  and  C_11
REMARK                            x       y       z     vdW  Elec       q    Type
REMARK                         _______ _______ _______ _____ _____    ______ ____
ROOT
ATOM      1  C   UNL     1      47.644   7.881  11.836  0.00  0.00    +0.000 C 
ENDROOT
BRANCH   1   2
ATOM      2  C   UNL     1      48.270   7.988  13.203  0.00  0.00    +0.000 A 
ATOM      3  C   UNL     1      47.689   8.801  14.185  0.00  0.00    +0.000 A 
ATOM      4  C   UNL     1      48.245   8.880  15.465  0.00  0.00    +0.000 A 
ATOM      5  C   UNL     1      49.394   8.149  15.794  0.00  0.00    +0.000 A 
ATOM      6  C   UNL     1      49.994   7.364  14.801  0.00  0.00    +0.000 A 
ATOM      7  C   UNL     1      49.443   7.290  13.517  0.00  0.00    +0.000 A 
BRANCH   5   8
ATOM      8  C   UNL     1      50.009   8.232  17.175  0.00  0.00    +0.000 C 
BRANCH   8   9
ATOM      9  C   UNL     1      49.409   7.225  18.163  0.00  0.00    +0.000 C 
BRANCH   9  10
ATOM     10  C   UNL     1      50.090   5.873  18.088  0.00  0.00    +0.000 C 
ATOM     11  O   UNL     1      51.216   5.668  18.539  0.00  0.00    +0.000 OA
ATOM     12  N   UNL     1      49.347   4.860  17.503  0.00  0.00    +0.000 N 
ATOM     13  C   UNL     1      48.039   4.956  16.884  0.00  0.00    +0.000 C 
ATOM     14  C   UNL     1      47.415   3.611  17.204  0.00  0.00    +0.000 C 
ATOM     15  C   UNL     1      48.594   2.648  17.107  0.00  0.00    +0.000 C 
ATOM     16  C   UNL     1      49.809   3.481  17.514  0.00  0.00    +0.000 C 
ENDBRANCH   9  10
ENDBRANCH   8   9
ENDBRANCH   5   8
ENDBRANCH   1   2
BRANCH   1  19
ATOM     17  O   UNL     1      44.875   7.483  12.118  0.00  0.00    +0.000 OA
ATOM     18  C   UNL     1      45.579   6.534  11.782  0.00  0.00    +0.000 C 
ATOM     19  N   UNL     1      46.941   6.636  11.661  0.00  0.00    +0.000 N 
ATOM     20  H   UNL     1      47.463   5.879  11.230  0.00  0.00    +0.000 HD
BRANCH  18  21
ATOM     21  C   UNL     1      45.000   5.208  11.539  0.00  0.00    +0.000 A 
ATOM     22  C   UNL     1      44.307   4.561  12.554  0.00  0.00    +0.000 A 
ATOM     23  S   UNL     1      43.681   3.042  12.096  0.00  0.00    +0.000 S 
ATOM     24  C   UNL     1      44.283   3.211  10.514  0.00  0.00    +0.000 A 
ATOM     25  N   UNL     1      44.052   2.256   9.572  0.00  0.00    +0.000 NA
ATOM     26  C   UNL     1      44.527   2.536   8.404  0.00  0.00    +0.000 A 
ATOM     27  N   UNL     1      45.230   3.672   8.096  0.00  0.00    +0.000 N 
ATOM     28  C   UNL     1      45.568   4.616   9.035  0.00  0.00    +0.000 A 
ATOM     29  O   UNL     1      46.336   5.534   8.768  0.00  0.00    +0.000 OA
ATOM     30  C   UNL     1      44.991   4.388  10.349  0.00  0.00    +0.000 A 
ATOM     31  H   UNL     1      45.611   3.811   7.174  0.00  0.00    +0.000 HD
ENDBRANCH  18  21
ENDBRANCH   1  19
TORSDOF 6
ENDMDL
MODEL 8
REMARK VINA RESULT:    -6.706      3.551      5.022
REMARK INTER + INTRA:         -10.163
REMARK INTER:                  -9.066
REMARK INTRA:                  -1.096
REMARK UNBOUND:                -1.105
REMARK  Name = 
REMARK  6 active torsions:
REMARK  status: ('A' for Active; 'I' for Inactive)
REMARK    1  A    between atoms: C_2  and  C_20
REMARK    2  A    between atoms: N_3  and  C_4
REMARK    3  A    between atoms: C_4  and  C_5
REMARK    4  A    between atoms: C_8  and  C_9
REMARK    5  A    between atoms: C_9  and  C_10
REMARK    6  A    between atoms: C_10  and  C_11
REMARK                            x       y       z     vdW  Elec       q    Type
REMARK                         _______ _______ _______ _____ _____    ______ ____
ROOT
ATOM      1  C   UNL     1      48.504   6.640  14.690  0.00  0.00    +0.000 C 
ENDROOT
BRANCH   1   2
ATOM      2  C   UNL     1      47.489   6.169  13.681  0.00  0.00    +0.000 A 
ATOM      3  C   UNL     1      46.855   4.930  13.842  0.00  0.00    +0.000 A 
ATOM      4  C   UNL     1      45.888   4.500  12.929  0.00  0.00    +0.000 A 
ATOM      5  C   UNL     1      45.531   5.298  11.833  0.00  0.00    +0.000 A 
ATOM      6  C   UNL     1      46.191   6.521  11.655  0.00  0.00    +0.000 A 
ATOM      7  C   UNL     1      47.164   6.949  12.564  0.00  0.00    +0.000 A 
BRANCH   5   8
ATOM      8  C   UNL     1      44.490   4.840  10.834  0.00  0.00    +0.000 C 
BRANCH   8   9
ATOM      9  C   UNL     1      44.931   3.615  10.024  0.00  0.00    +0.000 C 
BRANCH   9  10
ATOM     10  C   UNL     1      45.574   4.001   8.707  0.00  0.00    +0.000 C 
ATOM     11  O   UNL     1      45.737   5.170   8.362  0.00  0.00    +0.000 OA
ATOM     12  N   UNL     1      46.005   2.944   7.920  0.00  0.00    +0.000 N 
ATOM     13  C   UNL     1      45.839   1.524   8.164  0.00  0.00    +0.000 C 
ATOM     14  C   UNL     1      47.101   0.931   7.567  0.00  0.00    +0.000 C 
ATOM     15  C   UNL     1      47.347   1.800   6.337  0.00  0.00    +0.000 C 
ATOM     16  C   UNL     1      46.784   3.170   6.713  0.00  0.00    +0.000 C 
ENDBRANCH   9  10
ENDBRANCH   8   9
ENDBRANCH   5   8
ENDBRANCH   1   2
BRANCH   1  19
ATOM     17  O   UNL     1      49.184   9.362  14.507  0.00  0.00    +0.000 OA
ATOM     18  C   UNL     1      49.956   8.526  14.046  0.00  0.00    +0.000 C 
ATOM     19  N   UNL     1      49.679   7.184  14.059  0.00  0.00    +0.000 N 
ATOM     20  H   UNL     1      50.408   6.520  13.815  0.00  0.00    +0.000 HD
BRANCH  18  21
ATOM     21  C   UNL     1      51.210   8.927  13.397  0.00  0.00    +0.000 A 
ATOM     22  C   UNL     1      52.110   9.738  14.077  0.00  0.00    +0.000 A 
ATOM     23  S   UNL     1      53.523  10.089  13.188  0.00  0.00    +0.000 S 
ATOM     24  C   UNL     1      52.998   9.139  11.877  0.00  0.00    +0.000 A 
ATOM     25  N   UNL     1      53.780   8.973  10.776  0.00  0.00    +0.000 NA
ATOM     26  C   UNL     1      53.279   8.190   9.881  0.00  0.00    +0.000 A 
ATOM     27  N   UNL     1      52.057   7.575   9.975  0.00  0.00    +0.000 N 
ATOM     28  C   UNL     1      51.195   7.787  11.022  0.00  0.00    +0.000 A 
ATOM     29  O   UNL     1      50.046   7.358  10.999  0.00  0.00    +0.000 OA
ATOM     30  C   UNL     1      51.743   8.598  12.095  0.00  0.00    +0.000 A 
ATOM     31  H   UNL     1      51.704   7.009   9.219  0.00  0.00    +0.000 HD
ENDBRANCH  18  21
ENDBRANCH   1  19
TORSDOF 6
ENDMDL
MODEL 9
REMARK VINA RESULT:    -6.451      3.436      8.126
REMARK INTER + INTRA:          -9.818
REMARK INTER:                  -8.659
REMARK INTRA:                  -1.159
REMARK UNBOUND:                -1.105
REMARK  Name = 
REMARK  6 active torsions:
REMARK  status: ('A' for Active; 'I' for Inactive)
REMARK    1  A    between atoms: C_2  and  C_20
REMARK    2  A    between atoms: N_3  and  C_4
REMARK    3  A    between atoms: C_4  and  C_5
REMARK    4  A    between atoms: C_8  and  C_9
REMARK    5  A    between atoms: C_9  and  C_10
REMARK    6  A    between atoms: C_10  and  C_11
REMARK                            x       y       z     vdW  Elec       q    Type
REMARK                         _______ _______ _______ _____ _____    ______ ____
ROOT
ATOM      1  C   UNL     1      47.588   8.545  12.295  0.00  0.00    +0.000 C 
ENDROOT
BRANCH   1   2
ATOM      2  C   UNL     1      48.361   8.293  13.564  0.00  0.00    +0.000 A 
ATOM      3  C   UNL     1      49.572   7.589  13.526  0.00  0.00    +0.000 A 
ATOM      4  C   UNL     1      50.312   7.380  14.693  0.00  0.00    +0.000 A 
ATOM      5  C   UNL     1      49.860   7.870  15.926  0.00  0.00    +0.000 A 
ATOM      6  C   UNL     1      48.632   8.544  15.968  0.00  0.00    +0.000 A 
ATOM      7  C   UNL     1      47.887   8.747  14.801  0.00  0.00    +0.000 A 
BRANCH   5   8
ATOM      8  C   UNL     1      50.650   7.644  17.198  0.00  0.00    +0.000 C 
BRANCH   8   9
ATOM      9  C   UNL     1      49.908   6.775  18.220  0.00  0.00    +0.000 C 
BRANCH   9  10
ATOM     10  C   UNL     1      50.263   5.308  18.089  0.00  0.00    +0.000 C 
ATOM     11  O   UNL     1      51.309   4.833  18.529  0.00  0.00    +0.000 OA
ATOM     12  N   UNL     1      49.312   4.515  17.465  0.00  0.00    +0.000 N 
ATOM     13  C   UNL     1      48.065   4.933  16.854  0.00  0.00    +0.000 C 
ATOM     14  C   UNL     1      47.148   3.754  17.121  0.00  0.00    +0.000 C 
ATOM     15  C   UNL     1      48.077   2.551  16.982  0.00  0.00    +0.000 C 
ATOM     16  C   UNL     1      49.447   3.068  17.419  0.00  0.00    +0.000 C 
ENDBRANCH   9  10
ENDBRANCH   8   9
ENDBRANCH   5   8
ENDBRANCH   1   2
BRANCH   1  19
ATOM     17  O   UNL     1      44.911   8.097  11.560  0.00  0.00    +0.000 OA
ATOM     18  C   UNL     1      45.735   7.205  11.374  0.00  0.00    +0.000 C 
ATOM     19  N   UNL     1      47.050   7.330  11.741  0.00  0.00    +0.000 N 
ATOM     20  H   UNL     1      47.724   6.639  11.427  0.00  0.00    +0.000 HD
BRANCH  18  21
ATOM     21  C   UNL     1      45.340   5.918  10.788  0.00  0.00    +0.000 A 
ATOM     22  C   UNL     1      45.750   5.590   9.502  0.00  0.00    +0.000 A 
ATOM     23  S   UNL     1      45.224   4.052   8.987  0.00  0.00    +0.000 S 
ATOM     24  C   UNL     1      44.461   3.753  10.479  0.00  0.00    +0.000 A 
ATOM     25  N   UNL     1      43.842   2.567  10.723  0.00  0.00    +0.000 NA
ATOM     26  C   UNL     1      43.348   2.460  11.912  0.00  0.00    +0.000 A 
ATOM     27  N   UNL     1      43.397   3.438  12.871  0.00  0.00    +0.000 N 
ATOM     28  C   UNL     1      43.927   4.684  12.638  0.00  0.00    +0.000 A 
ATOM     29  O   UNL     1      43.808   5.590  13.455  0.00  0.00    +0.000 OA
ATOM     30  C   UNL     1      44.567   4.830  11.342  0.00  0.00    +0.000 A 
ATOM     31  H   UNL     1      42.953   3.308  13.766  0.00  0.00    +0.000 HD
ENDBRANCH  18  21
ENDBRANCH   1  19
TORSDOF 6
ENDMDL
