MODEL 1
REMARK VINA RESULT:    -7.711      0.000      0.000
REMARK INTER + INTRA:         -12.053
REMARK INTER:                 -11.091
REMARK INTRA:                  -0.962
REMARK UNBOUND:                -0.962
REMARK  Name = 
REMARK  8 active torsions:
REMARK  status: ('A' for Active; 'I' for Inactive)
REMARK    1  A    between atoms: C_2  and  C_20
REMARK    2  A    between atoms: N_3  and  C_4
REMARK    3  A    between atoms: C_4  and  C_5
REMARK    4  A    between atoms: C_8  and  C_9
REMARK    5  A    between atoms: C_9  and  C_10
REMARK    6  A    between atoms: C_10  and  O_11
REMARK    7  A    between atoms: C_10  and  C_12
REMARK    8  A    between atoms: C_12  and  N_13
REMARK                            x       y       z     vdW  Elec       q    Type
REMARK                         _______ _______ _______ _____ _____    ______ ____
ROOT
ATOM      1  C   UNL     1      46.986   5.825  12.812  0.00  0.00    +0.000 A 
ATOM      2  C   UNL     1      46.759   4.552  13.343  0.00  0.00    +0.000 A 
ATOM      3  C   UNL     1      45.816   3.712  12.752  0.00  0.00    +0.000 A 
ATOM      4  C   UNL     1      45.120   4.165  11.637  0.00  0.00    +0.000 A 
ATOM      5  N   UNL     1      45.334   5.389  11.098  0.00  0.00    +0.000 NA
ATOM      6  C   UNL     1      46.231   6.198  11.709  0.00  0.00    +0.000 A 
ENDROOT
BRANCH   1   7
ATOM      7  C   UNL     1      47.975   6.771  13.425  0.00  0.00    +0.000 C 
BRANCH   7  10
ATOM      8  O   UNL     1      50.148   6.672  15.204  0.00  0.00    +0.000 OA
ATOM      9  C   UNL     1      49.012   6.761  15.661  0.00  0.00    +0.000 C 
ATOM     10  N   UNL     1      47.897   6.753  14.862  0.00  0.00    +0.000 N 
ATOM     11  H   UNL     1      47.005   7.019  15.264  0.00  0.00    +0.000 HD
BRANCH   9  12
ATOM     12  C   UNL     1      48.766   6.828  17.106  0.00  0.00    +0.000 A 
ATOM     13  C   UNL     1      48.387   8.028  17.691  0.00  0.00    +0.000 A 
ATOM     14  S   UNL     1      48.153   7.919  19.379  0.00  0.00    +0.000 S 
ATOM     15  C   UNL     1      48.510   6.254  19.376  0.00  0.00    +0.000 A 
ATOM     16  N   UNL     1      48.471   5.524  20.525  0.00  0.00    +0.000 NA
ATOM     17  C   UNL     1      48.722   4.266  20.367  0.00  0.00    +0.000 A 
ATOM     18  N   UNL     1      49.026   3.676  19.171  0.00  0.00    +0.000 N 
ATOM     19  C   UNL     1      49.161   4.384  18.000  0.00  0.00    +0.000 A 
ATOM     20  O   UNL     1      49.572   3.845  16.979  0.00  0.00    +0.000 OA
ATOM     21  C   UNL     1      48.833   5.795  18.113  0.00  0.00    +0.000 A 
ATOM     22  H   UNL     1      49.248   2.691  19.125  0.00  0.00    +0.000 HD
ENDBRANCH   9  12
ENDBRANCH   7  10
ENDBRANCH   1   7
BRANCH   4  23
ATOM     23  C   UNL     1      44.101   3.296  10.944  0.00  0.00    +0.000 C 
BRANCH  23  24
ATOM     24  C   UNL     1      44.337   3.132   9.433  0.00  0.00    +0.000 C 
BRANCH  24  25
ATOM     25  O   UNL     1      44.027   4.336   8.716  0.00  0.00    +0.000 OA
ATOM     26  H   UNL     1      44.860   4.837   8.610  0.00  0.00    +0.000 HD
ENDBRANCH  24  25
BRANCH  24  27
ATOM     27  C   UNL     1      45.760   2.673   9.038  0.00  0.00    +0.000 C 
BRANCH  27  28
ATOM     28  N   UNL     1      45.890   2.131   7.675  0.00  0.00    +0.000 NA
ATOM     29  C   UNL     1      46.446   3.108   6.722  0.00  0.00    +0.000 C 
ATOM     30  C   UNL     1      47.563   2.368   6.004  0.00  0.00    +0.000 C 
ATOM     31  N   UNL     1      48.020   1.404   7.004  0.00  0.00    +0.000 NA
ATOM     32  C   UNL     1      46.784   0.974   7.642  0.00  0.00    +0.000 C 
ATOM     33  H   UNL     1      48.562   1.902   7.707  0.00  0.00    +0.000 HD
ENDBRANCH  27  28
ENDBRANCH  24  27
ENDBRANCH  23  24
ENDBRANCH   4  23
TORSDOF 8
ENDMDL
MODEL 2
REMARK VINA RESULT:    -7.324      1.833      2.254
REMARK INTER + INTRA:         -11.497
REMARK INTER:                 -10.484
REMARK INTRA:                  -1.013
REMARK UNBOUND:                -0.962
REMARK  Name = 
REMARK  8 active torsions:
REMARK  status: ('A' for Active; 'I' for Inactive)
REMARK    1  A    between atoms: C_2  and  C_20
REMARK    2  A    between atoms: N_3  and  C_4
REMARK    3  A    between atoms: C_4  and  C_5
REMARK    4  A    between atoms: C_8  and  C_9
REMARK    5  A    between atoms: C_9  and  C_10
REMARK    6  A    between atoms: C_10  and  O_11
REMARK    7  A    between atoms: C_10  and  C_12
REMARK    8  A    between atoms: C_12  and  N_13
REMARK                            x       y       z     vdW  Elec       q    Type
REMARK                         _______ _______ _______ _____ _____    ______ ____
ROOT
ATOM      1  C   UNL     1      46.756   6.519  13.423  0.00  0.00    +0.000 A 
ATOM      2  C   UNL     1      45.714   7.031  12.647  0.00  0.00    +0.000 A 
ATOM      3  C   UNL     1      44.617   6.229  12.340  0.00  0.00    +0.000 A 
ATOM      4  C   UNL     1      44.584   4.925  12.821  0.00  0.00    +0.000 A 
ATOM      5  N   UNL     1      45.577   4.411  13.588  0.00  0.00    +0.000 NA
ATOM      6  C   UNL     1      46.646   5.201  13.844  0.00  0.00    +0.000 A 
ENDROOT
BRANCH   1   7
ATOM      7  C   UNL     1      47.965   7.338  13.762  0.00  0.00    +0.000 C 
BRANCH   7  10
ATOM      8  O   UNL     1      49.682   6.130  15.631  0.00  0.00    +0.000 OA
ATOM      9  C   UNL     1      48.935   7.028  16.007  0.00  0.00    +0.000 C 
ATOM     10  N   UNL     1      48.026   7.625  15.172  0.00  0.00    +0.000 N 
ATOM     11  H   UNL     1      47.573   8.481  15.472  0.00  0.00    +0.000 HD
BRANCH   9  12
ATOM     12  C   UNL     1      48.928   7.490  17.400  0.00  0.00    +0.000 A 
ATOM     13  C   UNL     1      49.584   8.663  17.746  0.00  0.00    +0.000 A 
ATOM     14  S   UNL     1      49.476   9.039  19.408  0.00  0.00    +0.000 S 
ATOM     15  C   UNL     1      48.512   7.668  19.711  0.00  0.00    +0.000 A 
ATOM     16  N   UNL     1      48.045   7.399  20.962  0.00  0.00    +0.000 NA
ATOM     17  C   UNL     1      47.292   6.351  21.037  0.00  0.00    +0.000 A 
ATOM     18  N   UNL     1      46.980   5.539  19.981  0.00  0.00    +0.000 N 
ATOM     19  C   UNL     1      47.494   5.720  18.719  0.00  0.00    +0.000 A 
ATOM     20  O   UNL     1      47.306   4.893  17.835  0.00  0.00    +0.000 OA
ATOM     21  C   UNL     1      48.302   6.918  18.569  0.00  0.00    +0.000 A 
ATOM     22  H   UNL     1      46.414   4.713  20.117  0.00  0.00    +0.000 HD
ENDBRANCH   9  12
ENDBRANCH   7  10
ENDBRANCH   1   7
BRANCH   4  23
ATOM     23  C   UNL     1      43.417   4.014  12.539  0.00  0.00    +0.000 C 
BRANCH  23  24
ATOM     24  C   UNL     1      43.745   2.842  11.599  0.00  0.00    +0.000 C 
BRANCH  24  25
ATOM     25  O   UNL     1      42.765   1.798  11.694  0.00  0.00    +0.000 OA
ATOM     26  H   UNL     1      43.105   1.132  12.324  0.00  0.00    +0.000 HD
ENDBRANCH  24  25
BRANCH  24  27
ATOM     27  C   UNL     1      43.919   3.223  10.111  0.00  0.00    +0.000 C 
BRANCH  27  28
ATOM     28  N   UNL     1      45.307   3.226   9.620  0.00  0.00    +0.000 NA
ATOM     29  C   UNL     1      45.599   2.091   8.727  0.00  0.00    +0.000 C 
ATOM     30  C   UNL     1      46.266   2.709   7.508  0.00  0.00    +0.000 C 
ATOM     31  N   UNL     1      45.682   4.049   7.453  0.00  0.00    +0.000 NA
ATOM     32  C   UNL     1      45.602   4.436   8.854  0.00  0.00    +0.000 C 
ATOM     33  H   UNL     1      44.727   3.970   7.110  0.00  0.00    +0.000 HD
ENDBRANCH  27  28
ENDBRANCH  24  27
ENDBRANCH  23  24
ENDBRANCH   4  23
TORSDOF 8
ENDMDL
MODEL 3
REMARK VINA RESULT:    -7.215      2.937      3.754
REMARK INTER + INTRA:         -11.340
REMARK INTER:                  -9.469
REMARK INTRA:                  -1.871
REMARK UNBOUND:                -0.962
REMARK  Name = 
REMARK  8 active torsions:
REMARK  status: ('A' for Active; 'I' for Inactive)
REMARK    1  A    between atoms: C_2  and  C_20
REMARK    2  A    between atoms: N_3  and  C_4
REMARK    3  A    between atoms: C_4  and  C_5
REMARK    4  A    between atoms: C_8  and  C_9
REMARK    5  A    between atoms: C_9  and  C_10
REMARK    6  A    between atoms: C_10  and  O_11
REMARK    7  A    between atoms: C_10  and  C_12
REMARK    8  A    between atoms: C_12  and  N_13
REMARK                            x       y       z     vdW  Elec       q    Type
REMARK                         _______ _______ _______ _____ _____    ______ ____
ROOT
ATOM      1  C   UNL     1      47.835   7.858  12.911  0.00  0.00    +0.000 A 
ATOM      2  C   UNL     1      47.598   6.835  11.989  0.00  0.00    +0.000 A 
ATOM      3  C   UNL     1      46.339   6.703  11.407  0.00  0.00    +0.000 A 
ATOM      4  C   UNL     1      45.339   7.604  11.759  0.00  0.00    +0.000 A 
ATOM      5  N   UNL     1      45.550   8.612  12.640  0.00  0.00    +0.000 NA
ATOM      6  C   UNL     1      46.772   8.698  13.216  0.00  0.00    +0.000 A 
ENDROOT
BRANCH   1   7
ATOM      7  C   UNL     1      49.167   8.028  13.578  0.00  0.00    +0.000 C 
BRANCH   7  10
ATOM      8  O   UNL     1      48.708   8.635  16.283  0.00  0.00    +0.000 OA
ATOM      9  C   UNL     1      49.016   7.486  15.978  0.00  0.00    +0.000 C 
ATOM     10  N   UNL     1      49.315   7.125  14.689  0.00  0.00    +0.000 N 
ATOM     11  H   UNL     1      49.374   6.139  14.458  0.00  0.00    +0.000 HD
BRANCH   9  12
ATOM     12  C   UNL     1      49.137   6.428  16.987  0.00  0.00    +0.000 A 
ATOM     13  C   UNL     1      49.956   6.611  18.092  0.00  0.00    +0.000 A 
ATOM     14  S   UNL     1      49.980   5.274  19.152  0.00  0.00    +0.000 S 
ATOM     15  C   UNL     1      48.862   4.422  18.190  0.00  0.00    +0.000 A 
ATOM     16  N   UNL     1      48.427   3.182  18.549  0.00  0.00    +0.000 NA
ATOM     17  C   UNL     1      47.549   2.673  17.748  0.00  0.00    +0.000 A 
ATOM     18  N   UNL     1      47.082   3.281  16.615  0.00  0.00    +0.000 N 
ATOM     19  C   UNL     1      47.553   4.492  16.166  0.00  0.00    +0.000 A 
ATOM     20  O   UNL     1      47.216   4.937  15.076  0.00  0.00    +0.000 OA
ATOM     21  C   UNL     1      48.501   5.133  17.062  0.00  0.00    +0.000 A 
ATOM     22  H   UNL     1      46.421   2.809  16.013  0.00  0.00    +0.000 HD
ENDBRANCH   9  12
ENDBRANCH   7  10
ENDBRANCH   1   7
BRANCH   4  23
ATOM     23  C   UNL     1      43.962   7.524  11.150  0.00  0.00    +0.000 C 
BRANCH  23  24
ATOM     24  C   UNL     1      43.120   6.338  11.650  0.00  0.00    +0.000 C 
BRANCH  24  25
ATOM     25  O   UNL     1      41.733   6.685  11.762  0.00  0.00    +0.000 OA
ATOM     26  H   UNL     1      41.526   7.309  11.038  0.00  0.00    +0.000 HD
ENDBRANCH  24  25
BRANCH  24  27
ATOM     27  C   UNL     1      43.240   5.048  10.806  0.00  0.00    +0.000 C 
BRANCH  27  28
ATOM     28  N   UNL     1      43.585   3.832  11.562  0.00  0.00    +0.000 NA
ATOM     29  C   UNL     1      44.925   3.316  11.232  0.00  0.00    +0.000 C 
ATOM     30  C   UNL     1      45.601   3.086  12.574  0.00  0.00    +0.000 C 
ATOM     31  N   UNL     1      44.974   4.086  13.438  0.00  0.00    +0.000 NA
ATOM     32  C   UNL     1      43.585   4.078  13.003  0.00  0.00    +0.000 C 
ATOM     33  H   UNL     1      45.356   5.000  13.202  0.00  0.00    +0.000 HD
ENDBRANCH  27  28
ENDBRANCH  24  27
ENDBRANCH  23  24
ENDBRANCH   4  23
TORSDOF 8
ENDMDL
MODEL 4
REMARK VINA RESULT:    -7.053      2.447      4.008
REMARK INTER + INTRA:         -11.108
REMARK INTER:                  -9.687
REMARK INTRA:                  -1.421
REMARK UNBOUND:                -0.962
REMARK  Name = 
REMARK  8 active torsions:
REMARK  status: ('A' for Active; 'I' for Inactive)
REMARK    1  A    between atoms: C_2  and  C_20
REMARK    2  A    between atoms: N_3  and  C_4
REMARK    3  A    between atoms: C_4  and  C_5
REMARK    4  A    between atoms: C_8  and  C_9
REMARK    5  A    between atoms: C_9  and  C_10
REMARK    6  A    between atoms: C_10  and  O_11
REMARK    7  A    between atoms: C_10  and  C_12
REMARK    8  A    between atoms: C_12  and  N_13
REMARK                            x       y       z     vdW  Elec       q    Type
REMARK                         _______ _______ _______ _____ _____    ______ ____
ROOT
ATOM      1  C   UNL     1      46.228   4.523  13.522  0.00  0.00    +0.000 A 
ATOM      2  C   UNL     1      46.006   3.259  12.971  0.00  0.00    +0.000 A 
ATOM      3  C   UNL     1      45.223   3.128  11.826  0.00  0.00    +0.000 A 
ATOM      4  C   UNL     1      44.677   4.271  11.253  0.00  0.00    +0.000 A 
ATOM      5  N   UNL     1      44.889   5.509  11.762  0.00  0.00    +0.000 NA
ATOM      6  C   UNL     1      45.626   5.605  12.893  0.00  0.00    +0.000 A 
ENDROOT
BRANCH   1   7
ATOM      7  C   UNL     1      47.046   4.712  14.763  0.00  0.00    +0.000 C 
BRANCH   7  10
ATOM      8  O   UNL     1      49.258   5.477  16.320  0.00  0.00    +0.000 OA
ATOM      9  C   UNL     1      48.765   6.295  15.548  0.00  0.00    +0.000 C 
ATOM     10  N   UNL     1      47.649   6.018  14.801  0.00  0.00    +0.000 N 
ATOM     11  H   UNL     1      47.398   6.647  14.046  0.00  0.00    +0.000 HD
BRANCH   9  12
ATOM     12  C   UNL     1      49.310   7.650  15.413  0.00  0.00    +0.000 A 
ATOM     13  C   UNL     1      49.505   8.436  16.540  0.00  0.00    +0.000 A 
ATOM     14  S   UNL     1      50.137   9.983  16.191  0.00  0.00    +0.000 S 
ATOM     15  C   UNL     1      50.210   9.637  14.525  0.00  0.00    +0.000 A 
ATOM     16  N   UNL     1      50.689  10.552  13.637  0.00  0.00    +0.000 NA
ATOM     17  C   UNL     1      50.726  10.139  12.412  0.00  0.00    +0.000 A 
ATOM     18  N   UNL     1      50.312   8.904  11.994  0.00  0.00    +0.000 N 
ATOM     19  C   UNL     1      49.744   7.979  12.838  0.00  0.00    +0.000 A 
ATOM     20  O   UNL     1      49.256   6.943  12.403  0.00  0.00    +0.000 OA
ATOM     21  C   UNL     1      49.732   8.373  14.236  0.00  0.00    +0.000 A 
ATOM     22  H   UNL     1      50.335   8.658  11.014  0.00  0.00    +0.000 HD
ENDBRANCH   9  12
ENDBRANCH   7  10
ENDBRANCH   1   7
BRANCH   4  23
ATOM     23  C   UNL     1      43.836   4.196  10.004  0.00  0.00    +0.000 C 
BRANCH  23  24
ATOM     24  C   UNL     1      44.580   4.593   8.718  0.00  0.00    +0.000 C 
BRANCH  24  25
ATOM     25  O   UNL     1      45.772   5.337   9.006  0.00  0.00    +0.000 OA
ATOM     26  H   UNL     1      45.545   6.006   9.682  0.00  0.00    +0.000 HD
ENDBRANCH  24  25
BRANCH  24  27
ATOM     27  C   UNL     1      44.945   3.418   7.782  0.00  0.00    +0.000 C 
BRANCH  27  28
ATOM     28  N   UNL     1      46.174   2.689   8.137  0.00  0.00    +0.000 NA
ATOM     29  C   UNL     1      45.941   1.250   8.354  0.00  0.00    +0.000 C 
ATOM     30  C   UNL     1      47.006   0.549   7.526  0.00  0.00    +0.000 C 
ATOM     31  N   UNL     1      47.245   1.485   6.428  0.00  0.00    +0.000 NA
ATOM     32  C   UNL     1      47.179   2.786   7.080  0.00  0.00    +0.000 C 
ATOM     33  H   UNL     1      46.459   1.434   5.784  0.00  0.00    +0.000 HD
ENDBRANCH  27  28
ENDBRANCH  24  27
ENDBRANCH  23  24
ENDBRANCH   4  23
TORSDOF 8
ENDMDL
MODEL 5
REMARK VINA RESULT:    -7.037      3.459      4.857
REMARK INTER + INTRA:         -11.084
REMARK INTER:                  -9.936
REMARK INTRA:                  -1.148
REMARK UNBOUND:                -0.962
REMARK  Name = 
REMARK  8 active torsions:
REMARK  status: ('A' for Active; 'I' for Inactive)
REMARK    1  A    between atoms: C_2  and  C_20
REMARK    2  A    between atoms: N_3  and  C_4
REMARK    3  A    between atoms: C_4  and  C_5
REMARK    4  A    between atoms: C_8  and  C_9
REMARK    5  A    between atoms: C_9  and  C_10
REMARK    6  A    between atoms: C_10  and  O_11
REMARK    7  A    between atoms: C_10  and  C_12
REMARK    8  A    between atoms: C_12  and  N_13
REMARK                            x       y       z     vdW  Elec       q    Type
REMARK                         _______ _______ _______ _____ _____    ______ ____
ROOT
ATOM      1  C   UNL     1      48.074   5.139  16.179  0.00  0.00    +0.000 A 
ATOM      2  C   UNL     1      48.486   6.213  15.385  0.00  0.00    +0.000 A 
ATOM      3  C   UNL     1      47.928   6.395  14.121  0.00  0.00    +0.000 A 
ATOM      4  C   UNL     1      46.964   5.497  13.677  0.00  0.00    +0.000 A 
ATOM      5  N   UNL     1      46.540   4.457  14.435  0.00  0.00    +0.000 NA
ATOM      6  C   UNL     1      47.120   4.283  15.645  0.00  0.00    +0.000 A 
ENDROOT
BRANCH   1   7
ATOM      7  C   UNL     1      48.660   4.891  17.536  0.00  0.00    +0.000 C 
BRANCH   7  10
ATOM      8  O   UNL     1      50.532   4.854  19.632  0.00  0.00    +0.000 OA
ATOM      9  C   UNL     1      50.864   4.418  18.533  0.00  0.00    +0.000 C 
ATOM     10  N   UNL     1      50.029   4.457  17.446  0.00  0.00    +0.000 N 
ATOM     11  H   UNL     1      50.273   3.918  16.622  0.00  0.00    +0.000 HD
BRANCH   9  12
ATOM     12  C   UNL     1      52.204   3.871  18.295  0.00  0.00    +0.000 A 
ATOM     13  C   UNL     1      53.327   4.648  18.544  0.00  0.00    +0.000 A 
ATOM     14  S   UNL     1      54.797   3.851  18.203  0.00  0.00    +0.000 S 
ATOM     15  C   UNL     1      53.982   2.426  17.750  0.00  0.00    +0.000 A 
ATOM     16  N   UNL     1      54.670   1.317  17.357  0.00  0.00    +0.000 NA
ATOM     17  C   UNL     1      53.925   0.297  17.084  0.00  0.00    +0.000 A 
ATOM     18  N   UNL     1      52.558   0.289  17.148  0.00  0.00    +0.000 N 
ATOM     19  C   UNL     1      51.817   1.406  17.456  0.00  0.00    +0.000 A 
ATOM     20  O   UNL     1      50.596   1.398  17.365  0.00  0.00    +0.000 OA
ATOM     21  C   UNL     1      52.610   2.565  17.828  0.00  0.00    +0.000 A 
ATOM     22  H   UNL     1      52.035  -0.534  16.885  0.00  0.00    +0.000 HD
ENDBRANCH   9  12
ENDBRANCH   7  10
ENDBRANCH   1   7
BRANCH   4  23
ATOM     23  C   UNL     1      46.311   5.652  12.327  0.00  0.00    +0.000 C 
BRANCH  23  24
ATOM     24  C   UNL     1      44.794   5.395  12.328  0.00  0.00    +0.000 C 
BRANCH  24  25
ATOM     25  O   UNL     1      44.127   6.175  13.329  0.00  0.00    +0.000 OA
ATOM     26  H   UNL     1      43.854   7.017  12.913  0.00  0.00    +0.000 HD
ENDBRANCH  24  25
BRANCH  24  27
ATOM     27  C   UNL     1      44.090   5.624  10.971  0.00  0.00    +0.000 C 
BRANCH  27  28
ATOM     28  N   UNL     1      43.642   4.403  10.280  0.00  0.00    +0.000 NA
ATOM     29  C   UNL     1      44.466   4.080   9.102  0.00  0.00    +0.000 C 
ATOM     30  C   UNL     1      44.821   2.610   9.260  0.00  0.00    +0.000 C 
ATOM     31  N   UNL     1      44.831   2.424  10.711  0.00  0.00    +0.000 NA
ATOM     32  C   UNL     1      43.708   3.236  11.158  0.00  0.00    +0.000 C 
ATOM     33  H   UNL     1      45.676   2.850  11.084  0.00  0.00    +0.000 HD
ENDBRANCH  27  28
ENDBRANCH  24  27
ENDBRANCH  23  24
ENDBRANCH   4  23
TORSDOF 8
ENDMDL
MODEL 6
REMARK VINA RESULT:    -6.852      2.964      8.878
REMARK INTER + INTRA:         -10.819
REMARK INTER:                  -9.183
REMARK INTRA:                  -1.636
REMARK UNBOUND:                -0.962
REMARK  Name = 
REMARK  8 active torsions:
REMARK  status: ('A' for Active; 'I' for Inactive)
REMARK    1  A    between atoms: C_2  and  C_20
REMARK    2  A    between atoms: N_3  and  C_4
REMARK    3  A    between atoms: C_4  and  C_5
REMARK    4  A    between atoms: C_8  and  C_9
REMARK    5  A    between atoms: C_9  and  C_10
REMARK    6  A    between atoms: C_10  and  O_11
REMARK    7  A    between atoms: C_10  and  C_12
REMARK    8  A    between atoms: C_12  and  N_13
REMARK                            x       y       z     vdW  Elec       q    Type
REMARK                         _______ _______ _______ _____ _____    ______ ____
ROOT
ATOM      1  C   UNL     1      48.353   8.015  13.157  0.00  0.00    +0.000 A 
ATOM      2  C   UNL     1      49.594   7.470  13.495  0.00  0.00    +0.000 A 
ATOM      3  C   UNL     1      50.116   7.669  14.771  0.00  0.00    +0.000 A 
ATOM      4  C   UNL     1      49.381   8.412  15.688  0.00  0.00    +0.000 A 
ATOM      5  N   UNL     1      48.169   8.939  15.387  0.00  0.00    +0.000 NA
ATOM      6  C   UNL     1      47.699   8.758  14.131  0.00  0.00    +0.000 A 
ENDROOT
BRANCH   1   7
ATOM      7  C   UNL     1      47.760   7.844  11.791  0.00  0.00    +0.000 C 
BRANCH   7  10
ATOM      8  O   UNL     1      44.979   7.577  12.092  0.00  0.00    +0.000 OA
ATOM      9  C   UNL     1      45.641   6.586  11.799  0.00  0.00    +0.000 C 
ATOM     10  N   UNL     1      47.008   6.621  11.695  0.00  0.00    +0.000 N 
ATOM     11  H   UNL     1      47.487   5.835  11.268  0.00  0.00    +0.000 HD
BRANCH   9  12
ATOM     12  C   UNL     1      45.014   5.275  11.593  0.00  0.00    +0.000 A 
ATOM     13  C   UNL     1      44.311   4.671  12.626  0.00  0.00    +0.000 A 
ATOM     14  S   UNL     1      43.659   3.149  12.208  0.00  0.00    +0.000 S 
ATOM     15  C   UNL     1      44.260   3.268  10.619  0.00  0.00    +0.000 A 
ATOM     16  N   UNL     1      44.033   2.283   9.706  0.00  0.00    +0.000 NA
ATOM     17  C   UNL     1      44.511   2.525   8.529  0.00  0.00    +0.000 A 
ATOM     18  N   UNL     1      45.209   3.652   8.188  0.00  0.00    +0.000 N 
ATOM     19  C   UNL     1      45.536   4.633   9.094  0.00  0.00    +0.000 A 
ATOM     20  O   UNL     1      46.282   5.554   8.786  0.00  0.00    +0.000 OA
ATOM     21  C   UNL     1      44.973   4.435  10.419  0.00  0.00    +0.000 A 
ATOM     22  H   UNL     1      45.586   3.761   7.257  0.00  0.00    +0.000 HD
ENDBRANCH   9  12
ENDBRANCH   7  10
ENDBRANCH   1   7
BRANCH   4  23
ATOM     23  C   UNL     1      49.884   8.647  17.090  0.00  0.00    +0.000 C 
BRANCH  23  24
ATOM     24  C   UNL     1      49.026   7.992  18.185  0.00  0.00    +0.000 C 
BRANCH  24  25
ATOM     25  O   UNL     1      47.674   8.470  18.153  0.00  0.00    +0.000 OA
ATOM     26  H   UNL     1      47.422   8.577  17.214  0.00  0.00    +0.000 HD
ENDBRANCH  24  25
BRANCH  24  27
ATOM     27  C   UNL     1      49.005   6.446  18.165  0.00  0.00    +0.000 C 
BRANCH  27  28
ATOM     28  N   UNL     1      47.810   5.841  17.554  0.00  0.00    +0.000 NA
ATOM     29  C   UNL     1      48.137   4.924  16.448  0.00  0.00    +0.000 C 
ATOM     30  C   UNL     1      47.353   3.655  16.741  0.00  0.00    +0.000 C 
ATOM     31  N   UNL     1      47.260   3.651  18.201  0.00  0.00    +0.000 NA
ATOM     32  C   UNL     1      47.051   5.055  18.525  0.00  0.00    +0.000 C 
ATOM     33  H   UNL     1      48.168   3.389  18.580  0.00  0.00    +0.000 HD
ENDBRANCH  27  28
ENDBRANCH  24  27
ENDBRANCH  23  24
ENDBRANCH   4  23
TORSDOF 8
ENDMDL
MODEL 7
REMARK VINA RESULT:    -6.771      3.562      8.487
REMARK INTER + INTRA:         -10.702
REMARK INTER:                  -9.483
REMARK INTRA:                  -1.219
REMARK UNBOUND:                -0.962
REMARK  Name = 
REMARK  8 active torsions:
REMARK  status: ('A' for Active; 'I' for Inactive)
REMARK    1  A    between atoms: C_2  and  C_20
REMARK    2  A    between atoms: N_3  and  C_4
REMARK    3  A    between atoms: C_4  and  C_5
REMARK    4  A    between atoms: C_8  and  C_9
REMARK    5  A    between atoms: C_9  and  C_10
REMARK    6  A    between atoms: C_10  and  O_11
REMARK    7  A    between atoms: C_10  and  C_12
REMARK    8  A    between atoms: C_12  and  N_13
REMARK                            x       y       z     vdW  Elec       q    Type
REMARK                         _______ _______ _______ _____ _____    ______ ____
ROOT
ATOM      1  C   UNL     1      48.416   8.118  13.608  0.00  0.00    +0.000 A 
ATOM      2  C   UNL     1      49.323   7.106  13.933  0.00  0.00    +0.000 A 
ATOM      3  C   UNL     1      49.758   6.960  15.248  0.00  0.00    +0.000 A 
ATOM      4  C   UNL     1      49.273   7.832  16.216  0.00  0.00    +0.000 A 
ATOM      5  N   UNL     1      48.382   8.812  15.926  0.00  0.00    +0.000 NA
ATOM      6  C   UNL     1      48.001   8.953  14.636  0.00  0.00    +0.000 A 
ENDROOT
BRANCH   1   7
ATOM      7  C   UNL     1      47.935   8.326  12.203  0.00  0.00    +0.000 C 
BRANCH   7  10
ATOM      8  O   UNL     1      45.204   8.041  11.606  0.00  0.00    +0.000 OA
ATOM      9  C   UNL     1      45.963   7.106  11.368  0.00  0.00    +0.000 C 
ATOM     10  N   UNL     1      47.296   7.144  11.687  0.00  0.00    +0.000 N 
ATOM     11  H   UNL     1      47.913   6.437  11.301  0.00  0.00    +0.000 HD
BRANCH   9  12
ATOM     12  C   UNL     1      45.481   5.855  10.772  0.00  0.00    +0.000 A 
ATOM     13  C   UNL     1      45.787   5.551   9.453  0.00  0.00    +0.000 A 
ATOM     14  S   UNL     1      45.136   4.063   8.928  0.00  0.00    +0.000 S 
ATOM     15  C   UNL     1      44.459   3.756  10.461  0.00  0.00    +0.000 A 
ATOM     16  N   UNL     1      43.766   2.610  10.707  0.00  0.00    +0.000 NA
ATOM     17  C   UNL     1      43.346   2.491  11.924  0.00  0.00    +0.000 A 
ATOM     18  N   UNL     1      43.540   3.420  12.909  0.00  0.00    +0.000 N 
ATOM     19  C   UNL     1      44.158   4.628  12.688  0.00  0.00    +0.000 A 
ATOM     20  O   UNL     1      44.186   5.491  13.557  0.00  0.00    +0.000 OA
ATOM     21  C   UNL     1      44.699   4.787  11.350  0.00  0.00    +0.000 A 
ATOM     22  H   UNL     1      43.152   3.279  13.832  0.00  0.00    +0.000 HD
ENDBRANCH   9  12
ENDBRANCH   7  10
ENDBRANCH   1   7
BRANCH   4  23
ATOM     23  C   UNL     1      49.692   7.713  17.659  0.00  0.00    +0.000 C 
BRANCH  23  24
ATOM     24  C   UNL     1      48.592   7.180  18.593  0.00  0.00    +0.000 C 
BRANCH  24  25
ATOM     25  O   UNL     1      47.295   7.653  18.204  0.00  0.00    +0.000 OA
ATOM     26  H   UNL     1      46.844   6.923  17.736  0.00  0.00    +0.000 HD
ENDBRANCH  24  25
BRANCH  24  27
ATOM     27  C   UNL     1      48.538   5.642  18.731  0.00  0.00    +0.000 C 
BRANCH  27  28
ATOM     28  N   UNL     1      48.287   4.907  17.480  0.00  0.00    +0.000 NA
ATOM     29  C   UNL     1      49.173   3.741  17.316  0.00  0.00    +0.000 C 
ATOM     30  C   UNL     1      48.248   2.589  16.958  0.00  0.00    +0.000 C 
ATOM     31  N   UNL     1      46.994   2.951  17.619  0.00  0.00    +0.000 NA
ATOM     32  C   UNL     1      46.920   4.392  17.425  0.00  0.00    +0.000 C 
ATOM     33  H   UNL     1      47.099   2.789  18.619  0.00  0.00    +0.000 HD
ENDBRANCH  27  28
ENDBRANCH  24  27
ENDBRANCH  23  24
ENDBRANCH   4  23
TORSDOF 8
ENDMDL
MODEL 8
REMARK VINA RESULT:    -6.635      1.955      3.263
REMARK INTER + INTRA:         -10.507
REMARK INTER:                  -9.636
REMARK INTRA:                  -0.871
REMARK UNBOUND:                -0.962
REMARK  Name = 
REMARK  8 active torsions:
REMARK  status: ('A' for Active; 'I' for Inactive)
REMARK    1  A    between atoms: C_2  and  C_20
REMARK    2  A    between atoms: N_3  and  C_4
REMARK    3  A    between atoms: C_4  and  C_5
REMARK    4  A    between atoms: C_8  and  C_9
REMARK    5  A    between atoms: C_9  and  C_10
REMARK    6  A    between atoms: C_10  and  O_11
REMARK    7  A    between atoms: C_10  and  C_12
REMARK    8  A    between atoms: C_12  and  N_13
REMARK                            x       y       z     vdW  Elec       q    Type
REMARK                         _______ _______ _______ _____ _____    ______ ____
ROOT
ATOM      1  C   UNL     1      46.946   4.627  14.339  0.00  0.00    +0.000 A 
ATOM      2  C   UNL     1      47.251   5.879  13.801  0.00  0.00    +0.000 A 
ATOM      3  C   UNL     1      46.803   6.215  12.524  0.00  0.00    +0.000 A 
ATOM      4  C   UNL     1      46.054   5.286  11.811  0.00  0.00    +0.000 A 
ATOM      5  N   UNL     1      45.734   4.071  12.318  0.00  0.00    +0.000 NA
ATOM      6  C   UNL     1      46.208   3.757  13.546  0.00  0.00    +0.000 A 
ENDROOT
BRANCH   1   7
ATOM      7  C   UNL     1      47.422   4.214  15.699  0.00  0.00    +0.000 C 
BRANCH   7  10
ATOM      8  O   UNL     1      49.736   5.468  16.685  0.00  0.00    +0.000 OA
ATOM      9  C   UNL     1      48.638   5.923  16.992  0.00  0.00    +0.000 C 
ATOM     10  N   UNL     1      47.463   5.333  16.603  0.00  0.00    +0.000 N 
ATOM     11  H   UNL     1      46.596   5.847  16.716  0.00  0.00    +0.000 HD
BRANCH   9  12
ATOM     12  C   UNL     1      48.509   7.108  17.848  0.00  0.00    +0.000 A 
ATOM     13  C   UNL     1      48.459   6.967  19.228  0.00  0.00    +0.000 A 
ATOM     14  S   UNL     1      48.300   8.449  20.059  0.00  0.00    +0.000 S 
ATOM     15  C   UNL     1      48.335   9.332  18.603  0.00  0.00    +0.000 A 
ATOM     16  N   UNL     1      48.259  10.692  18.604  0.00  0.00    +0.000 NA
ATOM     17  C   UNL     1      48.341  11.231  17.432  0.00  0.00    +0.000 A 
ATOM     18  N   UNL     1      48.472  10.535  16.261  0.00  0.00    +0.000 N 
ATOM     19  C   UNL     1      48.467   9.162  16.202  0.00  0.00    +0.000 A 
ATOM     20  O   UNL     1      48.443   8.576  15.127  0.00  0.00    +0.000 OA
ATOM     21  C   UNL     1      48.435   8.508  17.499  0.00  0.00    +0.000 A 
ATOM     22  H   UNL     1      48.493  11.020  15.374  0.00  0.00    +0.000 HD
ENDBRANCH   9  12
ENDBRANCH   7  10
ENDBRANCH   1   7
BRANCH   4  23
ATOM     23  C   UNL     1      45.526   5.597  10.434  0.00  0.00    +0.000 C 
BRANCH  23  24
ATOM     24  C   UNL     1      44.458   4.611   9.931  0.00  0.00    +0.000 C 
BRANCH  24  25
ATOM     25  O   UNL     1      43.156   5.213   9.899  0.00  0.00    +0.000 OA
ATOM     26  H   UNL     1      42.722   4.932   9.070  0.00  0.00    +0.000 HD
ENDBRANCH  24  25
BRANCH  24  27
ATOM     27  C   UNL     1      44.746   3.982   8.548  0.00  0.00    +0.000 C 
BRANCH  27  28
ATOM     28  N   UNL     1      46.069   3.351   8.407  0.00  0.00    +0.000 NA
ATOM     29  C   UNL     1      45.994   1.881   8.333  0.00  0.00    +0.000 C 
ATOM     30  C   UNL     1      46.839   1.503   7.127  0.00  0.00    +0.000 C 
ATOM     31  N   UNL     1      46.712   2.669   6.253  0.00  0.00    +0.000 NA
ATOM     32  C   UNL     1      46.743   3.787   7.185  0.00  0.00    +0.000 C 
ATOM     33  H   UNL     1      45.786   2.656   5.832  0.00  0.00    +0.000 HD
ENDBRANCH  27  28
ENDBRANCH  24  27
ENDBRANCH  23  24
ENDBRANCH   4  23
TORSDOF 8
ENDMDL
MODEL 9
REMARK VINA RESULT:    -6.467      3.774      8.464
REMARK INTER + INTRA:         -10.265
REMARK INTER:                  -9.120
REMARK INTRA:                  -1.145
REMARK UNBOUND:                -0.962
REMARK  Name = 
REMARK  8 active torsions:
REMARK  status: ('A' for Active; 'I' for Inactive)
REMARK    1  A    between atoms: C_2  and  C_20
REMARK    2  A    between atoms: N_3  and  C_4
REMARK    3  A    between atoms: C_4  and  C_5
REMARK    4  A    between atoms: C_8  and  C_9
REMARK    5  A    between atoms: C_9  and  C_10
REMARK    6  A    between atoms: C_10  and  O_11
REMARK    7  A    between atoms: C_10  and  C_12
REMARK    8  A    between atoms: C_12  and  N_13
REMARK                            x       y       z     vdW  Elec       q    Type
REMARK                         _______ _______ _______ _____ _____    ______ ____
ROOT
ATOM      1  C   UNL     1      49.317   7.949  15.563  0.00  0.00    +0.000 A 
ATOM      2  C   UNL     1      50.682   7.702  15.394  0.00  0.00    +0.000 A 
ATOM      3  C   UNL     1      51.432   7.195  16.453  0.00  0.00    +0.000 A 
ATOM      4  C   UNL     1      50.798   6.943  17.664  0.00  0.00    +0.000 A 
ATOM      5  N   UNL     1      49.473   7.163  17.847  0.00  0.00    +0.000 NA
ATOM      6  C   UNL     1      48.774   7.685  16.813  0.00  0.00    +0.000 A 
ENDROOT
BRANCH   1   7
ATOM      7  C   UNL     1      48.474   8.512  14.459  0.00  0.00    +0.000 C 
BRANCH   7  10
ATOM      8  O   UNL     1      48.881   6.320  12.749  0.00  0.00    +0.000 OA
ATOM      9  C   UNL     1      47.768   6.492  13.237  0.00  0.00    +0.000 C 
ATOM     10  N   UNL     1      47.473   7.570  14.031  0.00  0.00    +0.000 N 
ATOM     11  H   UNL     1      46.608   7.567  14.561  0.00  0.00    +0.000 HD
BRANCH   9  12
ATOM     12  C   UNL     1      46.656   5.576  12.959  0.00  0.00    +0.000 A 
ATOM     13  C   UNL     1      46.745   4.241  13.328  0.00  0.00    +0.000 A 
ATOM     14  S   UNL     1      45.364   3.327  12.917  0.00  0.00    +0.000 S 
ATOM     15  C   UNL     1      44.583   4.695  12.270  0.00  0.00    +0.000 A 
ATOM     16  N   UNL     1      43.325   4.609  11.755  0.00  0.00    +0.000 NA
ATOM     17  C   UNL     1      42.841   5.733  11.338  0.00  0.00    +0.000 A 
ATOM     18  N   UNL     1      43.505   6.929  11.374  0.00  0.00    +0.000 N 
ATOM     19  C   UNL     1      44.805   7.050  11.806  0.00  0.00    +0.000 A 
ATOM     20  O   UNL     1      45.412   8.108  11.690  0.00  0.00    +0.000 OA
ATOM     21  C   UNL     1      45.375   5.825  12.338  0.00  0.00    +0.000 A 
ATOM     22  H   UNL     1      43.080   7.764  10.997  0.00  0.00    +0.000 HD
ENDBRANCH   9  12
ENDBRANCH   7  10
ENDBRANCH   1   7
BRANCH   4  23
ATOM     23  C   UNL     1      51.552   6.378  18.842  0.00  0.00    +0.000 C 
BRANCH  23  24
ATOM     24  C   UNL     1      51.576   4.841  18.895  0.00  0.00    +0.000 C 
BRANCH  24  25
ATOM     25  O   UNL     1      50.816   4.340  20.004  0.00  0.00    +0.000 OA
ATOM     26  H   UNL     1      50.088   4.971  20.171  0.00  0.00    +0.000 HD
ENDBRANCH  24  25
BRANCH  24  27
ATOM     27  C   UNL     1      51.098   4.133  17.607  0.00  0.00    +0.000 C 
BRANCH  27  28
ATOM     28  N   UNL     1      50.001   3.168  17.789  0.00  0.00    +0.000 NA
ATOM     29  C   UNL     1      48.728   3.637  17.213  0.00  0.00    +0.000 C 
ATOM     30  C   UNL     1      48.221   2.474  16.376  0.00  0.00    +0.000 C 
ATOM     31  N   UNL     1      49.452   1.803  15.959  0.00  0.00    +0.000 NA
ATOM     32  C   UNL     1      50.296   1.892  17.141  0.00  0.00    +0.000 C 
ATOM     33  H   UNL     1      49.894   2.363  15.233  0.00  0.00    +0.000 HD
ENDBRANCH  27  28
ENDBRANCH  24  27
ENDBRANCH  23  24
ENDBRANCH   4  23
TORSDOF 8
ENDMDL
