MODEL 1
REMARK VINA RESULT:    -7.217      0.000      0.000
REMARK INTER + INTRA:          -9.829
REMARK INTER:                  -9.326
REMARK INTRA:                  -0.502
REMARK UNBOUND:                -0.502
REMARK  Name = 
REMARK  5 active torsions:
REMARK  status: ('A' for Active; 'I' for Inactive)
REMARK    1  A    between atoms: C_2  and  C_3
REMARK    2  A    between atoms: C_5  and  N_6
REMARK    3  A    between atoms: N_6  and  C_7
REMARK    4  A    between atoms: C_7  and  C_8
REMARK    5  A    between atoms: C_8  and  C_11
REMARK                            x       y       z     vdW  Elec       q    Type
REMARK                         _______ _______ _______ _____ _____    ______ ____
ROOT
ATOM      1  N   UNL     1      44.799   4.906  11.359  0.00  0.00    +0.000 N 
ATOM      2  H   UNL     1      44.101   5.628  11.195  0.00  0.00    +0.000 HD
ENDROOT
BRANCH   1   5
ATOM      3  C   UNL     1      47.006   4.759  14.316  0.00  0.00    +0.000 A 
ATOM      4  C   UNL     1      45.987   4.414  13.435  0.00  0.00    +0.000 A 
ATOM      5  C   UNL     1      45.824   5.143  12.256  0.00  0.00    +0.000 A 
ATOM      6  C   UNL     1      46.705   6.200  12.029  0.00  0.00    +0.000 A 
ATOM      7  C   UNL     1      47.698   6.472  12.958  0.00  0.00    +0.000 A 
ATOM      8  N   UNL     1      47.871   5.776  14.100  0.00  0.00    +0.000 NA
BRANCH   3  10
ATOM      9  N   UNL     1      47.256   3.424  16.531  0.00  0.00    +0.000 NA
ATOM     10  C   UNL     1      47.174   4.029  15.544  0.00  0.00    +0.000 C 
ENDBRANCH   3  10
ENDBRANCH   1   5
BRANCH   1  11
ATOM     11  C   UNL     1      44.823   3.776  10.413  0.00  0.00    +0.000 C 
BRANCH  11  12
ATOM     12  C   UNL     1      45.078   4.186   8.945  0.00  0.00    +0.000 C 
ATOM     13  F   UNL     1      43.870   4.441   8.349  0.00  0.00    +0.000 F 
ATOM     14  F   UNL     1      45.729   5.393   8.943  0.00  0.00    +0.000 F 
BRANCH  12  15
ATOM     15  C   UNL     1      45.864   3.116   8.198  0.00  0.00    +0.000 A 
ATOM     16  C   UNL     1      46.650   3.493   7.110  0.00  0.00    +0.000 A 
ATOM     17  C   UNL     1      47.360   2.514   6.421  0.00  0.00    +0.000 A 
ATOM     18  C   UNL     1      47.278   1.190   6.833  0.00  0.00    +0.000 A 
ATOM     19  C   UNL     1      46.483   0.891   7.924  0.00  0.00    +0.000 A 
ATOM     20  N   UNL     1      45.780   1.818   8.610  0.00  0.00    +0.000 NA
ENDBRANCH  12  15
ENDBRANCH  11  12
ENDBRANCH   1  11
TORSDOF 5
ENDMDL
MODEL 2
REMARK VINA RESULT:    -7.049      2.263      6.097
REMARK INTER + INTRA:          -9.612
REMARK INTER:                  -8.979
REMARK INTRA:                  -0.633
REMARK UNBOUND:                -0.502
REMARK  Name = 
REMARK  5 active torsions:
REMARK  status: ('A' for Active; 'I' for Inactive)
REMARK    1  A    between atoms: C_2  and  C_3
REMARK    2  A    between atoms: C_5  and  N_6
REMARK    3  A    between atoms: N_6  and  C_7
REMARK    4  A    between atoms: C_7  and  C_8
REMARK    5  A    between atoms: C_8  and  C_11
REMARK                            x       y       z     vdW  Elec       q    Type
REMARK                         _______ _______ _______ _____ _____    ______ ____
ROOT
ATOM      1  N   UNL     1      43.612   3.282  10.615  0.00  0.00    +0.000 N 
ATOM      2  H   UNL     1      43.342   2.429  11.098  0.00  0.00    +0.000 HD
ENDROOT
BRANCH   1   5
ATOM      3  C   UNL     1      46.051   2.048   8.133  0.00  0.00    +0.000 A 
ATOM      4  C   UNL     1      45.074   2.019   9.121  0.00  0.00    +0.000 A 
ATOM      5  C   UNL     1      44.539   3.220   9.592  0.00  0.00    +0.000 A 
ATOM      6  C   UNL     1      45.032   4.401   9.038  0.00  0.00    +0.000 A 
ATOM      7  C   UNL     1      46.004   4.338   8.051  0.00  0.00    +0.000 A 
ATOM      8  N   UNL     1      46.528   3.188   7.583  0.00  0.00    +0.000 NA
BRANCH   3  10
ATOM      9  N   UNL     1      47.124  -0.141   7.233  0.00  0.00    +0.000 NA
ATOM     10  C   UNL     1      46.624   0.819   7.651  0.00  0.00    +0.000 C 
ENDBRANCH   3  10
ENDBRANCH   1   5
BRANCH   1  11
ATOM     11  C   UNL     1      43.208   4.556  11.239  0.00  0.00    +0.000 C 
BRANCH  11  12
ATOM     12  C   UNL     1      43.519   4.646  12.750  0.00  0.00    +0.000 C 
ATOM     13  F   UNL     1      42.623   5.509  13.326  0.00  0.00    +0.000 F 
ATOM     14  F   UNL     1      43.245   3.429  13.319  0.00  0.00    +0.000 F 
BRANCH  12  15
ATOM     15  C   UNL     1      44.959   5.076  12.997  0.00  0.00    +0.000 A 
ATOM     16  C   UNL     1      45.451   6.199  12.334  0.00  0.00    +0.000 A 
ATOM     17  C   UNL     1      46.770   6.587  12.552  0.00  0.00    +0.000 A 
ATOM     18  C   UNL     1      47.563   5.856  13.427  0.00  0.00    +0.000 A 
ATOM     19  C   UNL     1      47.006   4.757  14.055  0.00  0.00    +0.000 A 
ATOM     20  N   UNL     1      45.731   4.354  13.859  0.00  0.00    +0.000 NA
ENDBRANCH  12  15
ENDBRANCH  11  12
ENDBRANCH   1  11
TORSDOF 5
ENDMDL
MODEL 3
REMARK VINA RESULT:    -6.799      1.787      2.843
REMARK INTER + INTRA:          -9.289
REMARK INTER:                  -8.812
REMARK INTRA:                  -0.478
REMARK UNBOUND:                -0.502
REMARK  Name = 
REMARK  5 active torsions:
REMARK  status: ('A' for Active; 'I' for Inactive)
REMARK    1  A    between atoms: C_2  and  C_3
REMARK    2  A    between atoms: C_5  and  N_6
REMARK    3  A    between atoms: N_6  and  C_7
REMARK    4  A    between atoms: C_7  and  C_8
REMARK    5  A    between atoms: C_8  and  C_11
REMARK                            x       y       z     vdW  Elec       q    Type
REMARK                         _______ _______ _______ _____ _____    ______ ____
ROOT
ATOM      1  N   UNL     1      44.220   4.499  11.205  0.00  0.00    +0.000 N 
ATOM      2  H   UNL     1      43.204   4.532  11.166  0.00  0.00    +0.000 HD
ENDROOT
BRANCH   1   5
ATOM      3  C   UNL     1      45.350   7.817  12.365  0.00  0.00    +0.000 A 
ATOM      4  C   UNL     1      44.565   6.857  11.736  0.00  0.00    +0.000 A 
ATOM      5  C   UNL     1      44.908   5.509  11.850  0.00  0.00    +0.000 A 
ATOM      6  C   UNL     1      46.044   5.198  12.597  0.00  0.00    +0.000 A 
ATOM      7  C   UNL     1      46.767   6.218  13.197  0.00  0.00    +0.000 A 
ATOM      8  N   UNL     1      46.448   7.524  13.099  0.00  0.00    +0.000 NA
BRANCH   3  10
ATOM      9  N   UNL     1      44.699  10.323  12.149  0.00  0.00    +0.000 NA
ATOM     10  C   UNL     1      45.020   9.212  12.241  0.00  0.00    +0.000 C 
ENDBRANCH   3  10
ENDBRANCH   1   5
BRANCH   1  11
ATOM     11  C   UNL     1      44.889   3.527  10.321  0.00  0.00    +0.000 C 
BRANCH  11  12
ATOM     12  C   UNL     1      45.143   4.046   8.888  0.00  0.00    +0.000 C 
ATOM     13  F   UNL     1      43.933   4.325   8.307  0.00  0.00    +0.000 F 
ATOM     14  F   UNL     1      45.775   5.259   8.976  0.00  0.00    +0.000 F 
BRANCH  12  15
ATOM     15  C   UNL     1      45.947   3.045   8.069  0.00  0.00    +0.000 A 
ATOM     16  C   UNL     1      46.633   3.493   6.941  0.00  0.00    +0.000 A 
ATOM     17  C   UNL     1      47.361   2.577   6.186  0.00  0.00    +0.000 A 
ATOM     18  C   UNL     1      47.394   1.244   6.574  0.00  0.00    +0.000 A 
ATOM     19  C   UNL     1      46.695   0.872   7.708  0.00  0.00    +0.000 A 
ATOM     20  N   UNL     1      45.977   1.737   8.457  0.00  0.00    +0.000 NA
ENDBRANCH  12  15
ENDBRANCH  11  12
ENDBRANCH   1  11
TORSDOF 5
ENDMDL
MODEL 4
REMARK VINA RESULT:    -6.724      1.672      2.350
REMARK INTER + INTRA:          -9.191
REMARK INTER:                  -8.389
REMARK INTRA:                  -0.803
REMARK UNBOUND:                -0.502
REMARK  Name = 
REMARK  5 active torsions:
REMARK  status: ('A' for Active; 'I' for Inactive)
REMARK    1  A    between atoms: C_2  and  C_3
REMARK    2  A    between atoms: C_5  and  N_6
REMARK    3  A    between atoms: N_6  and  C_7
REMARK    4  A    between atoms: C_7  and  C_8
REMARK    5  A    between atoms: C_8  and  C_11
REMARK                            x       y       z     vdW  Elec       q    Type
REMARK                         _______ _______ _______ _____ _____    ______ ____
ROOT
ATOM      1  N   UNL     1      46.367   5.667  11.662  0.00  0.00    +0.000 N 
ATOM      2  H   UNL     1      46.803   5.222  10.858  0.00  0.00    +0.000 HD
ENDROOT
BRANCH   1   5
ATOM      3  C   UNL     1      47.376   4.914  15.134  0.00  0.00    +0.000 A 
ATOM      4  C   UNL     1      46.708   4.800  13.920  0.00  0.00    +0.000 A 
ATOM      5  C   UNL     1      47.027   5.671  12.877  0.00  0.00    +0.000 A 
ATOM      6  C   UNL     1      48.012   6.628  13.121  0.00  0.00    +0.000 A 
ATOM      7  C   UNL     1      48.634   6.667  14.359  0.00  0.00    +0.000 A 
ATOM      8  N   UNL     1      48.339   5.832  15.376  0.00  0.00    +0.000 NA
BRANCH   3  10
ATOM      9  N   UNL     1      46.827   3.299  17.094  0.00  0.00    +0.000 NA
ATOM     10  C   UNL     1      47.045   4.035  16.224  0.00  0.00    +0.000 C 
ENDBRANCH   3  10
ENDBRANCH   1   5
BRANCH   1  11
ATOM     11  C   UNL     1      44.941   6.017  11.538  0.00  0.00    +0.000 C 
BRANCH  11  12
ATOM     12  C   UNL     1      44.052   4.870  11.007  0.00  0.00    +0.000 C 
ATOM     13  F   UNL     1      43.721   4.055  12.059  0.00  0.00    +0.000 F 
ATOM     14  F   UNL     1      42.859   5.406  10.594  0.00  0.00    +0.000 F 
BRANCH  12  15
ATOM     15  C   UNL     1      44.745   4.100   9.890  0.00  0.00    +0.000 A 
ATOM     16  C   UNL     1      44.673   2.709   9.885  0.00  0.00    +0.000 A 
ATOM     17  C   UNL     1      45.315   2.004   8.870  0.00  0.00    +0.000 A 
ATOM     18  C   UNL     1      46.005   2.699   7.885  0.00  0.00    +0.000 A 
ATOM     19  C   UNL     1      46.028   4.080   7.951  0.00  0.00    +0.000 A 
ATOM     20  N   UNL     1      45.419   4.790   8.925  0.00  0.00    +0.000 NA
ENDBRANCH  12  15
ENDBRANCH  11  12
ENDBRANCH   1  11
TORSDOF 5
ENDMDL
MODEL 5
REMARK VINA RESULT:    -6.648      1.728      2.144
REMARK INTER + INTRA:          -9.094
REMARK INTER:                  -8.723
REMARK INTRA:                  -0.371
REMARK UNBOUND:                -0.502
REMARK  Name = 
REMARK  5 active torsions:
REMARK  status: ('A' for Active; 'I' for Inactive)
REMARK    1  A    between atoms: C_2  and  C_3
REMARK    2  A    between atoms: C_5  and  N_6
REMARK    3  A    between atoms: N_6  and  C_7
REMARK    4  A    between atoms: C_7  and  C_8
REMARK    5  A    between atoms: C_8  and  C_11
REMARK                            x       y       z     vdW  Elec       q    Type
REMARK                         _______ _______ _______ _____ _____    ______ ____
ROOT
ATOM      1  N   UNL     1      44.745   5.600  10.618  0.00  0.00    +0.000 N 
ATOM      2  H   UNL     1      44.022   5.911   9.974  0.00  0.00    +0.000 HD
ENDROOT
BRANCH   1   5
ATOM      3  C   UNL     1      47.087   7.196  12.985  0.00  0.00    +0.000 A 
ATOM      4  C   UNL     1      46.531   6.222  12.163  0.00  0.00    +0.000 A 
ATOM      5  C   UNL     1      45.396   6.528  11.410  0.00  0.00    +0.000 A 
ATOM      6  C   UNL     1      44.871   7.814  11.534  0.00  0.00    +0.000 A 
ATOM      7  C   UNL     1      45.493   8.726  12.373  0.00  0.00    +0.000 A 
ATOM      8  N   UNL     1      46.591   8.449  13.105  0.00  0.00    +0.000 NA
BRANCH   3  10
ATOM      9  N   UNL     1      49.206   6.690  14.401  0.00  0.00    +0.000 NA
ATOM     10  C   UNL     1      48.246   6.891  13.781  0.00  0.00    +0.000 C 
ENDBRANCH   3  10
ENDBRANCH   1   5
BRANCH   1  11
ATOM     11  C   UNL     1      45.240   4.222  10.447  0.00  0.00    +0.000 C 
BRANCH  11  12
ATOM     12  C   UNL     1      44.596   3.461   9.267  0.00  0.00    +0.000 C 
ATOM     13  F   UNL     1      43.699   2.555   9.773  0.00  0.00    +0.000 F 
ATOM     14  F   UNL     1      43.830   4.345   8.551  0.00  0.00    +0.000 F 
BRANCH  12  15
ATOM     15  C   UNL     1      45.650   2.789   8.397  0.00  0.00    +0.000 A 
ATOM     16  C   UNL     1      46.369   3.564   7.490  0.00  0.00    +0.000 A 
ATOM     17  C   UNL     1      47.326   2.949   6.687  0.00  0.00    +0.000 A 
ATOM     18  C   UNL     1      47.548   1.584   6.811  0.00  0.00    +0.000 A 
ATOM     19  C   UNL     1      46.801   0.879   7.737  0.00  0.00    +0.000 A 
ATOM     20  N   UNL     1      45.864   1.447   8.525  0.00  0.00    +0.000 NA
ENDBRANCH  12  15
ENDBRANCH  11  12
ENDBRANCH   1  11
TORSDOF 5
ENDMDL
MODEL 6
REMARK VINA RESULT:    -6.571      2.159      3.208
REMARK INTER + INTRA:          -8.993
REMARK INTER:                  -8.435
REMARK INTRA:                  -0.558
REMARK UNBOUND:                -0.502
REMARK  Name = 
REMARK  5 active torsions:
REMARK  status: ('A' for Active; 'I' for Inactive)
REMARK    1  A    between atoms: C_2  and  C_3
REMARK    2  A    between atoms: C_5  and  N_6
REMARK    3  A    between atoms: N_6  and  C_7
REMARK    4  A    between atoms: C_7  and  C_8
REMARK    5  A    between atoms: C_8  and  C_11
REMARK                            x       y       z     vdW  Elec       q    Type
REMARK                         _______ _______ _______ _____ _____    ______ ____
ROOT
ATOM      1  N   UNL     1      44.712   4.496  12.798  0.00  0.00    +0.000 N 
ATOM      2  H   UNL     1      43.769   4.455  13.179  0.00  0.00    +0.000 HD
ENDROOT
BRANCH   1   5
ATOM      3  C   UNL     1      45.673   8.058  12.655  0.00  0.00    +0.000 A 
ATOM      4  C   UNL     1      44.867   6.926  12.613  0.00  0.00    +0.000 A 
ATOM      5  C   UNL     1      45.428   5.675  12.881  0.00  0.00    +0.000 A 
ATOM      6  C   UNL     1      46.791   5.634  13.172  0.00  0.00    +0.000 A 
ATOM      7  C   UNL     1      47.519   6.813  13.199  0.00  0.00    +0.000 A 
ATOM      8  N   UNL     1      46.993   8.028  12.946  0.00  0.00    +0.000 NA
BRANCH   3  10
ATOM      9  N   UNL     1      44.613  10.375  12.147  0.00  0.00    +0.000 NA
ATOM     10  C   UNL     1      45.114   9.351  12.363  0.00  0.00    +0.000 C 
ENDBRANCH   3  10
ENDBRANCH   1   5
BRANCH   1  11
ATOM     11  C   UNL     1      45.130   3.377  11.933  0.00  0.00    +0.000 C 
BRANCH  11  12
ATOM     12  C   UNL     1      44.256   3.193  10.673  0.00  0.00    +0.000 C 
ATOM     13  F   UNL     1      43.409   2.135  10.882  0.00  0.00    +0.000 F 
ATOM     14  F   UNL     1      43.430   4.282  10.559  0.00  0.00    +0.000 F 
BRANCH  12  15
ATOM     15  C   UNL     1      45.110   2.996   9.427  0.00  0.00    +0.000 A 
ATOM     16  C   UNL     1      45.426   4.105   8.644  0.00  0.00    +0.000 A 
ATOM     17  C   UNL     1      46.199   3.924   7.500  0.00  0.00    +0.000 A 
ATOM     18  C   UNL     1      46.643   2.651   7.168  0.00  0.00    +0.000 A 
ATOM     19  C   UNL     1      46.296   1.598   7.995  0.00  0.00    +0.000 A 
ATOM     20  N   UNL     1      45.544   1.743   9.108  0.00  0.00    +0.000 NA
ENDBRANCH  12  15
ENDBRANCH  11  12
ENDBRANCH   1  11
TORSDOF 5
ENDMDL
MODEL 7
REMARK VINA RESULT:    -6.532      2.034      3.211
REMARK INTER + INTRA:          -8.944
REMARK INTER:                  -7.999
REMARK INTRA:                  -0.945
REMARK UNBOUND:                -0.502
REMARK  Name = 
REMARK  5 active torsions:
REMARK  status: ('A' for Active; 'I' for Inactive)
REMARK    1  A    between atoms: C_2  and  C_3
REMARK    2  A    between atoms: C_5  and  N_6
REMARK    3  A    between atoms: N_6  and  C_7
REMARK    4  A    between atoms: C_7  and  C_8
REMARK    5  A    between atoms: C_8  and  C_11
REMARK                            x       y       z     vdW  Elec       q    Type
REMARK                         _______ _______ _______ _____ _____    ______ ____
ROOT
ATOM      1  N   UNL     1      45.218   3.886  13.022  0.00  0.00    +0.000 N 
ATOM      2  H   UNL     1      45.361   2.880  12.975  0.00  0.00    +0.000 HD
ENDROOT
BRANCH   1   5
ATOM      3  C   UNL     1      47.932   6.389  13.134  0.00  0.00    +0.000 A 
ATOM      4  C   UNL     1      46.857   5.657  12.641  0.00  0.00    +0.000 A 
ATOM      5  C   UNL     1      46.249   4.699  13.455  0.00  0.00    +0.000 A 
ATOM      6  C   UNL     1      46.770   4.524  14.737  0.00  0.00    +0.000 A 
ATOM      7  C   UNL     1      47.841   5.302  15.151  0.00  0.00    +0.000 A 
ATOM      8  N   UNL     1      48.438   6.232  14.379  0.00  0.00    +0.000 NA
BRANCH   3  10
ATOM      9  N   UNL     1      49.141   8.114  11.614  0.00  0.00    +0.000 NA
ATOM     10  C   UNL     1      48.580   7.366  12.301  0.00  0.00    +0.000 C 
ENDBRANCH   3  10
ENDBRANCH   1   5
BRANCH   1  11
ATOM     11  C   UNL     1      43.831   4.369  12.897  0.00  0.00    +0.000 C 
BRANCH  11  12
ATOM     12  C   UNL     1      43.484   4.942  11.505  0.00  0.00    +0.000 C 
ATOM     13  F   UNL     1      42.119   4.959  11.370  0.00  0.00    +0.000 F 
ATOM     14  F   UNL     1      43.852   6.262  11.478  0.00  0.00    +0.000 F 
BRANCH  12  15
ATOM     15  C   UNL     1      44.152   4.143  10.392  0.00  0.00    +0.000 A 
ATOM     16  C   UNL     1      44.966   4.811   9.479  0.00  0.00    +0.000 A 
ATOM     17  C   UNL     1      45.570   4.083   8.457  0.00  0.00    +0.000 A 
ATOM     18  C   UNL     1      45.355   2.714   8.372  0.00  0.00    +0.000 A 
ATOM     19  C   UNL     1      44.539   2.118   9.317  0.00  0.00    +0.000 A 
ATOM     20  N   UNL     1      43.938   2.798  10.317  0.00  0.00    +0.000 NA
ENDBRANCH  12  15
ENDBRANCH  11  12
ENDBRANCH   1  11
TORSDOF 5
ENDMDL
MODEL 8
REMARK VINA RESULT:    -6.379      1.582      2.656
REMARK INTER + INTRA:          -8.746
REMARK INTER:                  -8.259
REMARK INTRA:                  -0.487
REMARK UNBOUND:                -0.502
REMARK  Name = 
REMARK  5 active torsions:
REMARK  status: ('A' for Active; 'I' for Inactive)
REMARK    1  A    between atoms: C_2  and  C_3
REMARK    2  A    between atoms: C_5  and  N_6
REMARK    3  A    between atoms: N_6  and  C_7
REMARK    4  A    between atoms: C_7  and  C_8
REMARK    5  A    between atoms: C_8  and  C_11
REMARK                            x       y       z     vdW  Elec       q    Type
REMARK                         _______ _______ _______ _____ _____    ______ ____
ROOT
ATOM      1  N   UNL     1      45.147   5.843  12.142  0.00  0.00    +0.000 N 
ATOM      2  H   UNL     1      44.266   6.294  12.376  0.00  0.00    +0.000 HD
ENDROOT
BRANCH   1   5
ATOM      3  C   UNL     1      48.213   6.467  14.102  0.00  0.00    +0.000 A 
ATOM      4  C   UNL     1      47.216   6.656  13.151  0.00  0.00    +0.000 A 
ATOM      5  C   UNL     1      46.144   5.763  13.095  0.00  0.00    +0.000 A 
ATOM      6  C   UNL     1      46.140   4.709  14.009  0.00  0.00    +0.000 A 
ATOM      7  C   UNL     1      47.172   4.599  14.928  0.00  0.00    +0.000 A 
ATOM      8  N   UNL     1      48.212   5.453  14.998  0.00  0.00    +0.000 NA
BRANCH   3  10
ATOM      9  N   UNL     1      50.214   8.117  14.253  0.00  0.00    +0.000 NA
ATOM     10  C   UNL     1      49.334   7.368  14.160  0.00  0.00    +0.000 C 
ENDBRANCH   3  10
ENDBRANCH   1   5
BRANCH   1  11
ATOM     11  C   UNL     1      45.395   5.567  10.715  0.00  0.00    +0.000 C 
BRANCH  11  12
ATOM     12  C   UNL     1      44.600   4.367  10.155  0.00  0.00    +0.000 C 
ATOM     13  F   UNL     1      44.298   3.524  11.194  0.00  0.00    +0.000 F 
ATOM     14  F   UNL     1      43.384   4.824   9.713  0.00  0.00    +0.000 F 
BRANCH  12  15
ATOM     15  C   UNL     1      45.372   3.653   9.053  0.00  0.00    +0.000 A 
ATOM     16  C   UNL     1      45.479   2.264   9.095  0.00  0.00    +0.000 A 
ATOM     17  C   UNL     1      46.193   1.612   8.093  0.00  0.00    +0.000 A 
ATOM     18  C   UNL     1      46.775   2.354   7.074  0.00  0.00    +0.000 A 
ATOM     19  C   UNL     1      46.623   3.728   7.094  0.00  0.00    +0.000 A 
ATOM     20  N   UNL     1      45.940   4.388   8.054  0.00  0.00    +0.000 NA
ENDBRANCH  12  15
ENDBRANCH  11  12
ENDBRANCH   1  11
TORSDOF 5
ENDMDL
MODEL 9
REMARK VINA RESULT:    -6.188      2.422      3.640
REMARK INTER + INTRA:          -8.499
REMARK INTER:                  -7.689
REMARK INTRA:                  -0.810
REMARK UNBOUND:                -0.502
REMARK  Name = 
REMARK  5 active torsions:
REMARK  status: ('A' for Active; 'I' for Inactive)
REMARK    1  A    between atoms: C_2  and  C_3
REMARK    2  A    between atoms: C_5  and  N_6
REMARK    3  A    between atoms: N_6  and  C_7
REMARK    4  A    between atoms: C_7  and  C_8
REMARK    5  A    between atoms: C_8  and  C_11
REMARK                            x       y       z     vdW  Elec       q    Type
REMARK                         _______ _______ _______ _____ _____    ______ ____
ROOT
ATOM      1  N   UNL     1      45.896   5.248  11.876  0.00  0.00    +0.000 N 
ATOM      2  H   UNL     1      46.634   4.571  11.697  0.00  0.00    +0.000 HD
ENDROOT
BRANCH   1   5
ATOM      3  C   UNL     1      47.770   8.419  12.137  0.00  0.00    +0.000 A 
ATOM      4  C   UNL     1      47.504   7.085  11.847  0.00  0.00    +0.000 A 
ATOM      5  C   UNL     1      46.225   6.576  12.076  0.00  0.00    +0.000 A 
ATOM      6  C   UNL     1      45.271   7.449  12.599  0.00  0.00    +0.000 A 
ATOM      7  C   UNL     1      45.620   8.767  12.852  0.00  0.00    +0.000 A 
ATOM      8  N   UNL     1      46.849   9.276  12.635  0.00  0.00    +0.000 NA
BRANCH   3  10
ATOM      9  N   UNL     1      50.137   9.429  11.784  0.00  0.00    +0.000 NA
ATOM     10  C   UNL     1      49.089   8.954  11.923  0.00  0.00    +0.000 C 
ENDBRANCH   3  10
ENDBRANCH   1   5
BRANCH   1  11
ATOM     11  C   UNL     1      44.561   4.709  12.193  0.00  0.00    +0.000 C 
BRANCH  11  12
ATOM     12  C   UNL     1      43.705   4.370  10.952  0.00  0.00    +0.000 C 
ATOM     13  F   UNL     1      42.697   3.525  11.338  0.00  0.00    +0.000 F 
ATOM     14  F   UNL     1      43.066   5.512  10.544  0.00  0.00    +0.000 F 
BRANCH  12  15
ATOM     15  C   UNL     1      44.554   3.767   9.839  0.00  0.00    +0.000 A 
ATOM     16  C   UNL     1      44.639   2.380   9.732  0.00  0.00    +0.000 A 
ATOM     17  C   UNL     1      45.422   1.829   8.721  0.00  0.00    +0.000 A 
ATOM     18  C   UNL     1      46.093   2.668   7.841  0.00  0.00    +0.000 A 
ATOM     19  C   UNL     1      45.957   4.034   8.004  0.00  0.00    +0.000 A 
ATOM     20  N   UNL     1      45.208   4.597   8.977  0.00  0.00    +0.000 NA
ENDBRANCH  12  15
ENDBRANCH  11  12
ENDBRANCH   1  11
TORSDOF 5
ENDMDL
