MODEL 1
REMARK VINA RESULT:    -7.553      0.000      0.000
REMARK INTER + INTRA:         -10.780
REMARK INTER:                  -9.982
REMARK INTRA:                  -0.798
REMARK UNBOUND:                -0.798
REMARK  Name = 
REMARK  6 active torsions:
REMARK  status: ('A' for Active; 'I' for Inactive)
REMARK    1  A    between atoms: C_2  and  C_4
REMARK    2  A    between atoms: C_7  and  CA_8
REMARK    3  A    between atoms: CA_8  and  C_9
REMARK    4  A    between atoms: CA_8  and  N_11
REMARK    5  A    between atoms: C_9  and  O_10
REMARK    6  A    between atoms: N_11  and  C_12
REMARK                            x       y       z     vdW  Elec       q    Type
REMARK                         _______ _______ _______ _____ _____    ______ ____
ROOT
ATOM      1  CA  UNL     1      44.603   3.385  10.584  0.00  0.00    +0.000 C 
ENDROOT
BRANCH   1   5
ATOM      2  C   UNL     1      46.487   6.571  12.740  0.00  0.00    +0.000 A 
ATOM      3  C   UNL     1      46.208   6.745  11.385  0.00  0.00    +0.000 A 
ATOM      4  C   UNL     1      45.595   5.711  10.675  0.00  0.00    +0.000 A 
ATOM      5  C   UNL     1      45.284   4.523  11.337  0.00  0.00    +0.000 A 
ATOM      6  N   UNL     1      45.579   4.327  12.651  0.00  0.00    +0.000 NA
ATOM      7  C   UNL     1      46.169   5.350  13.319  0.00  0.00    +0.000 A 
BRANCH   2   9
ATOM      8  N   UNL     1      46.450   8.789  13.733  0.00  0.00    +0.000 N 
ATOM      9  C   UNL     1      47.128   7.609  13.573  0.00  0.00    +0.000 C 
ATOM     10  O   UNL     1      48.198   7.409  14.133  0.00  0.00    +0.000 OA
ATOM     11  H   UNL     1      46.857   9.445  14.386  0.00  0.00    +0.000 HD
ATOM     12  H   UNL     1      45.471   8.890  13.510  0.00  0.00    +0.000 HD
ENDBRANCH   2   9
ENDBRANCH   1   5
BRANCH   1  13
ATOM     13  N   UNL     1      44.227   3.738   9.181  0.00  0.00    +0.000 NA
ATOM     14  H   UNL     1      44.486   4.726   9.071  0.00  0.00    +0.000 HD
BRANCH  13  15
ATOM     15  C   UNL     1      44.983   2.986   8.150  0.00  0.00    +0.000 C 
ATOM     16  C   UNL     1      45.620   1.747   8.811  0.00  0.00    +0.000 C 
ATOM     17  C   UNL     1      46.461   0.927   7.823  0.00  0.00    +0.000 C 
ATOM     18  C   UNL     1      47.508   1.784   7.114  0.00  0.00    +0.000 C 
ATOM     19  C   UNL     1      46.871   3.002   6.459  0.00  0.00    +0.000 C 
ATOM     20  C   UNL     1      46.081   3.825   7.475  0.00  0.00    +0.000 C 
ENDBRANCH  13  15
ENDBRANCH   1  13
BRANCH   1  21
ATOM     21  C   UNL     1      43.347   2.944  11.379  0.00  0.00    +0.000 C 
BRANCH  21  22
ATOM     22  O   UNL     1      43.701   2.171  12.529  0.00  0.00    +0.000 OA
ATOM     23  H   UNL     1      44.276   2.751  13.065  0.00  0.00    +0.000 HD
ENDBRANCH  21  22
ENDBRANCH   1  21
TORSDOF 6
ENDMDL
MODEL 2
REMARK VINA RESULT:    -7.511      1.702      1.852
REMARK INTER + INTRA:         -10.724
REMARK INTER:                  -9.972
REMARK INTRA:                  -0.751
REMARK UNBOUND:                -0.798
REMARK  Name = 
REMARK  6 active torsions:
REMARK  status: ('A' for Active; 'I' for Inactive)
REMARK    1  A    between atoms: C_2  and  C_4
REMARK    2  A    between atoms: C_7  and  CA_8
REMARK    3  A    between atoms: CA_8  and  C_9
REMARK    4  A    between atoms: CA_8  and  N_11
REMARK    5  A    between atoms: C_9  and  O_10
REMARK    6  A    between atoms: N_11  and  C_12
REMARK                            x       y       z     vdW  Elec       q    Type
REMARK                         _______ _______ _______ _____ _____    ______ ____
ROOT
ATOM      1  CA  UNL     1      43.882   4.628  11.265  0.00  0.00    +0.000 C 
ENDROOT
BRANCH   1   5
ATOM      2  C   UNL     1      47.175   5.861  13.713  0.00  0.00    +0.000 A 
ATOM      3  C   UNL     1      46.917   6.552  12.529  0.00  0.00    +0.000 A 
ATOM      4  C   UNL     1      45.846   6.156  11.726  0.00  0.00    +0.000 A 
ATOM      5  C   UNL     1      45.064   5.070  12.122  0.00  0.00    +0.000 A 
ATOM      6  N   UNL     1      45.324   4.366  13.256  0.00  0.00    +0.000 NA
ATOM      7  C   UNL     1      46.366   4.776  14.022  0.00  0.00    +0.000 A 
BRANCH   2   9
ATOM      8  N   UNL     1      48.081   5.985  15.964  0.00  0.00    +0.000 N 
ATOM      9  C   UNL     1      48.281   6.210  14.627  0.00  0.00    +0.000 C 
ATOM     10  O   UNL     1      49.348   6.639  14.207  0.00  0.00    +0.000 OA
ATOM     11  H   UNL     1      48.884   6.134  16.560  0.00  0.00    +0.000 HD
ATOM     12  H   UNL     1      47.335   5.401  16.313  0.00  0.00    +0.000 HD
ENDBRANCH   2   9
ENDBRANCH   1   5
BRANCH   1  13
ATOM     13  N   UNL     1      43.978   5.070   9.841  0.00  0.00    +0.000 NA
ATOM     14  H   UNL     1      44.716   5.785   9.827  0.00  0.00    +0.000 HD
BRANCH  13  15
ATOM     15  C   UNL     1      44.408   4.000   8.908  0.00  0.00    +0.000 C 
ATOM     16  C   UNL     1      44.535   2.680   9.695  0.00  0.00    +0.000 C 
ATOM     17  C   UNL     1      45.019   1.521   8.815  0.00  0.00    +0.000 C 
ATOM     18  C   UNL     1      46.314   1.861   8.081  0.00  0.00    +0.000 C 
ATOM     19  C   UNL     1      46.180   3.162   7.301  0.00  0.00    +0.000 C 
ATOM     20  C   UNL     1      45.745   4.308   8.211  0.00  0.00    +0.000 C 
ENDBRANCH  13  15
ENDBRANCH   1  13
BRANCH   1  21
ATOM     21  C   UNL     1      42.576   5.166  11.905  0.00  0.00    +0.000 C 
BRANCH  21  22
ATOM     22  O   UNL     1      42.777   5.534  13.272  0.00  0.00    +0.000 OA
ATOM     23  H   UNL     1      42.013   6.097  13.505  0.00  0.00    +0.000 HD
ENDBRANCH  21  22
ENDBRANCH   1  21
TORSDOF 6
ENDMDL
MODEL 3
REMARK VINA RESULT:    -7.294      2.445      5.884
REMARK INTER + INTRA:         -10.437
REMARK INTER:                 -10.109
REMARK INTRA:                  -0.328
REMARK UNBOUND:                -0.798
REMARK  Name = 
REMARK  6 active torsions:
REMARK  status: ('A' for Active; 'I' for Inactive)
REMARK    1  A    between atoms: C_2  and  C_4
REMARK    2  A    between atoms: C_7  and  CA_8
REMARK    3  A    between atoms: CA_8  and  C_9
REMARK    4  A    between atoms: CA_8  and  N_11
REMARK    5  A    between atoms: C_9  and  O_10
REMARK    6  A    between atoms: N_11  and  C_12
REMARK                            x       y       z     vdW  Elec       q    Type
REMARK                         _______ _______ _______ _____ _____    ______ ____
ROOT
ATOM      1  CA  UNL     1      43.839   3.940  10.641  0.00  0.00    +0.000 C 
ENDROOT
BRANCH   1   5
ATOM      2  C   UNL     1      46.545   2.677   7.569  0.00  0.00    +0.000 A 
ATOM      3  C   UNL     1      46.207   4.027   7.659  0.00  0.00    +0.000 A 
ATOM      4  C   UNL     1      45.326   4.446   8.656  0.00  0.00    +0.000 A 
ATOM      5  C   UNL     1      44.795   3.501   9.535  0.00  0.00    +0.000 A 
ATOM      6  N   UNL     1      45.088   2.177   9.439  0.00  0.00    +0.000 NA
ATOM      7  C   UNL     1      45.953   1.797   8.465  0.00  0.00    +0.000 A 
BRANCH   2   9
ATOM      8  N   UNL     1      47.751   2.946   5.477  0.00  0.00    +0.000 N 
ATOM      9  C   UNL     1      47.471   2.141   6.550  0.00  0.00    +0.000 C 
ATOM     10  O   UNL     1      48.000   1.045   6.679  0.00  0.00    +0.000 OA
ATOM     11  H   UNL     1      48.463   2.604   4.846  0.00  0.00    +0.000 HD
ATOM     12  H   UNL     1      47.547   3.934   5.467  0.00  0.00    +0.000 HD
ENDBRANCH   2   9
ENDBRANCH   1   5
BRANCH   1  13
ATOM     13  N   UNL     1      44.189   5.262  11.243  0.00  0.00    +0.000 NA
ATOM     14  H   UNL     1      43.543   5.380  12.034  0.00  0.00    +0.000 HD
BRANCH  13  15
ATOM     15  C   UNL     1      45.560   5.323  11.804  0.00  0.00    +0.000 C 
ATOM     16  C   UNL     1      45.477   5.131  13.333  0.00  0.00    +0.000 C 
ATOM     17  C   UNL     1      46.851   5.222  14.008  0.00  0.00    +0.000 C 
ATOM     18  C   UNL     1      47.583   6.512  13.645  0.00  0.00    +0.000 C 
ATOM     19  C   UNL     1      47.666   6.693  12.136  0.00  0.00    +0.000 C 
ATOM     20  C   UNL     1      46.280   6.647  11.497  0.00  0.00    +0.000 C 
ENDBRANCH  13  15
ENDBRANCH   1  13
BRANCH   1  21
ATOM     21  C   UNL     1      43.812   2.844  11.737  0.00  0.00    +0.000 C 
BRANCH  21  22
ATOM     22  O   UNL     1      42.941   1.768  11.379  0.00  0.00    +0.000 OA
ATOM     23  H   UNL     1      43.400   1.289  10.661  0.00  0.00    +0.000 HD
ENDBRANCH  21  22
ENDBRANCH   1  21
TORSDOF 6
ENDMDL
MODEL 4
REMARK VINA RESULT:    -7.048      1.957      2.443
REMARK INTER + INTRA:         -10.113
REMARK INTER:                  -9.343
REMARK INTRA:                  -0.770
REMARK UNBOUND:                -0.798
REMARK  Name = 
REMARK  6 active torsions:
REMARK  status: ('A' for Active; 'I' for Inactive)
REMARK    1  A    between atoms: C_2  and  C_4
REMARK    2  A    between atoms: C_7  and  CA_8
REMARK    3  A    between atoms: CA_8  and  C_9
REMARK    4  A    between atoms: CA_8  and  N_11
REMARK    5  A    between atoms: C_9  and  O_10
REMARK    6  A    between atoms: N_11  and  C_12
REMARK                            x       y       z     vdW  Elec       q    Type
REMARK                         _______ _______ _______ _____ _____    ______ ____
ROOT
ATOM      1  CA  UNL     1      44.556   3.276  11.042  0.00  0.00    +0.000 C 
ENDROOT
BRANCH   1   5
ATOM      2  C   UNL     1      44.568   7.546  11.396  0.00  0.00    +0.000 A 
ATOM      3  C   UNL     1      45.775   6.856  11.500  0.00  0.00    +0.000 A 
ATOM      4  C   UNL     1      45.780   5.465  11.387  0.00  0.00    +0.000 A 
ATOM      5  C   UNL     1      44.572   4.795  11.181  0.00  0.00    +0.000 A 
ATOM      6  N   UNL     1      43.383   5.452  11.110  0.00  0.00    +0.000 NA
ATOM      7  C   UNL     1      43.408   6.805  11.216  0.00  0.00    +0.000 A 
BRANCH   2   9
ATOM      8  N   UNL     1      44.744   9.578  12.717  0.00  0.00    +0.000 N 
ATOM      9  C   UNL     1      44.465   9.016  11.498  0.00  0.00    +0.000 C 
ATOM     10  O   UNL     1      44.188   9.707  10.528  0.00  0.00    +0.000 OA
ATOM     11  H   UNL     1      44.768  10.588  12.739  0.00  0.00    +0.000 HD
ATOM     12  H   UNL     1      45.221   9.077  13.452  0.00  0.00    +0.000 HD
ENDBRANCH   2   9
ENDBRANCH   1   5
BRANCH   1  13
ATOM     13  N   UNL     1      44.332   2.807   9.641  0.00  0.00    +0.000 NA
ATOM     14  H   UNL     1      43.758   3.537   9.199  0.00  0.00    +0.000 HD
BRANCH  13  15
ATOM     15  C   UNL     1      45.573   2.701   8.837  0.00  0.00    +0.000 C 
ATOM     16  C   UNL     1      45.473   3.672   7.643  0.00  0.00    +0.000 C 
ATOM     17  C   UNL     1      46.702   3.598   6.727  0.00  0.00    +0.000 C 
ATOM     18  C   UNL     1      46.987   2.171   6.265  0.00  0.00    +0.000 C 
ATOM     19  C   UNL     1      47.090   1.219   7.449  0.00  0.00    +0.000 C 
ATOM     20  C   UNL     1      45.834   1.277   8.315  0.00  0.00    +0.000 C 
ENDBRANCH  13  15
ENDBRANCH   1  13
BRANCH   1  21
ATOM     21  C   UNL     1      43.462   2.703  11.979  0.00  0.00    +0.000 C 
BRANCH  21  22
ATOM     22  O   UNL     1      43.516   3.305  13.275  0.00  0.00    +0.000 OA
ATOM     23  H   UNL     1      43.860   2.610  13.870  0.00  0.00    +0.000 HD
ENDBRANCH  21  22
ENDBRANCH   1  21
TORSDOF 6
ENDMDL
MODEL 5
REMARK VINA RESULT:    -6.854      1.887      2.407
REMARK INTER + INTRA:          -9.856
REMARK INTER:                  -9.184
REMARK INTRA:                  -0.672
REMARK UNBOUND:                -0.798
REMARK  Name = 
REMARK  6 active torsions:
REMARK  status: ('A' for Active; 'I' for Inactive)
REMARK    1  A    between atoms: C_2  and  C_4
REMARK    2  A    between atoms: C_7  and  CA_8
REMARK    3  A    between atoms: CA_8  and  C_9
REMARK    4  A    between atoms: CA_8  and  N_11
REMARK    5  A    between atoms: C_9  and  O_10
REMARK    6  A    between atoms: N_11  and  C_12
REMARK                            x       y       z     vdW  Elec       q    Type
REMARK                         _______ _______ _______ _____ _____    ______ ____
ROOT
ATOM      1  CA  UNL     1      43.771   4.585  11.178  0.00  0.00    +0.000 C 
ENDROOT
BRANCH   1   5
ATOM      2  C   UNL     1      47.327   6.110  13.017  0.00  0.00    +0.000 A 
ATOM      3  C   UNL     1      46.751   4.944  13.523  0.00  0.00    +0.000 A 
ATOM      4  C   UNL     1      45.593   4.441  12.930  0.00  0.00    +0.000 A 
ATOM      5  C   UNL     1      45.030   5.124  11.850  0.00  0.00    +0.000 A 
ATOM      6  N   UNL     1      45.561   6.280  11.367  0.00  0.00    +0.000 NA
ATOM      7  C   UNL     1      46.692   6.743  11.958  0.00  0.00    +0.000 A 
BRANCH   2   9
ATOM      8  N   UNL     1      49.553   7.028  12.693  0.00  0.00    +0.000 N 
ATOM      9  C   UNL     1      48.554   6.714  13.576  0.00  0.00    +0.000 C 
ATOM     10  O   UNL     1      48.657   6.964  14.770  0.00  0.00    +0.000 OA
ATOM     11  H   UNL     1      50.339   7.532  13.081  0.00  0.00    +0.000 HD
ATOM     12  H   UNL     1      49.404   7.080  11.697  0.00  0.00    +0.000 HD
ENDBRANCH   2   9
ENDBRANCH   1   5
BRANCH   1  13
ATOM     13  N   UNL     1      43.882   4.485   9.692  0.00  0.00    +0.000 NA
ATOM     14  H   UNL     1      44.005   5.451   9.363  0.00  0.00    +0.000 HD
BRANCH  13  15
ATOM     15  C   UNL     1      45.070   3.727   9.228  0.00  0.00    +0.000 C 
ATOM     16  C   UNL     1      45.637   4.418   7.971  0.00  0.00    +0.000 C 
ATOM     17  C   UNL     1      46.848   3.675   7.393  0.00  0.00    +0.000 C 
ATOM     18  C   UNL     1      46.545   2.202   7.132  0.00  0.00    +0.000 C 
ATOM     19  C   UNL     1      45.991   1.524   8.378  0.00  0.00    +0.000 C 
ATOM     20  C   UNL     1      44.758   2.256   8.902  0.00  0.00    +0.000 C 
ENDBRANCH  13  15
ENDBRANCH   1  13
BRANCH   1  21
ATOM     21  C   UNL     1      42.575   5.492  11.565  0.00  0.00    +0.000 C 
BRANCH  21  22
ATOM     22  O   UNL     1      42.769   6.834  11.111  0.00  0.00    +0.000 OA
ATOM     23  H   UNL     1      43.380   6.767  10.351  0.00  0.00    +0.000 HD
ENDBRANCH  21  22
ENDBRANCH   1  21
TORSDOF 6
ENDMDL
MODEL 6
REMARK VINA RESULT:    -6.434      1.987      2.289
REMARK INTER + INTRA:          -9.301
REMARK INTER:                  -8.583
REMARK INTRA:                  -0.718
REMARK UNBOUND:                -0.798
REMARK  Name = 
REMARK  6 active torsions:
REMARK  status: ('A' for Active; 'I' for Inactive)
REMARK    1  A    between atoms: C_2  and  C_4
REMARK    2  A    between atoms: C_7  and  CA_8
REMARK    3  A    between atoms: CA_8  and  C_9
REMARK    4  A    between atoms: CA_8  and  N_11
REMARK    5  A    between atoms: C_9  and  O_10
REMARK    6  A    between atoms: N_11  and  C_12
REMARK                            x       y       z     vdW  Elec       q    Type
REMARK                         _______ _______ _______ _____ _____    ______ ____
ROOT
ATOM      1  CA  UNL     1      44.521   4.876  11.397  0.00  0.00    +0.000 C 
ENDROOT
BRANCH   1   5
ATOM      2  C   UNL     1      46.653   8.502  12.208  0.00  0.00    +0.000 A 
ATOM      3  C   UNL     1      47.333   7.287  12.286  0.00  0.00    +0.000 A 
ATOM      4  C   UNL     1      46.645   6.101  12.024  0.00  0.00    +0.000 A 
ATOM      5  C   UNL     1      45.289   6.159  11.699  0.00  0.00    +0.000 A 
ATOM      6  N   UNL     1      44.605   7.334  11.652  0.00  0.00    +0.000 NA
ATOM      7  C   UNL     1      45.299   8.473  11.904  0.00  0.00    +0.000 A 
BRANCH   2   9
ATOM      8  N   UNL     1      47.840  10.002  13.707  0.00  0.00    +0.000 N 
ATOM      9  C   UNL     1      47.298   9.807  12.464  0.00  0.00    +0.000 C 
ATOM     10  O   UNL     1      47.384  10.660  11.591  0.00  0.00    +0.000 OA
ATOM     11  H   UNL     1      48.364  10.858  13.829  0.00  0.00    +0.000 HD
ATOM     12  H   UNL     1      48.017   9.245  14.350  0.00  0.00    +0.000 HD
ENDBRANCH   2   9
ENDBRANCH   1   5
BRANCH   1  13
ATOM     13  N   UNL     1      43.760   4.924  10.112  0.00  0.00    +0.000 NA
ATOM     14  H   UNL     1      43.899   5.876   9.749  0.00  0.00    +0.000 HD
BRANCH  13  15
ATOM     15  C   UNL     1      44.274   3.997   9.074  0.00  0.00    +0.000 C 
ATOM     16  C   UNL     1      44.521   2.620   9.723  0.00  0.00    +0.000 C 
ATOM     17  C   UNL     1      45.097   1.603   8.729  0.00  0.00    +0.000 C 
ATOM     18  C   UNL     1      46.351   2.127   8.034  0.00  0.00    +0.000 C 
ATOM     19  C   UNL     1      46.098   3.485   7.392  0.00  0.00    +0.000 C 
ATOM     20  C   UNL     1      45.573   4.490   8.414  0.00  0.00    +0.000 C 
ENDBRANCH  13  15
ENDBRANCH   1  13
BRANCH   1  21
ATOM     21  C   UNL     1      43.559   4.583  12.577  0.00  0.00    +0.000 C 
BRANCH  21  22
ATOM     22  O   UNL     1      42.580   5.615  12.722  0.00  0.00    +0.000 OA
ATOM     23  H   UNL     1      41.715   5.168  12.640  0.00  0.00    +0.000 HD
ENDBRANCH  21  22
ENDBRANCH   1  21
TORSDOF 6
ENDMDL
MODEL 7
REMARK VINA RESULT:    -5.632      3.423      7.298
REMARK INTER + INTRA:          -8.241
REMARK INTER:                  -7.554
REMARK INTRA:                  -0.687
REMARK UNBOUND:                -0.798
REMARK  Name = 
REMARK  6 active torsions:
REMARK  status: ('A' for Active; 'I' for Inactive)
REMARK    1  A    between atoms: C_2  and  C_4
REMARK    2  A    between atoms: C_7  and  CA_8
REMARK    3  A    between atoms: CA_8  and  C_9
REMARK    4  A    between atoms: CA_8  and  N_11
REMARK    5  A    between atoms: C_9  and  O_10
REMARK    6  A    between atoms: N_11  and  C_12
REMARK                            x       y       z     vdW  Elec       q    Type
REMARK                         _______ _______ _______ _____ _____    ______ ____
ROOT
ATOM      1  CA  UNL     1      47.932   6.262  14.190  0.00  0.00    +0.000 C 
ENDROOT
BRANCH   1   5
ATOM      2  C   UNL     1      44.429   4.589  12.376  0.00  0.00    +0.000 A 
ATOM      3  C   UNL     1      45.511   3.754  12.654  0.00  0.00    +0.000 A 
ATOM      4  C   UNL     1      46.656   4.291  13.243  0.00  0.00    +0.000 A 
ATOM      5  C   UNL     1      46.695   5.656  13.533  0.00  0.00    +0.000 A 
ATOM      6  N   UNL     1      45.661   6.489  13.239  0.00  0.00    +0.000 NA
ATOM      7  C   UNL     1      44.557   5.939  12.672  0.00  0.00    +0.000 A 
BRANCH   2   9
ATOM      8  N   UNL     1      42.181   5.032  11.569  0.00  0.00    +0.000 N 
ATOM      9  C   UNL     1      43.176   4.110  11.758  0.00  0.00    +0.000 C 
ATOM     10  O   UNL     1      43.047   2.950  11.389  0.00  0.00    +0.000 OA
ATOM     11  H   UNL     1      41.373   4.708  11.054  0.00  0.00    +0.000 HD
ATOM     12  H   UNL     1      42.342   6.027  11.617  0.00  0.00    +0.000 HD
ENDBRANCH   2   9
ENDBRANCH   1   5
BRANCH   1  13
ATOM     13  N   UNL     1      47.890   6.233  15.683  0.00  0.00    +0.000 NA
ATOM     14  H   UNL     1      46.899   6.342  15.930  0.00  0.00    +0.000 HD
BRANCH  13  15
ATOM     15  C   UNL     1      48.332   4.945  16.271  0.00  0.00    +0.000 C 
ATOM     16  C   UNL     1      47.108   4.239  16.890  0.00  0.00    +0.000 C 
ATOM     17  C   UNL     1      47.479   2.911  17.563  0.00  0.00    +0.000 C 
ATOM     18  C   UNL     1      48.602   3.080  18.583  0.00  0.00    +0.000 C 
ATOM     19  C   UNL     1      49.809   3.772  17.964  0.00  0.00    +0.000 C 
ATOM     20  C   UNL     1      49.420   5.113  17.346  0.00  0.00    +0.000 C 
ENDBRANCH  13  15
ENDBRANCH   1  13
BRANCH   1  21
ATOM     21  C   UNL     1      48.097   7.719  13.688  0.00  0.00    +0.000 C 
BRANCH  21  22
ATOM     22  O   UNL     1      47.299   8.628  14.452  0.00  0.00    +0.000 OA
ATOM     23  H   UNL     1      46.494   8.129  14.693  0.00  0.00    +0.000 HD
ENDBRANCH  21  22
ENDBRANCH   1  21
TORSDOF 6
ENDMDL
MODEL 8
REMARK VINA RESULT:    -5.617      3.415      7.251
REMARK INTER + INTRA:          -8.222
REMARK INTER:                  -7.776
REMARK INTRA:                  -0.445
REMARK UNBOUND:                -0.798
REMARK  Name = 
REMARK  6 active torsions:
REMARK  status: ('A' for Active; 'I' for Inactive)
REMARK    1  A    between atoms: C_2  and  C_4
REMARK    2  A    between atoms: C_7  and  CA_8
REMARK    3  A    between atoms: CA_8  and  C_9
REMARK    4  A    between atoms: CA_8  and  N_11
REMARK    5  A    between atoms: C_9  and  O_10
REMARK    6  A    between atoms: N_11  and  C_12
REMARK                            x       y       z     vdW  Elec       q    Type
REMARK                         _______ _______ _______ _____ _____    ______ ____
ROOT
ATOM      1  CA  UNL     1      47.746   5.272  14.670  0.00  0.00    +0.000 C 
ENDROOT
BRANCH   1   5
ATOM      2  C   UNL     1      44.806   4.253  11.724  0.00  0.00    +0.000 A 
ATOM      3  C   UNL     1      45.135   5.595  11.914  0.00  0.00    +0.000 A 
ATOM      4  C   UNL     1      46.091   5.935  12.872  0.00  0.00    +0.000 A 
ATOM      5  C   UNL     1      46.689   4.924  13.626  0.00  0.00    +0.000 A 
ATOM      6  N   UNL     1      46.355   3.614  13.475  0.00  0.00    +0.000 NA
ATOM      7  C   UNL     1      45.427   3.309  12.531  0.00  0.00    +0.000 A 
BRANCH   2   9
ATOM      8  N   UNL     1      43.821   4.414   9.509  0.00  0.00    +0.000 N 
ATOM      9  C   UNL     1      43.811   3.797  10.732  0.00  0.00    +0.000 C 
ATOM     10  O   UNL     1      43.040   2.878  10.975  0.00  0.00    +0.000 OA
ATOM     11  H   UNL     1      43.203   4.020   8.813  0.00  0.00    +0.000 HD
ATOM     12  H   UNL     1      44.594   4.979   9.189  0.00  0.00    +0.000 HD
ENDBRANCH   2   9
ENDBRANCH   1   5
BRANCH   1  13
ATOM     13  N   UNL     1      47.260   5.144  16.077  0.00  0.00    +0.000 NA
ATOM     14  H   UNL     1      46.338   4.695  16.006  0.00  0.00    +0.000 HD
BRANCH  13  15
ATOM     15  C   UNL     1      48.097   4.260  16.924  0.00  0.00    +0.000 C 
ATOM     16  C   UNL     1      49.406   5.000  17.266  0.00  0.00    +0.000 C 
ATOM     17  C   UNL     1      50.358   4.140  18.108  0.00  0.00    +0.000 C 
ATOM     18  C   UNL     1      50.634   2.786  17.459  0.00  0.00    +0.000 C 
ATOM     19  C   UNL     1      49.337   2.060  17.128  0.00  0.00    +0.000 C 
ATOM     20  C   UNL     1      48.431   2.918  16.249  0.00  0.00    +0.000 C 
ENDBRANCH  13  15
ENDBRANCH   1  13
BRANCH   1  21
ATOM     21  C   UNL     1      48.247   6.715  14.406  0.00  0.00    +0.000 C 
BRANCH  21  22
ATOM     22  O   UNL     1      49.646   6.736  14.111  0.00  0.00    +0.000 OA
ATOM     23  H   UNL     1      50.064   7.205  14.860  0.00  0.00    +0.000 HD
ENDBRANCH  21  22
ENDBRANCH   1  21
TORSDOF 6
ENDMDL
MODEL 9
REMARK VINA RESULT:    -5.285      3.895      5.937
REMARK INTER + INTRA:          -7.782
REMARK INTER:                  -7.061
REMARK INTRA:                  -0.720
REMARK UNBOUND:                -0.798
REMARK  Name = 
REMARK  6 active torsions:
REMARK  status: ('A' for Active; 'I' for Inactive)
REMARK    1  A    between atoms: C_2  and  C_4
REMARK    2  A    between atoms: C_7  and  CA_8
REMARK    3  A    between atoms: CA_8  and  C_9
REMARK    4  A    between atoms: CA_8  and  N_11
REMARK    5  A    between atoms: C_9  and  O_10
REMARK    6  A    between atoms: N_11  and  C_12
REMARK                            x       y       z     vdW  Elec       q    Type
REMARK                         _______ _______ _______ _____ _____    ______ ____
ROOT
ATOM      1  CA  UNL     1      46.895   5.097  14.083  0.00  0.00    +0.000 C 
ENDROOT
BRANCH   1   5
ATOM      2  C   UNL     1      48.631   4.449  17.946  0.00  0.00    +0.000 A 
ATOM      3  C   UNL     1      47.548   3.664  17.552  0.00  0.00    +0.000 A 
ATOM      4  C   UNL     1      46.976   3.869  16.295  0.00  0.00    +0.000 A 
ATOM      5  C   UNL     1      47.497   4.864  15.465  0.00  0.00    +0.000 A 
ATOM      6  N   UNL     1      48.532   5.659  15.849  0.00  0.00    +0.000 NA
ATOM      7  C   UNL     1      49.073   5.434  17.073  0.00  0.00    +0.000 A 
BRANCH   2   9
ATOM      8  N   UNL     1      48.598   3.681  20.251  0.00  0.00    +0.000 N 
ATOM      9  C   UNL     1      49.303   4.301  19.253  0.00  0.00    +0.000 C 
ATOM     10  O   UNL     1      50.456   4.675  19.426  0.00  0.00    +0.000 OA
ATOM     11  H   UNL     1      49.110   3.499  21.103  0.00  0.00    +0.000 HD
ATOM     12  H   UNL     1      47.767   3.137  20.075  0.00  0.00    +0.000 HD
ENDBRANCH   2   9
ENDBRANCH   1   5
BRANCH   1  13
ATOM     13  N   UNL     1      46.474   3.839  13.395  0.00  0.00    +0.000 NA
ATOM     14  H   UNL     1      46.513   3.108  14.117  0.00  0.00    +0.000 HD
BRANCH  13  15
ATOM     15  C   UNL     1      45.077   3.866  12.896  0.00  0.00    +0.000 C 
ATOM     16  C   UNL     1      45.095   3.641  11.370  0.00  0.00    +0.000 C 
ATOM     17  C   UNL     1      43.689   3.696  10.757  0.00  0.00    +0.000 C 
ATOM     18  C   UNL     1      42.953   4.982  11.125  0.00  0.00    +0.000 C 
ATOM     19  C   UNL     1      42.935   5.194  12.633  0.00  0.00    +0.000 C 
ATOM     20  C   UNL     1      44.350   5.184  13.208  0.00  0.00    +0.000 C 
ENDBRANCH  13  15
ENDBRANCH   1  13
BRANCH   1  21
ATOM     21  C   UNL     1      47.926   5.862  13.215  0.00  0.00    +0.000 C 
BRANCH  21  22
ATOM     22  O   UNL     1      47.779   7.277  13.353  0.00  0.00    +0.000 OA
ATOM     23  H   UNL     1      48.650   7.654  13.118  0.00  0.00    +0.000 HD
ENDBRANCH  21  22
ENDBRANCH   1  21
TORSDOF 6
ENDMDL
