MODEL 1
REMARK VINA RESULT:    -8.888      0.000      0.000
REMARK INTER + INTRA:         -12.097
REMARK INTER:                 -10.967
REMARK INTRA:                  -1.130
REMARK UNBOUND:                -1.130
REMARK  Name = 
REMARK  4 active torsions:
REMARK  status: ('A' for Active; 'I' for Inactive)
REMARK    1  A    between atoms: C_2  and  C_4
REMARK    2  A    between atoms: N_8  and  C_9
REMARK    3  A    between atoms: C_9  and  C_10
REMARK    4  A    between atoms: C_14  and  C_15
REMARK                            x       y       z     vdW  Elec       q    Type
REMARK                         _______ _______ _______ _____ _____    ______ ____
ROOT
ATOM      1  C   UNL     1      43.772   4.835  11.381  0.00  0.00    +0.000 C 
ATOM      2  C   UNL     1      42.412   5.152  11.988  0.00  0.00    +0.000 C 
ATOM      3  C   UNL     1      43.034   6.111  11.028  0.00  0.00    +0.000 C 
ENDROOT
BRANCH   1   8
ATOM      4  C   UNL     1      46.546   2.760   7.495  0.00  0.00    +0.000 A 
ATOM      5  C   UNL     1      46.160   4.085   7.658  0.00  0.00    +0.000 A 
ATOM      6  C   UNL     1      45.276   4.422   8.686  0.00  0.00    +0.000 A 
ATOM      7  C   UNL     1      44.776   3.428   9.518  0.00  0.00    +0.000 A 
ATOM      8  N   UNL     1      43.794   3.656  10.488  0.00  0.00    +0.000 N 
ATOM      9  N   UNL     1      45.143   2.135   9.366  0.00  0.00    +0.000 NA
ATOM     10  C   UNL     1      46.007   1.827   8.366  0.00  0.00    +0.000 A 
ATOM     11  H   UNL     1      43.695   2.762  10.966  0.00  0.00    +0.000 HD
BRANCH   4  13
ATOM     12  N   UNL     1      47.360   2.940   5.210  0.00  0.00    +0.000 N 
ATOM     13  C   UNL     1      47.445   2.297   6.413  0.00  0.00    +0.000 C 
ATOM     14  O   UNL     1      48.257   1.401   6.598  0.00  0.00    +0.000 OA
ATOM     15  H   UNL     1      48.041   2.674   4.510  0.00  0.00    +0.000 HD
ATOM     16  H   UNL     1      46.887   3.824   5.088  0.00  0.00    +0.000 HD
ENDBRANCH   4  13
ENDBRANCH   1   8
BRANCH   1  17
ATOM     17  C   UNL     1      45.006   4.925  12.273  0.00  0.00    +0.000 A 
ATOM     18  C   UNL     1      45.576   3.797  12.885  0.00  0.00    +0.000 A 
ATOM     19  C   UNL     1      46.794   3.874  13.562  0.00  0.00    +0.000 A 
ATOM     20  C   UNL     1      47.492   5.080  13.614  0.00  0.00    +0.000 A 
ATOM     21  C   UNL     1      46.958   6.228  13.021  0.00  0.00    +0.000 A 
ATOM     22  C   UNL     1      45.697   6.141  12.404  0.00  0.00    +0.000 A 
BRANCH  21  23
ATOM     23  C   UNL     1      47.768   7.511  12.948  0.00  0.00    +0.000 C 
ATOM     24  C   UNL     1      46.887   8.753  12.769  0.00  0.00    +0.000 C 
ATOM     25  C   UNL     1      47.747   9.991  12.546  0.00  0.00    +0.000 C 
ATOM     26  O   UNL     1      48.629   9.805  11.438  0.00  0.00    +0.000 OA
ATOM     27  C   UNL     1      49.557   8.747  11.670  0.00  0.00    +0.000 C 
ATOM     28  C   UNL     1      48.824   7.424  11.830  0.00  0.00    +0.000 C 
ENDBRANCH  21  23
ENDBRANCH   1  17
TORSDOF 4
ENDMDL
MODEL 2
REMARK VINA RESULT:    -8.710      2.153      3.284
REMARK INTER + INTRA:         -11.878
REMARK INTER:                 -11.280
REMARK INTRA:                  -0.598
REMARK UNBOUND:                -1.130
REMARK  Name = 
REMARK  4 active torsions:
REMARK  status: ('A' for Active; 'I' for Inactive)
REMARK    1  A    between atoms: C_2  and  C_4
REMARK    2  A    between atoms: N_8  and  C_9
REMARK    3  A    between atoms: C_9  and  C_10
REMARK    4  A    between atoms: C_14  and  C_15
REMARK                            x       y       z     vdW  Elec       q    Type
REMARK                         _______ _______ _______ _____ _____    ______ ____
ROOT
ATOM      1  C   UNL     1      43.850   5.129  11.357  0.00  0.00    +0.000 C 
ATOM      2  C   UNL     1      42.666   5.373  12.282  0.00  0.00    +0.000 C 
ATOM      3  C   UNL     1      42.901   6.287  11.126  0.00  0.00    +0.000 C 
ENDROOT
BRANCH   1   8
ATOM      4  C   UNL     1      46.469   2.482   7.719  0.00  0.00    +0.000 A 
ATOM      5  C   UNL     1      46.195   3.844   7.754  0.00  0.00    +0.000 A 
ATOM      6  C   UNL     1      45.335   4.346   8.734  0.00  0.00    +0.000 A 
ATOM      7  C   UNL     1      44.747   3.478   9.645  0.00  0.00    +0.000 A 
ATOM      8  N   UNL     1      43.780   3.875  10.575  0.00  0.00    +0.000 N 
ATOM      9  N   UNL     1      45.004   2.151   9.617  0.00  0.00    +0.000 NA
ATOM     10  C   UNL     1      45.847   1.681   8.662  0.00  0.00    +0.000 A 
ATOM     11  H   UNL     1      43.602   3.040  11.131  0.00  0.00    +0.000 HD
BRANCH   4  13
ATOM     12  N   UNL     1      48.361   2.597   6.194  0.00  0.00    +0.000 N 
ATOM     13  C   UNL     1      47.334   1.849   6.697  0.00  0.00    +0.000 C 
ATOM     14  O   UNL     1      47.161   0.690   6.344  0.00  0.00    +0.000 OA
ATOM     15  H   UNL     1      48.996   2.122   5.564  0.00  0.00    +0.000 HD
ATOM     16  H   UNL     1      48.683   3.453   6.623  0.00  0.00    +0.000 HD
ENDBRANCH   4  13
ENDBRANCH   1   8
BRANCH   1  17
ATOM     17  C   UNL     1      45.254   5.423  11.878  0.00  0.00    +0.000 A 
ATOM     18  C   UNL     1      46.100   6.364  11.271  0.00  0.00    +0.000 A 
ATOM     19  C   UNL     1      47.313   6.736  11.854  0.00  0.00    +0.000 A 
ATOM     20  C   UNL     1      47.693   6.197  13.083  0.00  0.00    +0.000 A 
ATOM     21  C   UNL     1      46.881   5.255  13.720  0.00  0.00    +0.000 A 
ATOM     22  C   UNL     1      45.698   4.845  13.079  0.00  0.00    +0.000 A 
BRANCH  21  23
ATOM     23  C   UNL     1      47.212   4.767  15.119  0.00  0.00    +0.000 C 
ATOM     24  C   UNL     1      48.280   5.628  15.805  0.00  0.00    +0.000 C 
ATOM     25  C   UNL     1      48.690   5.012  17.137  0.00  0.00    +0.000 C 
ATOM     26  O   UNL     1      49.129   3.666  16.961  0.00  0.00    +0.000 OA
ATOM     27  C   UNL     1      48.085   2.825  16.471  0.00  0.00    +0.000 C 
ATOM     28  C   UNL     1      47.636   3.287  15.094  0.00  0.00    +0.000 C 
ENDBRANCH  21  23
ENDBRANCH   1  17
TORSDOF 4
ENDMDL
MODEL 3
REMARK VINA RESULT:    -7.165      2.929      7.179
REMARK INTER + INTRA:          -9.972
REMARK INTER:                 -10.049
REMARK INTRA:                   0.077
REMARK UNBOUND:                -1.130
REMARK  Name = 
REMARK  4 active torsions:
REMARK  status: ('A' for Active; 'I' for Inactive)
REMARK    1  A    between atoms: C_2  and  C_4
REMARK    2  A    between atoms: N_8  and  C_9
REMARK    3  A    between atoms: C_9  and  C_10
REMARK    4  A    between atoms: C_14  and  C_15
REMARK                            x       y       z     vdW  Elec       q    Type
REMARK                         _______ _______ _______ _____ _____    ______ ____
ROOT
ATOM      1  C   UNL     1      44.644   3.499  12.295  0.00  0.00    +0.000 C 
ATOM      2  C   UNL     1      43.475   4.088  13.071  0.00  0.00    +0.000 C 
ATOM      3  C   UNL     1      43.329   2.756  12.413  0.00  0.00    +0.000 C 
ENDROOT
BRANCH   1   8
ATOM      4  C   UNL     1      48.183   5.717  15.403  0.00  0.00    +0.000 A 
ATOM      5  C   UNL     1      47.715   6.175  14.176  0.00  0.00    +0.000 A 
ATOM      6  C   UNL     1      46.882   5.355  13.411  0.00  0.00    +0.000 A 
ATOM      7  C   UNL     1      46.549   4.088  13.872  0.00  0.00    +0.000 A 
ATOM      8  N   UNL     1      45.827   3.158  13.117  0.00  0.00    +0.000 N 
ATOM      9  N   UNL     1      47.001   3.633  15.062  0.00  0.00    +0.000 NA
ATOM     10  C   UNL     1      47.804   4.445  15.796  0.00  0.00    +0.000 A 
ATOM     11  H   UNL     1      45.689   2.369  13.747  0.00  0.00    +0.000 HD
BRANCH   4  13
ATOM     12  N   UNL     1      48.613   7.636  16.835  0.00  0.00    +0.000 N 
ATOM     13  C   UNL     1      49.102   6.494  16.268  0.00  0.00    +0.000 C 
ATOM     14  O   UNL     1      50.240   6.108  16.496  0.00  0.00    +0.000 OA
ATOM     15  H   UNL     1      49.223   8.107  17.493  0.00  0.00    +0.000 HD
ATOM     16  H   UNL     1      47.629   7.859  16.870  0.00  0.00    +0.000 HD
ENDBRANCH   4  13
ENDBRANCH   1   8
BRANCH   1  17
ATOM     17  C   UNL     1      45.017   4.123  10.953  0.00  0.00    +0.000 A 
ATOM     18  C   UNL     1      45.356   5.479  10.822  0.00  0.00    +0.000 A 
ATOM     19  C   UNL     1      45.849   5.993   9.622  0.00  0.00    +0.000 A 
ATOM     20  C   UNL     1      46.048   5.150   8.528  0.00  0.00    +0.000 A 
ATOM     21  C   UNL     1      45.720   3.794   8.616  0.00  0.00    +0.000 A 
ATOM     22  C   UNL     1      45.161   3.315   9.814  0.00  0.00    +0.000 A 
BRANCH  21  23
ATOM     23  C   UNL     1      46.062   2.840   7.485  0.00  0.00    +0.000 C 
ATOM     24  C   UNL     1      46.578   1.488   7.992  0.00  0.00    +0.000 C 
ATOM     25  C   UNL     1      47.053   0.626   6.828  0.00  0.00    +0.000 C 
ATOM     26  O   UNL     1      48.038   1.312   6.056  0.00  0.00    +0.000 OA
ATOM     27  C   UNL     1      47.512   2.492   5.451  0.00  0.00    +0.000 C 
ATOM     28  C   UNL     1      47.072   3.483   6.517  0.00  0.00    +0.000 C 
ENDBRANCH  21  23
ENDBRANCH   1  17
TORSDOF 4
ENDMDL
MODEL 4
REMARK VINA RESULT:    -6.648      2.779      6.767
REMARK INTER + INTRA:          -9.333
REMARK INTER:                  -8.238
REMARK INTRA:                  -1.095
REMARK UNBOUND:                -1.130
REMARK  Name = 
REMARK  4 active torsions:
REMARK  status: ('A' for Active; 'I' for Inactive)
REMARK    1  A    between atoms: C_2  and  C_4
REMARK    2  A    between atoms: N_8  and  C_9
REMARK    3  A    between atoms: C_9  and  C_10
REMARK    4  A    between atoms: C_14  and  C_15
REMARK                            x       y       z     vdW  Elec       q    Type
REMARK                         _______ _______ _______ _____ _____    ______ ____
ROOT
ATOM      1  C   UNL     1      46.453   5.143  13.707  0.00  0.00    +0.000 C 
ATOM      2  C   UNL     1      46.510   4.188  14.892  0.00  0.00    +0.000 C 
ATOM      3  C   UNL     1      47.494   4.045  13.779  0.00  0.00    +0.000 C 
ENDROOT
BRANCH   1   8
ATOM      4  C   UNL     1      48.701   9.364  11.650  0.00  0.00    +0.000 A 
ATOM      5  C   UNL     1      49.161   8.052  11.625  0.00  0.00    +0.000 A 
ATOM      6  C   UNL     1      48.497   7.078  12.376  0.00  0.00    +0.000 A 
ATOM      7  C   UNL     1      47.403   7.435  13.154  0.00  0.00    +0.000 A 
ATOM      8  N   UNL     1      46.761   6.554  14.031  0.00  0.00    +0.000 N 
ATOM      9  N   UNL     1      46.951   8.709  13.188  0.00  0.00    +0.000 NA
ATOM     10  C   UNL     1      47.604   9.640  12.448  0.00  0.00    +0.000 A 
ATOM     11  H   UNL     1      45.971   7.086  14.395  0.00  0.00    +0.000 HD
BRANCH   4  13
ATOM     12  N   UNL     1      50.721  10.441  10.827  0.00  0.00    +0.000 N 
ATOM     13  C   UNL     1      49.359  10.474  10.922  0.00  0.00    +0.000 C 
ATOM     14  O   UNL     1      48.707  11.364  10.393  0.00  0.00    +0.000 OA
ATOM     15  H   UNL     1      51.149  11.156  10.252  0.00  0.00    +0.000 HD
ATOM     16  H   UNL     1      51.270   9.618  11.033  0.00  0.00    +0.000 HD
ENDBRANCH   4  13
ENDBRANCH   1   8
BRANCH   1  17
ATOM     17  C   UNL     1      45.304   5.002  12.713  0.00  0.00    +0.000 A 
ATOM     18  C   UNL     1      44.109   5.727  12.836  0.00  0.00    +0.000 A 
ATOM     19  C   UNL     1      43.138   5.707  11.833  0.00  0.00    +0.000 A 
ATOM     20  C   UNL     1      43.358   4.984  10.660  0.00  0.00    +0.000 A 
ATOM     21  C   UNL     1      44.535   4.246  10.498  0.00  0.00    +0.000 A 
ATOM     22  C   UNL     1      45.465   4.227  11.553  0.00  0.00    +0.000 A 
BRANCH  21  23
ATOM     23  C   UNL     1      44.850   3.571   9.175  0.00  0.00    +0.000 C 
ATOM     24  C   UNL     1      45.351   2.133   9.353  0.00  0.00    +0.000 C 
ATOM     25  C   UNL     1      45.799   1.553   8.017  0.00  0.00    +0.000 C 
ATOM     26  O   UNL     1      46.786   2.385   7.408  0.00  0.00    +0.000 OA
ATOM     27  C   UNL     1      46.273   3.679   7.096  0.00  0.00    +0.000 C 
ATOM     28  C   UNL     1      45.859   4.405   8.365  0.00  0.00    +0.000 C 
ENDBRANCH  21  23
ENDBRANCH   1  17
TORSDOF 4
ENDMDL
MODEL 5
REMARK VINA RESULT:    -6.539      4.377      8.427
REMARK INTER + INTRA:          -9.198
REMARK INTER:                  -8.224
REMARK INTRA:                  -0.974
REMARK UNBOUND:                -1.130
REMARK  Name = 
REMARK  4 active torsions:
REMARK  status: ('A' for Active; 'I' for Inactive)
REMARK    1  A    between atoms: C_2  and  C_4
REMARK    2  A    between atoms: N_8  and  C_9
REMARK    3  A    between atoms: C_9  and  C_10
REMARK    4  A    between atoms: C_14  and  C_15
REMARK                            x       y       z     vdW  Elec       q    Type
REMARK                         _______ _______ _______ _____ _____    ______ ____
ROOT
ATOM      1  C   UNL     1      49.181   7.869  12.870  0.00  0.00    +0.000 C 
ATOM      2  C   UNL     1      50.099   7.981  11.661  0.00  0.00    +0.000 C 
ATOM      3  C   UNL     1      49.833   9.186  12.500  0.00  0.00    +0.000 C 
ENDROOT
BRANCH   1   8
ATOM      4  C   UNL     1      48.411   6.859  17.918  0.00  0.00    +0.000 A 
ATOM      5  C   UNL     1      48.474   8.099  17.295  0.00  0.00    +0.000 A 
ATOM      6  C   UNL     1      48.852   8.174  15.952  0.00  0.00    +0.000 A 
ATOM      7  C   UNL     1      49.182   7.013  15.263  0.00  0.00    +0.000 A 
ATOM      8  N   UNL     1      49.690   7.008  13.960  0.00  0.00    +0.000 N 
ATOM      9  N   UNL     1      49.128   5.802  15.862  0.00  0.00    +0.000 NA
ATOM     10  C   UNL     1      48.752   5.748  17.165  0.00  0.00    +0.000 A 
ATOM     11  H   UNL     1      49.764   6.020  13.718  0.00  0.00    +0.000 HD
BRANCH   4  13
ATOM     12  N   UNL     1      47.204   5.662  19.659  0.00  0.00    +0.000 N 
ATOM     13  C   UNL     1      48.061   6.679  19.347  0.00  0.00    +0.000 C 
ATOM     14  O   UNL     1      48.549   7.388  20.216  0.00  0.00    +0.000 OA
ATOM     15  H   UNL     1      47.045   5.497  20.645  0.00  0.00    +0.000 HD
ATOM     16  H   UNL     1      46.973   4.917  19.018  0.00  0.00    +0.000 HD
ENDBRANCH   4  13
ENDBRANCH   1   8
BRANCH   1  17
ATOM     17  C   UNL     1      47.683   7.701  12.634  0.00  0.00    +0.000 A 
ATOM     18  C   UNL     1      46.830   8.792  12.405  0.00  0.00    +0.000 A 
ATOM     19  C   UNL     1      45.497   8.608  12.032  0.00  0.00    +0.000 A 
ATOM     20  C   UNL     1      44.993   7.321  11.845  0.00  0.00    +0.000 A 
ATOM     21  C   UNL     1      45.809   6.207  12.066  0.00  0.00    +0.000 A 
ATOM     22  C   UNL     1      47.127   6.417  12.508  0.00  0.00    +0.000 A 
BRANCH  21  23
ATOM     23  C   UNL     1      45.318   4.809  11.731  0.00  0.00    +0.000 C 
ATOM     24  C   UNL     1      44.810   4.694  10.288  0.00  0.00    +0.000 C 
ATOM     25  C   UNL     1      44.187   3.324  10.048  0.00  0.00    +0.000 C 
ATOM     26  O   UNL     1      43.152   3.064  10.995  0.00  0.00    +0.000 OA
ATOM     27  C   UNL     1      43.652   3.013  12.330  0.00  0.00    +0.000 C 
ATOM     28  C   UNL     1      44.235   4.359  12.729  0.00  0.00    +0.000 C 
ENDBRANCH  21  23
ENDBRANCH   1  17
TORSDOF 4
ENDMDL
MODEL 6
REMARK VINA RESULT:    -6.520      3.942      7.976
REMARK INTER + INTRA:          -9.176
REMARK INTER:                  -9.246
REMARK INTRA:                   0.070
REMARK UNBOUND:                -1.130
REMARK  Name = 
REMARK  4 active torsions:
REMARK  status: ('A' for Active; 'I' for Inactive)
REMARK    1  A    between atoms: C_2  and  C_4
REMARK    2  A    between atoms: N_8  and  C_9
REMARK    3  A    between atoms: C_9  and  C_10
REMARK    4  A    between atoms: C_14  and  C_15
REMARK                            x       y       z     vdW  Elec       q    Type
REMARK                         _______ _______ _______ _____ _____    ______ ____
ROOT
ATOM      1  C   UNL     1      46.620   5.680  13.250  0.00  0.00    +0.000 C 
ATOM      2  C   UNL     1      47.719   6.555  12.662  0.00  0.00    +0.000 C 
ATOM      3  C   UNL     1      46.790   7.122  13.685  0.00  0.00    +0.000 C 
ENDROOT
BRANCH   1   8
ATOM      4  C   UNL     1      48.402   4.589  18.018  0.00  0.00    +0.000 A 
ATOM      5  C   UNL     1      48.748   5.658  17.200  0.00  0.00    +0.000 A 
ATOM      6  C   UNL     1      48.284   5.692  15.883  0.00  0.00    +0.000 A 
ATOM      7  C   UNL     1      47.502   4.650  15.400  0.00  0.00    +0.000 A 
ATOM      8  N   UNL     1      47.101   4.542  14.064  0.00  0.00    +0.000 N 
ATOM      9  N   UNL     1      47.164   3.604  16.187  0.00  0.00    +0.000 NA
ATOM     10  C   UNL     1      47.618   3.590  17.466  0.00  0.00    +0.000 A 
ATOM     11  H   UNL     1      46.495   3.723  14.045  0.00  0.00    +0.000 HD
BRANCH   4  13
ATOM     12  N   UNL     1      48.319   3.446  20.164  0.00  0.00    +0.000 N 
ATOM     13  C   UNL     1      48.878   4.442  19.413  0.00  0.00    +0.000 C 
ATOM     14  O   UNL     1      49.762   5.158  19.865  0.00  0.00    +0.000 OA
ATOM     15  H   UNL     1      48.716   3.300  21.084  0.00  0.00    +0.000 HD
ATOM     16  H   UNL     1      47.774   2.694  19.767  0.00  0.00    +0.000 HD
ENDBRANCH   4  13
ENDBRANCH   1   8
BRANCH   1  17
ATOM     17  C   UNL     1      45.430   5.315  12.368  0.00  0.00    +0.000 A 
ATOM     18  C   UNL     1      44.168   5.910  12.522  0.00  0.00    +0.000 A 
ATOM     19  C   UNL     1      43.140   5.683  11.606  0.00  0.00    +0.000 A 
ATOM     20  C   UNL     1      43.361   4.878  10.489  0.00  0.00    +0.000 A 
ATOM     21  C   UNL     1      44.603   4.263  10.300  0.00  0.00    +0.000 A 
ATOM     22  C   UNL     1      45.601   4.452  11.273  0.00  0.00    +0.000 A 
BRANCH  21  23
ATOM     23  C   UNL     1      44.902   3.501   9.021  0.00  0.00    +0.000 C 
ATOM     24  C   UNL     1      45.404   2.077   9.289  0.00  0.00    +0.000 C 
ATOM     25  C   UNL     1      45.837   1.408   7.990  0.00  0.00    +0.000 C 
ATOM     26  O   UNL     1      46.818   2.196   7.316  0.00  0.00    +0.000 OA
ATOM     27  C   UNL     1      46.302   3.467   6.923  0.00  0.00    +0.000 C 
ATOM     28  C   UNL     1      45.904   4.277   8.146  0.00  0.00    +0.000 C 
ENDBRANCH  21  23
ENDBRANCH   1  17
TORSDOF 4
ENDMDL
MODEL 7
REMARK VINA RESULT:    -6.479      1.248      2.213
REMARK INTER + INTRA:          -9.124
REMARK INTER:                  -9.072
REMARK INTRA:                  -0.052
REMARK UNBOUND:                -1.130
REMARK  Name = 
REMARK  4 active torsions:
REMARK  status: ('A' for Active; 'I' for Inactive)
REMARK    1  A    between atoms: C_2  and  C_4
REMARK    2  A    between atoms: N_8  and  C_9
REMARK    3  A    between atoms: C_9  and  C_10
REMARK    4  A    between atoms: C_14  and  C_15
REMARK                            x       y       z     vdW  Elec       q    Type
REMARK                         _______ _______ _______ _____ _____    ______ ____
ROOT
ATOM      1  C   UNL     1      44.027   4.405  11.856  0.00  0.00    +0.000 C 
ATOM      2  C   UNL     1      44.859   3.726  12.936  0.00  0.00    +0.000 C 
ATOM      3  C   UNL     1      43.418   4.025  13.191  0.00  0.00    +0.000 C 
ENDROOT
BRANCH   1   8
ATOM      4  C   UNL     1      46.426   3.118   7.418  0.00  0.00    +0.000 A 
ATOM      5  C   UNL     1      46.338   4.373   8.009  0.00  0.00    +0.000 A 
ATOM      6  C   UNL     1      45.509   4.550   9.120  0.00  0.00    +0.000 A 
ATOM      7  C   UNL     1      44.769   3.480   9.607  0.00  0.00    +0.000 A 
ATOM      8  N   UNL     1      43.823   3.599  10.631  0.00  0.00    +0.000 N 
ATOM      9  N   UNL     1      44.845   2.257   9.036  0.00  0.00    +0.000 NA
ATOM     10  C   UNL     1      45.659   2.101   7.961  0.00  0.00    +0.000 A 
ATOM     11  H   UNL     1      43.509   2.645  10.801  0.00  0.00    +0.000 HD
BRANCH   4  13
ATOM     12  N   UNL     1      48.550   2.495   6.410  0.00  0.00    +0.000 N 
ATOM     13  C   UNL     1      47.243   2.838   6.214  0.00  0.00    +0.000 C 
ATOM     14  O   UNL     1      46.757   2.875   5.092  0.00  0.00    +0.000 OA
ATOM     15  H   UNL     1      49.071   2.220   5.586  0.00  0.00    +0.000 HD
ATOM     16  H   UNL     1      48.922   2.221   7.309  0.00  0.00    +0.000 HD
ENDBRANCH   4  13
ENDBRANCH   1   8
BRANCH   1  17
ATOM     17  C   UNL     1      44.282   5.879  11.558  0.00  0.00    +0.000 A 
ATOM     18  C   UNL     1      43.264   6.749  11.140  0.00  0.00    +0.000 A 
ATOM     19  C   UNL     1      43.481   8.124  11.030  0.00  0.00    +0.000 A 
ATOM     20  C   UNL     1      44.720   8.667  11.370  0.00  0.00    +0.000 A 
ATOM     21  C   UNL     1      45.762   7.835  11.788  0.00  0.00    +0.000 A 
ATOM     22  C   UNL     1      45.539   6.446  11.825  0.00  0.00    +0.000 A 
BRANCH  21  23
ATOM     23  C   UNL     1      47.067   8.423  12.295  0.00  0.00    +0.000 C 
ATOM     24  C   UNL     1      47.186   9.925  12.007  0.00  0.00    +0.000 C 
ATOM     25  C   UNL     1      48.569  10.436  12.391  0.00  0.00    +0.000 C 
ATOM     26  O   UNL     1      49.589   9.688  11.729  0.00  0.00    +0.000 OA
ATOM     27  C   UNL     1      49.581   8.316  12.118  0.00  0.00    +0.000 C 
ATOM     28  C   UNL     1      48.271   7.658  11.714  0.00  0.00    +0.000 C 
ENDBRANCH  21  23
ENDBRANCH   1  17
TORSDOF 4
ENDMDL
MODEL 8
REMARK VINA RESULT:    -6.281      3.810      5.990
REMARK INTER + INTRA:          -8.880
REMARK INTER:                  -8.507
REMARK INTRA:                  -0.373
REMARK UNBOUND:                -1.130
REMARK  Name = 
REMARK  4 active torsions:
REMARK  status: ('A' for Active; 'I' for Inactive)
REMARK    1  A    between atoms: C_2  and  C_4
REMARK    2  A    between atoms: N_8  and  C_9
REMARK    3  A    between atoms: C_9  and  C_10
REMARK    4  A    between atoms: C_14  and  C_15
REMARK                            x       y       z     vdW  Elec       q    Type
REMARK                         _______ _______ _______ _____ _____    ______ ____
ROOT
ATOM      1  C   UNL     1      47.655   8.219  13.397  0.00  0.00    +0.000 C 
ATOM      2  C   UNL     1      48.064   9.417  12.551  0.00  0.00    +0.000 C 
ATOM      3  C   UNL     1      48.611   8.065  12.232  0.00  0.00    +0.000 C 
ENDROOT
BRANCH   1   8
ATOM      4  C   UNL     1      44.536   4.583  11.359  0.00  0.00    +0.000 A 
ATOM      5  C   UNL     1      45.611   5.225  10.754  0.00  0.00    +0.000 A 
ATOM      6  C   UNL     1      46.228   6.294  11.408  0.00  0.00    +0.000 A 
ATOM      7  C   UNL     1      45.749   6.716  12.642  0.00  0.00    +0.000 A 
ATOM      8  N   UNL     1      46.224   7.852  13.305  0.00  0.00    +0.000 N 
ATOM      9  N   UNL     1      44.702   6.100  13.236  0.00  0.00    +0.000 NA
ATOM     10  C   UNL     1      44.118   5.060  12.590  0.00  0.00    +0.000 A 
ATOM     11  H   UNL     1      45.730   7.852  14.197  0.00  0.00    +0.000 HD
BRANCH   4  13
ATOM     12  N   UNL     1      44.065   3.192   9.419  0.00  0.00    +0.000 N 
ATOM     13  C   UNL     1      43.791   3.468  10.729  0.00  0.00    +0.000 C 
ATOM     14  O   UNL     1      42.990   2.797  11.365  0.00  0.00    +0.000 OA
ATOM     15  H   UNL     1      43.614   2.374   9.029  0.00  0.00    +0.000 HD
ATOM     16  H   UNL     1      44.874   3.554   8.935  0.00  0.00    +0.000 HD
ENDBRANCH   4  13
ENDBRANCH   1   8
BRANCH   1  17
ATOM     17  C   UNL     1      48.203   8.108  14.817  0.00  0.00    +0.000 A 
ATOM     18  C   UNL     1      48.218   9.195  15.704  0.00  0.00    +0.000 A 
ATOM     19  C   UNL     1      48.573   9.035  17.045  0.00  0.00    +0.000 A 
ATOM     20  C   UNL     1      48.889   7.770  17.540  0.00  0.00    +0.000 A 
ATOM     21  C   UNL     1      48.889   6.661  16.689  0.00  0.00    +0.000 A 
ATOM     22  C   UNL     1      48.596   6.860  15.328  0.00  0.00    +0.000 A 
BRANCH  21  23
ATOM     23  C   UNL     1      49.092   5.261  17.241  0.00  0.00    +0.000 C 
ATOM     24  C   UNL     1      50.562   4.824  17.208  0.00  0.00    +0.000 C 
ATOM     25  C   UNL     1      50.696   3.364  17.623  0.00  0.00    +0.000 C 
ATOM     26  O   UNL     1      49.877   2.527  16.808  0.00  0.00    +0.000 OA
ATOM     27  C   UNL     1      48.491   2.828  16.958  0.00  0.00    +0.000 C 
ATOM     28  C   UNL     1      48.204   4.248  16.496  0.00  0.00    +0.000 C 
ENDBRANCH  21  23
ENDBRANCH   1  17
TORSDOF 4
ENDMDL
MODEL 9
REMARK VINA RESULT:    -6.227      3.752      5.891
REMARK INTER + INTRA:          -8.814
REMARK INTER:                  -8.247
REMARK INTRA:                  -0.568
REMARK UNBOUND:                -1.130
REMARK  Name = 
REMARK  4 active torsions:
REMARK  status: ('A' for Active; 'I' for Inactive)
REMARK    1  A    between atoms: C_2  and  C_4
REMARK    2  A    between atoms: N_8  and  C_9
REMARK    3  A    between atoms: C_9  and  C_10
REMARK    4  A    between atoms: C_14  and  C_15
REMARK                            x       y       z     vdW  Elec       q    Type
REMARK                         _______ _______ _______ _____ _____    ______ ____
ROOT
ATOM      1  C   UNL     1      47.619   8.369  13.008  0.00  0.00    +0.000 C 
ATOM      2  C   UNL     1      47.620   9.876  12.794  0.00  0.00    +0.000 C 
ATOM      3  C   UNL     1      48.067   8.973  11.692  0.00  0.00    +0.000 C 
ENDROOT
BRANCH   1   8
ATOM      4  C   UNL     1      44.749   4.325  11.422  0.00  0.00    +0.000 A 
ATOM      5  C   UNL     1      45.551   5.160  10.651  0.00  0.00    +0.000 A 
ATOM      6  C   UNL     1      46.118   6.296  11.234  0.00  0.00    +0.000 A 
ATOM      7  C   UNL     1      45.857   6.590  12.566  0.00  0.00    +0.000 A 
ATOM      8  N   UNL     1      46.279   7.768  13.192  0.00  0.00    +0.000 N 
ATOM      9  N   UNL     1      45.076   5.787  13.323  0.00  0.00    +0.000 NA
ATOM     10  C   UNL     1      44.538   4.684  12.743  0.00  0.00    +0.000 A 
ATOM     11  H   UNL     1      45.997   7.655  14.165  0.00  0.00    +0.000 HD
BRANCH   4  13
ATOM     12  N   UNL     1      44.717   2.422   9.907  0.00  0.00    +0.000 N 
ATOM     13  C   UNL     1      44.071   3.122  10.887  0.00  0.00    +0.000 C 
ATOM     14  O   UNL     1      42.994   2.747  11.330  0.00  0.00    +0.000 OA
ATOM     15  H   UNL     1      44.284   1.554   9.615  0.00  0.00    +0.000 HD
ATOM     16  H   UNL     1      45.694   2.552   9.687  0.00  0.00    +0.000 HD
ENDBRANCH   4  13
ENDBRANCH   1   8
BRANCH   1  17
ATOM     17  C   UNL     1      48.670   7.764  13.934  0.00  0.00    +0.000 A 
ATOM     18  C   UNL     1      49.999   8.217  13.961  0.00  0.00    +0.000 A 
ATOM     19  C   UNL     1      50.902   7.764  14.924  0.00  0.00    +0.000 A 
ATOM     20  C   UNL     1      50.486   6.869  15.910  0.00  0.00    +0.000 A 
ATOM     21  C   UNL     1      49.172   6.391  15.917  0.00  0.00    +0.000 A 
ATOM     22  C   UNL     1      48.300   6.809  14.895  0.00  0.00    +0.000 A 
BRANCH  21  23
ATOM     23  C   UNL     1      48.667   5.530  17.061  0.00  0.00    +0.000 C 
ATOM     24  C   UNL     1      49.806   4.980  17.929  0.00  0.00    +0.000 C 
ATOM     25  C   UNL     1      49.265   4.001  18.964  0.00  0.00    +0.000 C 
ATOM     26  O   UNL     1      48.526   2.954  18.336  0.00  0.00    +0.000 OA
ATOM     27  C   UNL     1      47.373   3.449  17.657  0.00  0.00    +0.000 C 
ATOM     28  C   UNL     1      47.782   4.386  16.532  0.00  0.00    +0.000 C 
ENDBRANCH  21  23
ENDBRANCH   1  17
TORSDOF 4
ENDMDL
