MODEL 1
REMARK VINA RESULT:    -6.974      0.000      0.000
REMARK INTER + INTRA:         -10.909
REMARK INTER:                  -9.420
REMARK INTRA:                  -1.489
REMARK UNBOUND:                -1.489
REMARK  Name = 
REMARK  7 active torsions:
REMARK  status: ('A' for Active; 'I' for Inactive)
REMARK    1  A    between atoms: C_1  and  C_2
REMARK    2  A    between atoms: C_2  and  N_3
REMARK    3  A    between atoms: C_2  and  C_16
REMARK    4  A    between atoms: C_4  and  C_6
REMARK    5  A    between atoms: C_19  and  C_20
REMARK    6  A    between atoms: C_20  and  N_21
REMARK    7  A    between atoms: C_22  and  C_24
REMARK                            x       y       z     vdW  Elec       q    Type
REMARK                         _______ _______ _______ _____ _____    ______ ____
ROOT
ATOM      1  C   UNL     1      47.484   3.237  17.720  0.00  0.00    +0.000 C 
ATOM      2  C   UNL     1      48.354   4.451  17.391  0.00  0.00    +0.000 C 
ENDROOT
BRANCH   2   3
ATOM      3  C   UNL     1      47.973   5.012  16.024  0.00  0.00    +0.000 A 
ATOM      4  C   UNL     1      48.544   6.203  15.558  0.00  0.00    +0.000 A 
ATOM      5  C   UNL     1      48.269   6.673  14.266  0.00  0.00    +0.000 A 
ATOM      6  C   UNL     1      47.405   5.969  13.414  0.00  0.00    +0.000 A 
ATOM      7  C   UNL     1      46.813   4.791  13.890  0.00  0.00    +0.000 A 
ATOM      8  C   UNL     1      47.083   4.326  15.181  0.00  0.00    +0.000 A 
BRANCH   6   9
ATOM      9  C   UNL     1      47.108   6.454  12.016  0.00  0.00    +0.000 C 
BRANCH   9  10
ATOM     10  N   UNL     1      45.974   5.781  11.418  0.00  0.00    +0.000 N 
ATOM     11  C   UNL     1      44.745   6.402  11.338  0.00  0.00    +0.000 C 
ATOM     12  O   UNL     1      44.550   7.551  11.716  0.00  0.00    +0.000 OA
ATOM     13  H   UNL     1      46.128   4.889  10.969  0.00  0.00    +0.000 HD
BRANCH  11  14
ATOM     14  C   UNL     1      43.655   5.532  10.714  0.00  0.00    +0.000 C 
ATOM     15  C   UNL     1      42.655   4.998  11.716  0.00  0.00    +0.000 C 
ATOM     16  C   UNL     1      43.330   3.743  12.227  0.00  0.00    +0.000 C 
ATOM     17  O   UNL     1      44.118   3.230  11.145  0.00  0.00    +0.000 OA
ATOM     18  C   UNL     1      44.255   4.255  10.150  0.00  0.00    +0.000 C 
ENDBRANCH  11  14
ENDBRANCH   9  10
ENDBRANCH   6   9
ENDBRANCH   2   3
BRANCH   2  19
ATOM     19  N   UNL     1      49.769   4.126  17.394  0.00  0.00    +0.000 N 
ATOM     20  C   UNL     1      50.577   4.268  18.490  0.00  0.00    +0.000 C 
ATOM     21  O   UNL     1      50.171   4.664  19.581  0.00  0.00    +0.000 OA
ATOM     22  H   UNL     1      50.214   4.131  16.480  0.00  0.00    +0.000 HD
BRANCH  20  23
ATOM     23  C   UNL     1      51.968   3.841  18.313  0.00  0.00    +0.000 A 
ATOM     24  C   UNL     1      53.011   4.718  18.576  0.00  0.00    +0.000 A 
ATOM     25  S   UNL     1      54.553   4.032  18.323  0.00  0.00    +0.000 S 
ATOM     26  C   UNL     1      53.874   2.557  17.820  0.00  0.00    +0.000 A 
ATOM     27  N   UNL     1      54.657   1.520  17.416  0.00  0.00    +0.000 NA
ATOM     28  C   UNL     1      54.006   0.478  17.032  0.00  0.00    +0.000 A 
ATOM     29  N   UNL     1      52.634   0.365  17.023  0.00  0.00    +0.000 N 
ATOM     30  C   UNL     1      51.809   1.371  17.463  0.00  0.00    +0.000 A 
ATOM     31  O   UNL     1      50.592   1.211  17.513  0.00  0.00    +0.000 OA
ATOM     32  C   UNL     1      52.493   2.576  17.872  0.00  0.00    +0.000 A 
ATOM     33  H   UNL     1      52.185  -0.487  16.730  0.00  0.00    +0.000 HD
ENDBRANCH  20  23
ENDBRANCH   2  19
TORSDOF 6
ENDMDL
MODEL 2
REMARK VINA RESULT:    -6.698      3.105      4.097
REMARK INTER + INTRA:         -10.537
REMARK INTER:                  -9.164
REMARK INTRA:                  -1.374
REMARK UNBOUND:                -1.489
REMARK  Name = 
REMARK  7 active torsions:
REMARK  status: ('A' for Active; 'I' for Inactive)
REMARK    1  A    between atoms: C_1  and  C_2
REMARK    2  A    between atoms: C_2  and  N_3
REMARK    3  A    between atoms: C_2  and  C_16
REMARK    4  A    between atoms: C_4  and  C_6
REMARK    5  A    between atoms: C_19  and  C_20
REMARK    6  A    between atoms: C_20  and  N_21
REMARK    7  A    between atoms: C_22  and  C_24
REMARK                            x       y       z     vdW  Elec       q    Type
REMARK                         _______ _______ _______ _____ _____    ______ ____
ROOT
ATOM      1  C   UNL     1      47.946   2.934  15.822  0.00  0.00    +0.000 C 
ATOM      2  C   UNL     1      47.319   4.329  15.872  0.00  0.00    +0.000 C 
ENDROOT
BRANCH   2   3
ATOM      3  C   UNL     1      46.895   4.762  14.472  0.00  0.00    +0.000 A 
ATOM      4  C   UNL     1      45.958   4.016  13.748  0.00  0.00    +0.000 A 
ATOM      5  C   UNL     1      45.496   4.462  12.501  0.00  0.00    +0.000 A 
ATOM      6  C   UNL     1      45.972   5.657  11.943  0.00  0.00    +0.000 A 
ATOM      7  C   UNL     1      46.930   6.391  12.656  0.00  0.00    +0.000 A 
ATOM      8  C   UNL     1      47.395   5.943  13.897  0.00  0.00    +0.000 A 
BRANCH   6   9
ATOM      9  C   UNL     1      45.475   6.157  10.608  0.00  0.00    +0.000 C 
BRANCH   9  10
ATOM     10  N   UNL     1      44.972   5.093   9.763  0.00  0.00    +0.000 N 
ATOM     11  C   UNL     1      45.647   4.718   8.620  0.00  0.00    +0.000 C 
ATOM     12  O   UNL     1      46.713   5.217   8.279  0.00  0.00    +0.000 OA
ATOM     13  H   UNL     1      44.174   4.563  10.084  0.00  0.00    +0.000 HD
BRANCH  11  14
ATOM     14  C   UNL     1      44.954   3.608   7.832  0.00  0.00    +0.000 C 
ATOM     15  C   UNL     1      44.598   2.400   8.670  0.00  0.00    +0.000 C 
ATOM     16  C   UNL     1      45.873   1.587   8.646  0.00  0.00    +0.000 C 
ATOM     17  O   UNL     1      46.505   1.849   7.387  0.00  0.00    +0.000 OA
ATOM     18  C   UNL     1      45.904   3.016   6.805  0.00  0.00    +0.000 C 
ENDBRANCH  11  14
ENDBRANCH   9  10
ENDBRANCH   6   9
ENDBRANCH   2   3
BRANCH   2  19
ATOM     19  N   UNL     1      48.230   5.317  16.420  0.00  0.00    +0.000 N 
ATOM     20  C   UNL     1      48.197   5.739  17.723  0.00  0.00    +0.000 C 
ATOM     21  O   UNL     1      47.405   5.301  18.554  0.00  0.00    +0.000 OA
ATOM     22  H   UNL     1      48.652   5.940  15.737  0.00  0.00    +0.000 HD
BRANCH  20  23
ATOM     23  C   UNL     1      49.229   6.707  18.103  0.00  0.00    +0.000 A 
ATOM     24  C   UNL     1      48.877   7.922  18.675  0.00  0.00    +0.000 A 
ATOM     25  S   UNL     1      50.219   8.904  19.059  0.00  0.00    +0.000 S 
ATOM     26  C   UNL     1      51.307   7.754  18.439  0.00  0.00    +0.000 A 
ATOM     27  N   UNL     1      52.647   7.986  18.424  0.00  0.00    +0.000 NA
ATOM     28  C   UNL     1      53.347   7.042  17.896  0.00  0.00    +0.000 A 
ATOM     29  N   UNL     1      52.832   5.872  17.387  0.00  0.00    +0.000 N 
ATOM     30  C   UNL     1      51.491   5.580  17.421  0.00  0.00    +0.000 A 
ATOM     31  O   UNL     1      51.072   4.494  17.027  0.00  0.00    +0.000 OA
ATOM     32  C   UNL     1      50.660   6.625  17.974  0.00  0.00    +0.000 A 
ATOM     33  H   UNL     1      53.436   5.162  17.006  0.00  0.00    +0.000 HD
ENDBRANCH  20  23
ENDBRANCH   2  19
TORSDOF 6
ENDMDL
MODEL 3
REMARK VINA RESULT:    -6.149      4.224      6.229
REMARK INTER + INTRA:          -9.795
REMARK INTER:                  -8.616
REMARK INTRA:                  -1.179
REMARK UNBOUND:                -1.489
REMARK  Name = 
REMARK  7 active torsions:
REMARK  status: ('A' for Active; 'I' for Inactive)
REMARK    1  A    between atoms: C_1  and  C_2
REMARK    2  A    between atoms: C_2  and  N_3
REMARK    3  A    between atoms: C_2  and  C_16
REMARK    4  A    between atoms: C_4  and  C_6
REMARK    5  A    between atoms: C_19  and  C_20
REMARK    6  A    between atoms: C_20  and  N_21
REMARK    7  A    between atoms: C_22  and  C_24
REMARK                            x       y       z     vdW  Elec       q    Type
REMARK                         _______ _______ _______ _____ _____    ______ ____
ROOT
ATOM      1  C   UNL     1      47.500   3.500  14.937  0.00  0.00    +0.000 C 
ATOM      2  C   UNL     1      47.093   4.896  14.463  0.00  0.00    +0.000 C 
ENDROOT
BRANCH   2   3
ATOM      3  C   UNL     1      46.224   4.793  13.213  0.00  0.00    +0.000 A 
ATOM      4  C   UNL     1      45.896   5.937  12.476  0.00  0.00    +0.000 A 
ATOM      5  C   UNL     1      45.178   5.835  11.276  0.00  0.00    +0.000 A 
ATOM      6  C   UNL     1      44.757   4.587  10.793  0.00  0.00    +0.000 A 
ATOM      7  C   UNL     1      45.063   3.444  11.545  0.00  0.00    +0.000 A 
ATOM      8  C   UNL     1      45.774   3.547  12.744  0.00  0.00    +0.000 A 
BRANCH   6   9
ATOM      9  C   UNL     1      43.994   4.460   9.497  0.00  0.00    +0.000 C 
BRANCH   9  10
ATOM     10  N   UNL     1      44.460   3.360   8.678  0.00  0.00    +0.000 N 
ATOM     11  C   UNL     1      45.479   3.540   7.766  0.00  0.00    +0.000 C 
ATOM     12  O   UNL     1      46.072   4.604   7.626  0.00  0.00    +0.000 OA
ATOM     13  H   UNL     1      44.095   2.436   8.863  0.00  0.00    +0.000 HD
BRANCH  11  14
ATOM     14  C   UNL     1      45.816   2.285   6.963  0.00  0.00    +0.000 C 
ATOM     15  C   UNL     1      46.907   1.440   7.584  0.00  0.00    +0.000 C 
ATOM     16  C   UNL     1      48.171   2.085   7.059  0.00  0.00    +0.000 C 
ATOM     17  O   UNL     1      47.854   2.618   5.766  0.00  0.00    +0.000 OA
ATOM     18  C   UNL     1      46.426   2.661   5.624  0.00  0.00    +0.000 C 
ENDBRANCH  11  14
ENDBRANCH   9  10
ENDBRANCH   6   9
ENDBRANCH   2   3
BRANCH   2  19
ATOM     19  N   UNL     1      48.244   5.731  14.173  0.00  0.00    +0.000 N 
ATOM     20  C   UNL     1      48.723   6.687  15.030  0.00  0.00    +0.000 C 
ATOM     21  O   UNL     1      48.233   6.908  16.135  0.00  0.00    +0.000 OA
ATOM     22  H   UNL     1      48.464   5.835  13.186  0.00  0.00    +0.000 HD
BRANCH  20  23
ATOM     23  C   UNL     1      49.925   7.395  14.582  0.00  0.00    +0.000 A 
ATOM     24  C   UNL     1      51.086   7.360  15.343  0.00  0.00    +0.000 A 
ATOM     25  S   UNL     1      52.378   8.233  14.650  0.00  0.00    +0.000 S 
ATOM     26  C   UNL     1      51.416   8.715  13.333  0.00  0.00    +0.000 A 
ATOM     27  N   UNL     1      51.908   9.529  12.359  0.00  0.00    +0.000 NA
ATOM     28  C   UNL     1      51.059   9.837  11.442  0.00  0.00    +0.000 A 
ATOM     29  N   UNL     1      49.755   9.398  11.396  0.00  0.00    +0.000 N 
ATOM     30  C   UNL     1      49.232   8.542  12.333  0.00  0.00    +0.000 A 
ATOM     31  O   UNL     1      48.088   8.109  12.223  0.00  0.00    +0.000 OA
ATOM     32  C   UNL     1      50.138   8.194  13.404  0.00  0.00    +0.000 A 
ATOM     33  H   UNL     1      49.146   9.659  10.638  0.00  0.00    +0.000 HD
ENDBRANCH  20  23
ENDBRANCH   2  19
TORSDOF 6
ENDMDL
MODEL 4
REMARK VINA RESULT:    -6.137      6.425      9.345
REMARK INTER + INTRA:          -9.779
REMARK INTER:                  -8.688
REMARK INTRA:                  -1.091
REMARK UNBOUND:                -1.489
REMARK  Name = 
REMARK  7 active torsions:
REMARK  status: ('A' for Active; 'I' for Inactive)
REMARK    1  A    between atoms: C_1  and  C_2
REMARK    2  A    between atoms: C_2  and  N_3
REMARK    3  A    between atoms: C_2  and  C_16
REMARK    4  A    between atoms: C_4  and  C_6
REMARK    5  A    between atoms: C_19  and  C_20
REMARK    6  A    between atoms: C_20  and  N_21
REMARK    7  A    between atoms: C_22  and  C_24
REMARK                            x       y       z     vdW  Elec       q    Type
REMARK                         _______ _______ _______ _____ _____    ______ ____
ROOT
ATOM      1  C   UNL     1      45.180   9.520  12.185  0.00  0.00    +0.000 C 
ATOM      2  C   UNL     1      46.028   8.309  12.576  0.00  0.00    +0.000 C 
ENDROOT
BRANCH   2   3
ATOM      3  C   UNL     1      47.458   8.488  12.076  0.00  0.00    +0.000 A 
ATOM      4  C   UNL     1      47.976   9.767  11.841  0.00  0.00    +0.000 A 
ATOM      5  C   UNL     1      49.318   9.941  11.473  0.00  0.00    +0.000 A 
ATOM      6  C   UNL     1      50.169   8.837  11.317  0.00  0.00    +0.000 A 
ATOM      7  C   UNL     1      49.644   7.555  11.527  0.00  0.00    +0.000 A 
ATOM      8  C   UNL     1      48.304   7.382  11.889  0.00  0.00    +0.000 A 
BRANCH   6   9
ATOM      9  C   UNL     1      51.619   9.008  10.933  0.00  0.00    +0.000 C 
BRANCH   9  10
ATOM     10  N   UNL     1      52.049   8.057   9.929  0.00  0.00    +0.000 N 
ATOM     11  C   UNL     1      53.376   7.698   9.816  0.00  0.00    +0.000 C 
ATOM     12  O   UNL     1      54.248   8.115  10.570  0.00  0.00    +0.000 OA
ATOM     13  H   UNL     1      51.342   7.585   9.382  0.00  0.00    +0.000 HD
BRANCH  11  14
ATOM     14  C   UNL     1      53.654   6.715   8.680  0.00  0.00    +0.000 C 
ATOM     15  C   UNL     1      54.578   7.264   7.615  0.00  0.00    +0.000 C 
ATOM     16  C   UNL     1      53.631   8.013   6.703  0.00  0.00    +0.000 C 
ATOM     17  O   UNL     1      52.374   7.324   6.760  0.00  0.00    +0.000 OA
ATOM     18  C   UNL     1      52.384   6.443   7.893  0.00  0.00    +0.000 C 
ENDBRANCH  11  14
ENDBRANCH   9  10
ENDBRANCH   6   9
ENDBRANCH   2   3
BRANCH   2  19
ATOM     19  N   UNL     1      45.489   7.071  12.041  0.00  0.00    +0.000 N 
ATOM     20  C   UNL     1      45.552   5.870  12.697  0.00  0.00    +0.000 C 
ATOM     21  O   UNL     1      46.051   5.737  13.812  0.00  0.00    +0.000 OA
ATOM     22  H   UNL     1      45.387   7.047  11.029  0.00  0.00    +0.000 HD
BRANCH  20  23
ATOM     23  C   UNL     1      44.909   4.742  12.018  0.00  0.00    +0.000 A 
ATOM     24  C   UNL     1      44.121   3.850  12.731  0.00  0.00    +0.000 A 
ATOM     25  S   UNL     1      43.451   2.614  11.764  0.00  0.00    +0.000 S 
ATOM     26  C   UNL     1      44.223   3.211  10.372  0.00  0.00    +0.000 A 
ATOM     27  N   UNL     1      44.099   2.584   9.171  0.00  0.00    +0.000 NA
ATOM     28  C   UNL     1      44.764   3.129   8.212  0.00  0.00    +0.000 A 
ATOM     29  N   UNL     1      45.540   4.259   8.336  0.00  0.00    +0.000 N 
ATOM     30  C   UNL     1      45.658   4.946   9.518  0.00  0.00    +0.000 A 
ATOM     31  O   UNL     1      46.298   5.993   9.577  0.00  0.00    +0.000 OA
ATOM     32  C   UNL     1      44.956   4.353  10.633  0.00  0.00    +0.000 A 
ATOM     33  H   UNL     1      46.020   4.648   7.540  0.00  0.00    +0.000 HD
ENDBRANCH  20  23
ENDBRANCH   2  19
TORSDOF 6
ENDMDL
MODEL 5
REMARK VINA RESULT:    -6.081      3.609      5.178
REMARK INTER + INTRA:          -9.703
REMARK INTER:                  -8.808
REMARK INTRA:                  -0.895
REMARK UNBOUND:                -1.489
REMARK  Name = 
REMARK  7 active torsions:
REMARK  status: ('A' for Active; 'I' for Inactive)
REMARK    1  A    between atoms: C_1  and  C_2
REMARK    2  A    between atoms: C_2  and  N_3
REMARK    3  A    between atoms: C_2  and  C_16
REMARK    4  A    between atoms: C_4  and  C_6
REMARK    5  A    between atoms: C_19  and  C_20
REMARK    6  A    between atoms: C_20  and  N_21
REMARK    7  A    between atoms: C_22  and  C_24
REMARK                            x       y       z     vdW  Elec       q    Type
REMARK                         _______ _______ _______ _____ _____    ______ ____
ROOT
ATOM      1  C   UNL     1      47.419   3.320  14.902  0.00  0.00    +0.000 C 
ATOM      2  C   UNL     1      46.894   4.726  14.610  0.00  0.00    +0.000 C 
ENDROOT
BRANCH   2   3
ATOM      3  C   UNL     1      46.120   4.734  13.296  0.00  0.00    +0.000 A 
ATOM      4  C   UNL     1      46.116   5.870  12.477  0.00  0.00    +0.000 A 
ATOM      5  C   UNL     1      45.484   5.849  11.225  0.00  0.00    +0.000 A 
ATOM      6  C   UNL     1      44.829   4.696  10.769  0.00  0.00    +0.000 A 
ATOM      7  C   UNL     1      44.810   3.567  11.600  0.00  0.00    +0.000 A 
ATOM      8  C   UNL     1      45.435   3.590  12.851  0.00  0.00    +0.000 A 
BRANCH   6   9
ATOM      9  C   UNL     1      44.155   4.653   9.419  0.00  0.00    +0.000 C 
BRANCH   9  10
ATOM     10  N   UNL     1      44.557   3.509   8.628  0.00  0.00    +0.000 N 
ATOM     11  C   UNL     1      45.616   3.596   7.747  0.00  0.00    +0.000 C 
ATOM     12  O   UNL     1      46.295   4.608   7.615  0.00  0.00    +0.000 OA
ATOM     13  H   UNL     1      44.114   2.620   8.810  0.00  0.00    +0.000 HD
BRANCH  11  14
ATOM     14  C   UNL     1      45.876   2.308   6.969  0.00  0.00    +0.000 C 
ATOM     15  C   UNL     1      46.985   1.459   7.552  0.00  0.00    +0.000 C 
ATOM     16  C   UNL     1      48.228   2.057   6.931  0.00  0.00    +0.000 C 
ATOM     17  O   UNL     1      47.845   2.554   5.641  0.00  0.00    +0.000 OA
ATOM     18  C   UNL     1      46.412   2.625   5.583  0.00  0.00    +0.000 C 
ENDBRANCH  11  14
ENDBRANCH   9  10
ENDBRANCH   6   9
ENDBRANCH   2   3
BRANCH   2  19
ATOM     19  N   UNL     1      47.965   5.704  14.536  0.00  0.00    +0.000 N 
ATOM     20  C   UNL     1      48.517   6.310  15.634  0.00  0.00    +0.000 C 
ATOM     21  O   UNL     1      48.169   6.062  16.786  0.00  0.00    +0.000 OA
ATOM     22  H   UNL     1      48.048   6.185  13.644  0.00  0.00    +0.000 HD
BRANCH  20  23
ATOM     23  C   UNL     1      49.622   7.233  15.361  0.00  0.00    +0.000 A 
ATOM     24  C   UNL     1      49.402   8.398  14.641  0.00  0.00    +0.000 A 
ATOM     25  S   UNL     1      50.807   9.346  14.440  0.00  0.00    +0.000 S 
ATOM     26  C   UNL     1      51.757   8.210  15.276  0.00  0.00    +0.000 A 
ATOM     27  N   UNL     1      53.096   8.392  15.438  0.00  0.00    +0.000 NA
ATOM     28  C   UNL     1      53.693   7.437  16.062  0.00  0.00    +0.000 A 
ATOM     29  N   UNL     1      53.073   6.311  16.556  0.00  0.00    +0.000 N 
ATOM     30  C   UNL     1      51.720   6.110  16.452  0.00  0.00    +0.000 A 
ATOM     31  O   UNL     1      51.186   5.131  16.969  0.00  0.00    +0.000 OA
ATOM     32  C   UNL     1      51.010   7.139  15.728  0.00  0.00    +0.000 A 
ATOM     33  H   UNL     1      53.595   5.609  17.055  0.00  0.00    +0.000 HD
ENDBRANCH  20  23
ENDBRANCH   2  19
TORSDOF 6
ENDMDL
MODEL 6
REMARK VINA RESULT:    -6.048      3.325      4.235
REMARK INTER + INTRA:          -9.659
REMARK INTER:                  -8.253
REMARK INTRA:                  -1.407
REMARK UNBOUND:                -1.489
REMARK  Name = 
REMARK  7 active torsions:
REMARK  status: ('A' for Active; 'I' for Inactive)
REMARK    1  A    between atoms: C_1  and  C_2
REMARK    2  A    between atoms: C_2  and  N_3
REMARK    3  A    between atoms: C_2  and  C_16
REMARK    4  A    between atoms: C_4  and  C_6
REMARK    5  A    between atoms: C_19  and  C_20
REMARK    6  A    between atoms: C_20  and  N_21
REMARK    7  A    between atoms: C_22  and  C_24
REMARK                            x       y       z     vdW  Elec       q    Type
REMARK                         _______ _______ _______ _____ _____    ______ ____
ROOT
ATOM      1  C   UNL     1      50.082   9.846  13.700  0.00  0.00    +0.000 C 
ATOM      2  C   UNL     1      49.765   8.354  13.820  0.00  0.00    +0.000 C 
ENDROOT
BRANCH   2   3
ATOM      3  C   UNL     1      48.386   8.063  13.237  0.00  0.00    +0.000 A 
ATOM      4  C   UNL     1      47.291   8.875  13.556  0.00  0.00    +0.000 A 
ATOM      5  C   UNL     1      46.044   8.668  12.949  0.00  0.00    +0.000 A 
ATOM      6  C   UNL     1      45.859   7.634  12.020  0.00  0.00    +0.000 A 
ATOM      7  C   UNL     1      46.949   6.804  11.720  0.00  0.00    +0.000 A 
ATOM      8  C   UNL     1      48.191   7.008  12.330  0.00  0.00    +0.000 A 
BRANCH   6   9
ATOM      9  C   UNL     1      44.526   7.405  11.349  0.00  0.00    +0.000 C 
BRANCH   9  10
ATOM     10  N   UNL     1      44.310   6.018  10.992  0.00  0.00    +0.000 N 
ATOM     11  C   UNL     1      43.173   5.352  11.401  0.00  0.00    +0.000 C 
ATOM     12  O   UNL     1      42.275   5.891  12.038  0.00  0.00    +0.000 OA
ATOM     13  H   UNL     1      44.957   5.581  10.351  0.00  0.00    +0.000 HD
BRANCH  11  14
ATOM     14  C   UNL     1      43.128   3.888  10.968  0.00  0.00    +0.000 C 
ATOM     15  C   UNL     1      43.472   2.916  12.075  0.00  0.00    +0.000 C 
ATOM     16  C   UNL     1      44.983   2.862  12.015  0.00  0.00    +0.000 C 
ATOM     17  O   UNL     1      45.348   3.076  10.645  0.00  0.00    +0.000 OA
ATOM     18  C   UNL     1      44.213   3.605   9.944  0.00  0.00    +0.000 C 
ENDBRANCH  11  14
ENDBRANCH   9  10
ENDBRANCH   6   9
ENDBRANCH   2   3
BRANCH   2  19
ATOM     19  N   UNL     1      49.804   7.898  15.198  0.00  0.00    +0.000 N 
ATOM     20  C   UNL     1      50.935   7.426  15.809  0.00  0.00    +0.000 C 
ATOM     21  O   UNL     1      52.029   7.368  15.251  0.00  0.00    +0.000 OA
ATOM     22  H   UNL     1      48.909   7.606  15.581  0.00  0.00    +0.000 HD
BRANCH  20  23
ATOM     23  C   UNL     1      50.788   7.058  17.220  0.00  0.00    +0.000 A 
ATOM     24  C   UNL     1      51.531   7.707  18.196  0.00  0.00    +0.000 A 
ATOM     25  S   UNL     1      51.209   7.147  19.776  0.00  0.00    +0.000 S 
ATOM     26  C   UNL     1      50.098   5.997  19.200  0.00  0.00    +0.000 A 
ATOM     27  N   UNL     1      49.467   5.138  20.046  0.00  0.00    +0.000 NA
ATOM     28  C   UNL     1      48.678   4.301  19.468  0.00  0.00    +0.000 A 
ATOM     29  N   UNL     1      48.447   4.245  18.112  0.00  0.00    +0.000 N 
ATOM     30  C   UNL     1      49.028   5.120  17.229  0.00  0.00    +0.000 A 
ATOM     31  O   UNL     1      48.743   5.093  16.034  0.00  0.00    +0.000 OA
ATOM     32  C   UNL     1      49.951   6.058  17.827  0.00  0.00    +0.000 A 
ATOM     33  H   UNL     1      47.800   3.579  17.723  0.00  0.00    +0.000 HD
ENDBRANCH  20  23
ENDBRANCH   2  19
TORSDOF 6
ENDMDL
MODEL 7
REMARK VINA RESULT:    -6.041      4.672      6.447
REMARK INTER + INTRA:          -9.649
REMARK INTER:                  -9.201
REMARK INTRA:                  -0.449
REMARK UNBOUND:                -1.489
REMARK  Name = 
REMARK  7 active torsions:
REMARK  status: ('A' for Active; 'I' for Inactive)
REMARK    1  A    between atoms: C_1  and  C_2
REMARK    2  A    between atoms: C_2  and  N_3
REMARK    3  A    between atoms: C_2  and  C_16
REMARK    4  A    between atoms: C_4  and  C_6
REMARK    5  A    between atoms: C_19  and  C_20
REMARK    6  A    between atoms: C_20  and  N_21
REMARK    7  A    between atoms: C_22  and  C_24
REMARK                            x       y       z     vdW  Elec       q    Type
REMARK                         _______ _______ _______ _____ _____    ______ ____
ROOT
ATOM      1  C   UNL     1      47.498   3.526  14.447  0.00  0.00    +0.000 C 
ATOM      2  C   UNL     1      46.450   4.637  14.361  0.00  0.00    +0.000 C 
ENDROOT
BRANCH   2   3
ATOM      3  C   UNL     1      45.739   4.583  13.013  0.00  0.00    +0.000 A 
ATOM      4  C   UNL     1      45.317   5.760  12.382  0.00  0.00    +0.000 A 
ATOM      5  C   UNL     1      44.748   5.722  11.101  0.00  0.00    +0.000 A 
ATOM      6  C   UNL     1      44.574   4.505  10.427  0.00  0.00    +0.000 A 
ATOM      7  C   UNL     1      44.972   3.324  11.069  0.00  0.00    +0.000 A 
ATOM      8  C   UNL     1      45.535   3.362  12.349  0.00  0.00    +0.000 A 
BRANCH   6   9
ATOM      9  C   UNL     1      43.974   4.448   9.042  0.00  0.00    +0.000 C 
BRANCH   9  10
ATOM     10  N   UNL     1      44.485   3.345   8.255  0.00  0.00    +0.000 N 
ATOM     11  C   UNL     1      45.635   3.485   7.505  0.00  0.00    +0.000 C 
ATOM     12  O   UNL     1      46.305   4.510   7.493  0.00  0.00    +0.000 OA
ATOM     13  H   UNL     1      44.041   2.443   8.349  0.00  0.00    +0.000 HD
BRANCH  11  14
ATOM     14  C   UNL     1      46.005   2.235   6.709  0.00  0.00    +0.000 C 
ATOM     15  C   UNL     1      47.091   1.402   7.355  0.00  0.00    +0.000 C 
ATOM     16  C   UNL     1      48.359   2.063   6.862  0.00  0.00    +0.000 C 
ATOM     17  O   UNL     1      48.068   2.594   5.562  0.00  0.00    +0.000 OA
ATOM     18  C   UNL     1      46.644   2.620   5.385  0.00  0.00    +0.000 C 
ENDBRANCH  11  14
ENDBRANCH   9  10
ENDBRANCH   6   9
ENDBRANCH   2   3
BRANCH   2  19
ATOM     19  N   UNL     1      47.037   5.954  14.537  0.00  0.00    +0.000 N 
ATOM     20  C   UNL     1      48.126   6.399  13.836  0.00  0.00    +0.000 C 
ATOM     21  O   UNL     1      48.693   5.729  12.975  0.00  0.00    +0.000 OA
ATOM     22  H   UNL     1      46.844   6.396  15.432  0.00  0.00    +0.000 HD
BRANCH  20  23
ATOM     23  C   UNL     1      48.543   7.775  14.117  0.00  0.00    +0.000 A 
ATOM     24  C   UNL     1      48.595   8.715  13.097  0.00  0.00    +0.000 A 
ATOM     25  S   UNL     1      49.090  10.261  13.625  0.00  0.00    +0.000 S 
ATOM     26  C   UNL     1      49.284   9.712  15.223  0.00  0.00    +0.000 A 
ATOM     27  N   UNL     1      49.731  10.541  16.205  0.00  0.00    +0.000 NA
ATOM     28  C   UNL     1      49.861   9.982  17.357  0.00  0.00    +0.000 A 
ATOM     29  N   UNL     1      49.573   8.663  17.630  0.00  0.00    +0.000 N 
ATOM     30  C   UNL     1      49.079   7.805  16.679  0.00  0.00    +0.000 A 
ATOM     31  O   UNL     1      48.761   6.655  16.972  0.00  0.00    +0.000 OA
ATOM     32  C   UNL     1      48.949   8.378  15.359  0.00  0.00    +0.000 A 
ATOM     33  H   UNL     1      49.676   8.291  18.560  0.00  0.00    +0.000 HD
ENDBRANCH  20  23
ENDBRANCH   2  19
TORSDOF 6
ENDMDL
MODEL 8
REMARK VINA RESULT:    -5.904      4.593      9.220
REMARK INTER + INTRA:          -9.464
REMARK INTER:                  -9.086
REMARK INTRA:                  -0.378
REMARK UNBOUND:                -1.489
REMARK  Name = 
REMARK  7 active torsions:
REMARK  status: ('A' for Active; 'I' for Inactive)
REMARK    1  A    between atoms: C_1  and  C_2
REMARK    2  A    between atoms: C_2  and  N_3
REMARK    3  A    between atoms: C_2  and  C_16
REMARK    4  A    between atoms: C_4  and  C_6
REMARK    5  A    between atoms: C_19  and  C_20
REMARK    6  A    between atoms: C_20  and  N_21
REMARK    7  A    between atoms: C_22  and  C_24
REMARK                            x       y       z     vdW  Elec       q    Type
REMARK                         _______ _______ _______ _____ _____    ______ ____
ROOT
ATOM      1  C   UNL     1      43.052   3.813  11.695  0.00  0.00    +0.000 C 
ATOM      2  C   UNL     1      44.459   3.334  12.053  0.00  0.00    +0.000 C 
ENDROOT
BRANCH   2   3
ATOM      3  C   UNL     1      45.341   4.524  12.418  0.00  0.00    +0.000 A 
ATOM      4  C   UNL     1      45.211   5.742  11.739  0.00  0.00    +0.000 A 
ATOM      5  C   UNL     1      45.952   6.865  12.133  0.00  0.00    +0.000 A 
ATOM      6  C   UNL     1      46.853   6.792  13.206  0.00  0.00    +0.000 A 
ATOM      7  C   UNL     1      47.003   5.566  13.868  0.00  0.00    +0.000 A 
ATOM      8  C   UNL     1      46.267   4.445  13.472  0.00  0.00    +0.000 A 
BRANCH   6   9
ATOM      9  C   UNL     1      47.649   7.995  13.650  0.00  0.00    +0.000 C 
BRANCH   9  10
ATOM     10  N   UNL     1      48.265   7.811  14.948  0.00  0.00    +0.000 N 
ATOM     11  C   UNL     1      49.624   7.604  15.063  0.00  0.00    +0.000 C 
ATOM     12  O   UNL     1      50.385   7.608  14.103  0.00  0.00    +0.000 OA
ATOM     13  H   UNL     1      47.695   7.941  15.772  0.00  0.00    +0.000 HD
BRANCH  11  14
ATOM     14  C   UNL     1      50.095   7.392  16.501  0.00  0.00    +0.000 C 
ATOM     15  C   UNL     1      50.383   5.945  16.838  0.00  0.00    +0.000 C 
ATOM     16  C   UNL     1      49.022   5.414  17.231  0.00  0.00    +0.000 C 
ATOM     17  O   UNL     1      48.305   6.512  17.811  0.00  0.00    +0.000 OA
ATOM     18  C   UNL     1      48.983   7.732  17.478  0.00  0.00    +0.000 C 
ENDBRANCH  11  14
ENDBRANCH   9  10
ENDBRANCH   6   9
ENDBRANCH   2   3
BRANCH   2  19
ATOM     19  N   UNL     1      45.079   2.599  10.965  0.00  0.00    +0.000 N 
ATOM     20  C   UNL     1      44.802   2.825   9.643  0.00  0.00    +0.000 C 
ATOM     21  O   UNL     1      44.019   3.689   9.256  0.00  0.00    +0.000 OA
ATOM     22  H   UNL     1      45.448   1.685  11.217  0.00  0.00    +0.000 HD
BRANCH  20  23
ATOM     23  C   UNL     1      45.564   2.016   8.688  0.00  0.00    +0.000 A 
ATOM     24  C   UNL     1      45.480   0.632   8.714  0.00  0.00    +0.000 A 
ATOM     25  S   UNL     1      46.429  -0.129   7.517  0.00  0.00    +0.000 S 
ATOM     26  C   UNL     1      47.009   1.366   6.952  0.00  0.00    +0.000 A 
ATOM     27  N   UNL     1      47.912   1.434   5.936  0.00  0.00    +0.000 NA
ATOM     28  C   UNL     1      48.287   2.629   5.635  0.00  0.00    +0.000 A 
ATOM     29  N   UNL     1      47.834   3.775   6.249  0.00  0.00    +0.000 N 
ATOM     30  C   UNL     1      46.892   3.753   7.247  0.00  0.00    +0.000 A 
ATOM     31  O   UNL     1      46.453   4.797   7.723  0.00  0.00    +0.000 OA
ATOM     32  C   UNL     1      46.466   2.430   7.645  0.00  0.00    +0.000 A 
ATOM     33  H   UNL     1      48.152   4.683   5.951  0.00  0.00    +0.000 HD
ENDBRANCH  20  23
ENDBRANCH   2  19
TORSDOF 6
ENDMDL
MODEL 9
REMARK VINA RESULT:    -5.840      1.561      2.378
REMARK INTER + INTRA:          -9.378
REMARK INTER:                  -8.581
REMARK INTRA:                  -0.797
REMARK UNBOUND:                -1.489
REMARK  Name = 
REMARK  7 active torsions:
REMARK  status: ('A' for Active; 'I' for Inactive)
REMARK    1  A    between atoms: C_1  and  C_2
REMARK    2  A    between atoms: C_2  and  N_3
REMARK    3  A    between atoms: C_2  and  C_16
REMARK    4  A    between atoms: C_4  and  C_6
REMARK    5  A    between atoms: C_19  and  C_20
REMARK    6  A    between atoms: C_20  and  N_21
REMARK    7  A    between atoms: C_22  and  C_24
REMARK                            x       y       z     vdW  Elec       q    Type
REMARK                         _______ _______ _______ _____ _____    ______ ____
ROOT
ATOM      1  C   UNL     1      47.521   2.866  17.889  0.00  0.00    +0.000 C 
ATOM      2  C   UNL     1      48.188   4.235  17.743  0.00  0.00    +0.000 C 
ENDROOT
BRANCH   2   3
ATOM      3  C   UNL     1      47.900   4.813  16.361  0.00  0.00    +0.000 A 
ATOM      4  C   UNL     1      48.462   6.033  15.967  0.00  0.00    +0.000 A 
ATOM      5  C   UNL     1      48.276   6.521  14.666  0.00  0.00    +0.000 A 
ATOM      6  C   UNL     1      47.511   5.807  13.732  0.00  0.00    +0.000 A 
ATOM      7  C   UNL     1      46.927   4.598  14.134  0.00  0.00    +0.000 A 
ATOM      8  C   UNL     1      47.107   4.115  15.433  0.00  0.00    +0.000 A 
BRANCH   6   9
ATOM      9  C   UNL     1      47.312   6.313  12.324  0.00  0.00    +0.000 C 
BRANCH   9  10
ATOM     10  N   UNL     1      46.112   5.788  11.704  0.00  0.00    +0.000 N 
ATOM     11  C   UNL     1      44.915   6.468  11.793  0.00  0.00    +0.000 C 
ATOM     12  O   UNL     1      44.802   7.555  12.348  0.00  0.00    +0.000 OA
ATOM     13  H   UNL     1      46.194   4.968  11.120  0.00  0.00    +0.000 HD
BRANCH  11  14
ATOM     14  C   UNL     1      43.748   5.751  11.116  0.00  0.00    +0.000 C 
ATOM     15  C   UNL     1      42.739   5.181  12.089  0.00  0.00    +0.000 C 
ATOM     16  C   UNL     1      43.332   3.834  12.437  0.00  0.00    +0.000 C 
ATOM     17  O   UNL     1      44.052   3.389  11.280  0.00  0.00    +0.000 OA
ATOM     18  C   UNL     1      44.238   4.506  10.397  0.00  0.00    +0.000 C 
ENDBRANCH  11  14
ENDBRANCH   9  10
ENDBRANCH   6   9
ENDBRANCH   2   3
BRANCH   2  19
ATOM     19  N   UNL     1      49.625   4.165  17.938  0.00  0.00    +0.000 N 
ATOM     20  C   UNL     1      50.425   3.218  17.356  0.00  0.00    +0.000 C 
ATOM     21  O   UNL     1      50.000   2.353  16.593  0.00  0.00    +0.000 OA
ATOM     22  H   UNL     1      49.966   4.608  18.788  0.00  0.00    +0.000 HD
BRANCH  20  23
ATOM     23  C   UNL     1      51.859   3.340  17.633  0.00  0.00    +0.000 A 
ATOM     24  C   UNL     1      52.567   2.266  18.153  0.00  0.00    +0.000 A 
ATOM     25  S   UNL     1      54.224   2.600  18.394  0.00  0.00    +0.000 S 
ATOM     26  C   UNL     1      54.036   4.199  17.848  0.00  0.00    +0.000 A 
ATOM     27  N   UNL     1      55.084   5.067  17.830  0.00  0.00    +0.000 NA
ATOM     28  C   UNL     1      54.789   6.252  17.423  0.00  0.00    +0.000 A 
ATOM     29  N   UNL     1      53.537   6.656  17.016  0.00  0.00    +0.000 N 
ATOM     30  C   UNL     1      52.464   5.801  16.977  0.00  0.00    +0.000 A 
ATOM     31  O   UNL     1      51.378   6.172  16.537  0.00  0.00    +0.000 OA
ATOM     32  C   UNL     1      52.737   4.466  17.459  0.00  0.00    +0.000 A 
ATOM     33  H   UNL     1      53.376   7.594  16.687  0.00  0.00    +0.000 HD
ENDBRANCH  20  23
ENDBRANCH   2  19
TORSDOF 6
ENDMDL
