MODEL 1
REMARK VINA RESULT:    -7.787      0.000      0.000
REMARK INTER + INTRA:         -11.564
REMARK INTER:                 -10.518
REMARK INTRA:                  -1.047
REMARK UNBOUND:                -1.047
REMARK  Name = 
REMARK  6 active torsions:
REMARK  status: ('A' for Active; 'I' for Inactive)
REMARK    1  A    between atoms: C_2  and  C_20
REMARK    2  A    between atoms: N_3  and  C_4
REMARK    3  A    between atoms: C_4  and  C_5
REMARK    4  A    between atoms: C_8  and  C_9
REMARK    5  A    between atoms: C_9  and  N_10
REMARK    6  A    between atoms: C_11  and  C_13
REMARK                            x       y       z     vdW  Elec       q    Type
REMARK                         _______ _______ _______ _____ _____    ______ ____
ROOT
ATOM      1  C   UNL     1      46.953   4.384  14.865  0.00  0.00    +0.000 C 
ENDROOT
BRANCH   1   2
ATOM      2  C   UNL     1      46.109   4.456  13.617  0.00  0.00    +0.000 A 
ATOM      3  C   UNL     1      45.772   3.289  12.917  0.00  0.00    +0.000 A 
ATOM      4  C   UNL     1      45.008   3.353  11.747  0.00  0.00    +0.000 A 
ATOM      5  C   UNL     1      44.581   4.587  11.239  0.00  0.00    +0.000 A 
ATOM      6  C   UNL     1      44.927   5.755  11.933  0.00  0.00    +0.000 A 
ATOM      7  C   UNL     1      45.692   5.691  13.104  0.00  0.00    +0.000 A 
BRANCH   5   8
ATOM      8  C   UNL     1      43.780   4.658   9.966  0.00  0.00    +0.000 C 
BRANCH   8   9
ATOM      9  N   UNL     1      44.274   3.762   8.949  0.00  0.00    +0.000 N 
ATOM     10  C   UNL     1      45.441   4.062   8.279  0.00  0.00    +0.000 C 
ATOM     11  O   UNL     1      46.035   5.132   8.406  0.00  0.00    +0.000 OA
ATOM     12  H   UNL     1      44.017   2.779   8.978  0.00  0.00    +0.000 HD
BRANCH  10  13
ATOM     13  C   UNL     1      45.906   2.989   7.287  0.00  0.00    +0.000 C 
ATOM     14  C   UNL     1      46.358   1.730   8.004  0.00  0.00    +0.000 C 
ATOM     15  C   UNL     1      47.209   1.066   6.954  0.00  0.00    +0.000 C 
ATOM     16  C   UNL     1      47.859   2.245   6.260  0.00  0.00    +0.000 C 
ATOM     17  O   UNL     1      47.026   3.395   6.483  0.00  0.00    +0.000 OA
ENDBRANCH  10  13
ENDBRANCH   8   9
ENDBRANCH   5   8
ENDBRANCH   1   2
BRANCH   1  20
ATOM     18  O   UNL     1      49.056   4.835  16.645  0.00  0.00    +0.000 OA
ATOM     19  C   UNL     1      48.622   5.784  15.997  0.00  0.00    +0.000 C 
ATOM     20  N   UNL     1      47.545   5.664  15.157  0.00  0.00    +0.000 N 
ATOM     21  H   UNL     1      47.349   6.409  14.497  0.00  0.00    +0.000 HD
BRANCH  19  22
ATOM     22  C   UNL     1      49.206   7.125  16.114  0.00  0.00    +0.000 A 
ATOM     23  C   UNL     1      49.358   7.715  17.362  0.00  0.00    +0.000 A 
ATOM     24  S   UNL     1      50.035   9.280  17.299  0.00  0.00    +0.000 S 
ATOM     25  C   UNL     1      50.197   9.203  15.606  0.00  0.00    +0.000 A 
ATOM     26  N   UNL     1      50.748  10.231  14.907  0.00  0.00    +0.000 NA
ATOM     27  C   UNL     1      50.837  10.025  13.634  0.00  0.00    +0.000 A 
ATOM     28  N   UNL     1      50.416   8.887  12.997  0.00  0.00    +0.000 N 
ATOM     29  C   UNL     1      49.824   7.836  13.655  0.00  0.00    +0.000 A 
ATOM     30  O   UNL     1      49.410   6.856  13.044  0.00  0.00    +0.000 OA
ATOM     31  C   UNL     1      49.716   8.012  15.093  0.00  0.00    +0.000 A 
ATOM     32  H   UNL     1      50.502   8.791  11.996  0.00  0.00    +0.000 HD
ENDBRANCH  19  22
ENDBRANCH   1  20
TORSDOF 6
ENDMDL
MODEL 2
REMARK VINA RESULT:    -7.740      2.109      3.733
REMARK INTER + INTRA:         -11.501
REMARK INTER:                 -10.463
REMARK INTRA:                  -1.038
REMARK UNBOUND:                -1.047
REMARK  Name = 
REMARK  6 active torsions:
REMARK  status: ('A' for Active; 'I' for Inactive)
REMARK    1  A    between atoms: C_2  and  C_20
REMARK    2  A    between atoms: N_3  and  C_4
REMARK    3  A    between atoms: C_4  and  C_5
REMARK    4  A    between atoms: C_8  and  C_9
REMARK    5  A    between atoms: C_9  and  N_10
REMARK    6  A    between atoms: C_11  and  C_13
REMARK                            x       y       z     vdW  Elec       q    Type
REMARK                         _______ _______ _______ _____ _____    ______ ____
ROOT
ATOM      1  C   UNL     1      47.553   8.491  13.833  0.00  0.00    +0.000 C 
ENDROOT
BRANCH   1   2
ATOM      2  C   UNL     1      46.583   7.710  12.983  0.00  0.00    +0.000 A 
ATOM      3  C   UNL     1      45.416   8.315  12.496  0.00  0.00    +0.000 A 
ATOM      4  C   UNL     1      44.502   7.588  11.726  0.00  0.00    +0.000 A 
ATOM      5  C   UNL     1      44.724   6.234  11.444  0.00  0.00    +0.000 A 
ATOM      6  C   UNL     1      45.886   5.626  11.940  0.00  0.00    +0.000 A 
ATOM      7  C   UNL     1      46.801   6.353  12.710  0.00  0.00    +0.000 A 
BRANCH   5   8
ATOM      8  C   UNL     1      43.729   5.444  10.637  0.00  0.00    +0.000 C 
BRANCH   8   9
ATOM      9  N   UNL     1      44.336   4.763   9.519  0.00  0.00    +0.000 N 
ATOM     10  C   UNL     1      44.311   3.386   9.459  0.00  0.00    +0.000 C 
ATOM     11  O   UNL     1      43.906   2.679  10.380  0.00  0.00    +0.000 OA
ATOM     12  H   UNL     1      44.434   5.246   8.630  0.00  0.00    +0.000 HD
BRANCH  10  13
ATOM     13  C   UNL     1      44.910   2.788   8.180  0.00  0.00    +0.000 C 
ATOM     14  C   UNL     1      45.929   1.709   8.496  0.00  0.00    +0.000 C 
ATOM     15  C   UNL     1      46.717   1.644   7.214  0.00  0.00    +0.000 C 
ATOM     16  C   UNL     1      46.731   3.090   6.761  0.00  0.00    +0.000 C 
ATOM     17  O   UNL     1      45.607   3.748   7.368  0.00  0.00    +0.000 OA
ENDBRANCH  10  13
ENDBRANCH   8   9
ENDBRANCH   5   8
ENDBRANCH   1   2
BRANCH   1  20
ATOM     18  O   UNL     1      50.045   7.350  14.367  0.00  0.00    +0.000 OA
ATOM     19  C   UNL     1      49.173   7.287  15.230  0.00  0.00    +0.000 C 
ATOM     20  N   UNL     1      47.902   7.756  15.021  0.00  0.00    +0.000 N 
ATOM     21  H   UNL     1      47.281   7.868  15.815  0.00  0.00    +0.000 HD
BRANCH  19  22
ATOM     22  C   UNL     1      49.426   6.662  16.534  0.00  0.00    +0.000 A 
ATOM     23  C   UNL     1      50.215   7.310  17.477  0.00  0.00    +0.000 A 
ATOM     24  S   UNL     1      50.414   6.425  18.922  0.00  0.00    +0.000 S 
ATOM     25  C   UNL     1      49.411   5.170  18.359  0.00  0.00    +0.000 A 
ATOM     26  N   UNL     1      49.133   4.091  19.138  0.00  0.00    +0.000 NA
ATOM     27  C   UNL     1      48.335   3.232  18.596  0.00  0.00    +0.000 A 
ATOM     28  N   UNL     1      47.795   3.351  17.341  0.00  0.00    +0.000 N 
ATOM     29  C   UNL     1      48.072   4.406  16.505  0.00  0.00    +0.000 A 
ATOM     30  O   UNL     1      47.614   4.452  15.368  0.00  0.00    +0.000 OA
ATOM     31  C   UNL     1      48.953   5.410  17.076  0.00  0.00    +0.000 A 
ATOM     32  H   UNL     1      47.186   2.638  16.969  0.00  0.00    +0.000 HD
ENDBRANCH  19  22
ENDBRANCH   1  20
TORSDOF 6
ENDMDL
MODEL 3
REMARK VINA RESULT:    -7.542      1.840      2.909
REMARK INTER + INTRA:         -11.234
REMARK INTER:                 -10.394
REMARK INTRA:                  -0.840
REMARK UNBOUND:                -1.047
REMARK  Name = 
REMARK  6 active torsions:
REMARK  status: ('A' for Active; 'I' for Inactive)
REMARK    1  A    between atoms: C_2  and  C_20
REMARK    2  A    between atoms: N_3  and  C_4
REMARK    3  A    between atoms: C_4  and  C_5
REMARK    4  A    between atoms: C_8  and  C_9
REMARK    5  A    between atoms: C_9  and  N_10
REMARK    6  A    between atoms: C_11  and  C_13
REMARK                            x       y       z     vdW  Elec       q    Type
REMARK                         _______ _______ _______ _____ _____    ______ ____
ROOT
ATOM      1  C   UNL     1      47.365   4.304  15.026  0.00  0.00    +0.000 C 
ENDROOT
BRANCH   1   2
ATOM      2  C   UNL     1      46.476   4.402  13.812  0.00  0.00    +0.000 A 
ATOM      3  C   UNL     1      46.041   3.244  13.152  0.00  0.00    +0.000 A 
ATOM      4  C   UNL     1      45.234   3.332  12.013  0.00  0.00    +0.000 A 
ATOM      5  C   UNL     1      44.862   4.579  11.495  0.00  0.00    +0.000 A 
ATOM      6  C   UNL     1      45.306   5.737  12.149  0.00  0.00    +0.000 A 
ATOM      7  C   UNL     1      46.113   5.650  13.289  0.00  0.00    +0.000 A 
BRANCH   5   8
ATOM      8  C   UNL     1      44.015   4.674  10.254  0.00  0.00    +0.000 C 
BRANCH   8   9
ATOM      9  N   UNL     1      44.454   3.777   9.212  0.00  0.00    +0.000 N 
ATOM     10  C   UNL     1      45.556   4.101   8.448  0.00  0.00    +0.000 C 
ATOM     11  O   UNL     1      46.125   5.189   8.515  0.00  0.00    +0.000 OA
ATOM     12  H   UNL     1      44.230   2.788   9.274  0.00  0.00    +0.000 HD
BRANCH  10  13
ATOM     13  C   UNL     1      45.974   3.027   7.437  0.00  0.00    +0.000 C 
ATOM     14  C   UNL     1      46.201   1.688   8.113  0.00  0.00    +0.000 C 
ATOM     15  C   UNL     1      47.056   0.973   7.100  0.00  0.00    +0.000 C 
ATOM     16  C   UNL     1      47.906   2.092   6.535  0.00  0.00    +0.000 C 
ATOM     17  O   UNL     1      47.204   3.326   6.756  0.00  0.00    +0.000 OA
ENDBRANCH  10  13
ENDBRANCH   8   9
ENDBRANCH   5   8
ENDBRANCH   1   2
BRANCH   1  20
ATOM     18  O   UNL     1      49.507   5.056  16.652  0.00  0.00    +0.000 OA
ATOM     19  C   UNL     1      48.659   5.900  16.370  0.00  0.00    +0.000 C 
ATOM     20  N   UNL     1      47.539   5.595  15.640  0.00  0.00    +0.000 N 
ATOM     21  H   UNL     1      46.977   6.350  15.261  0.00  0.00    +0.000 HD
BRANCH  19  22
ATOM     22  C   UNL     1      48.771   7.287  16.836  0.00  0.00    +0.000 A 
ATOM     23  C   UNL     1      49.222   8.279  15.974  0.00  0.00    +0.000 A 
ATOM     24  S   UNL     1      49.304   9.823  16.696  0.00  0.00    +0.000 S 
ATOM     25  C   UNL     1      48.692   9.229  18.169  0.00  0.00    +0.000 A 
ATOM     26  N   UNL     1      48.482  10.058  19.227  0.00  0.00    +0.000 NA
ATOM     27  C   UNL     1      47.985   9.479  20.270  0.00  0.00    +0.000 A 
ATOM     28  N   UNL     1      47.686   8.144  20.353  0.00  0.00    +0.000 N 
ATOM     29  C   UNL     1      47.910   7.261  19.323  0.00  0.00    +0.000 A 
ATOM     30  O   UNL     1      47.682   6.063  19.453  0.00  0.00    +0.000 OA
ATOM     31  C   UNL     1      48.453   7.868  18.120  0.00  0.00    +0.000 A 
ATOM     32  H   UNL     1      47.311   7.749  21.202  0.00  0.00    +0.000 HD
ENDBRANCH  19  22
ENDBRANCH   1  20
TORSDOF 6
ENDMDL
MODEL 4
REMARK VINA RESULT:    -7.395      5.060      9.342
REMARK INTER + INTRA:         -11.035
REMARK INTER:                 -10.147
REMARK INTRA:                  -0.888
REMARK UNBOUND:                -1.047
REMARK  Name = 
REMARK  6 active torsions:
REMARK  status: ('A' for Active; 'I' for Inactive)
REMARK    1  A    between atoms: C_2  and  C_20
REMARK    2  A    between atoms: N_3  and  C_4
REMARK    3  A    between atoms: C_4  and  C_5
REMARK    4  A    between atoms: C_8  and  C_9
REMARK    5  A    between atoms: C_9  and  N_10
REMARK    6  A    between atoms: C_11  and  C_13
REMARK                            x       y       z     vdW  Elec       q    Type
REMARK                         _______ _______ _______ _____ _____    ______ ____
ROOT
ATOM      1  C   UNL     1      47.167   3.452  16.751  0.00  0.00    +0.000 C 
ENDROOT
BRANCH   1   2
ATOM      2  C   UNL     1      48.628   3.595  17.099  0.00  0.00    +0.000 A 
ATOM      3  C   UNL     1      49.169   4.855  17.391  0.00  0.00    +0.000 A 
ATOM      4  C   UNL     1      50.528   4.995  17.693  0.00  0.00    +0.000 A 
ATOM      5  C   UNL     1      51.379   3.883  17.689  0.00  0.00    +0.000 A 
ATOM      6  C   UNL     1      50.839   2.624  17.386  0.00  0.00    +0.000 A 
ATOM      7  C   UNL     1      49.480   2.484  17.085  0.00  0.00    +0.000 A 
BRANCH   5   8
ATOM      8  C   UNL     1      52.847   4.037  17.988  0.00  0.00    +0.000 C 
BRANCH   8   9
ATOM      9  N   UNL     1      53.584   2.812  17.794  0.00  0.00    +0.000 N 
ATOM     10  C   UNL     1      54.041   2.106  18.887  0.00  0.00    +0.000 C 
ATOM     11  O   UNL     1      53.967   2.528  20.040  0.00  0.00    +0.000 OA
ATOM     12  H   UNL     1      53.452   2.276  16.941  0.00  0.00    +0.000 HD
BRANCH  10  13
ATOM     13  C   UNL     1      54.731   0.779  18.551  0.00  0.00    +0.000 C 
ATOM     14  C   UNL     1      54.412   0.330  17.137  0.00  0.00    +0.000 C 
ATOM     15  C   UNL     1      54.729  -1.141  17.202  0.00  0.00    +0.000 C 
ATOM     16  C   UNL     1      54.305  -1.510  18.609  0.00  0.00    +0.000 C 
ATOM     17  O   UNL     1      54.328  -0.310  19.399  0.00  0.00    +0.000 OA
ENDBRANCH  10  13
ENDBRANCH   8   9
ENDBRANCH   5   8
ENDBRANCH   1   2
BRANCH   1  20
ATOM     18  O   UNL     1      47.163   3.109  13.980  0.00  0.00    +0.000 OA
ATOM     19  C   UNL     1      46.736   4.164  14.441  0.00  0.00    +0.000 C 
ATOM     20  N   UNL     1      46.771   4.443  15.784  0.00  0.00    +0.000 N 
ATOM     21  H   UNL     1      46.232   5.224  16.140  0.00  0.00    +0.000 HD
BRANCH  19  22
ATOM     22  C   UNL     1      46.197   5.220  13.575  0.00  0.00    +0.000 A 
ATOM     23  C   UNL     1      46.965   6.338  13.277  0.00  0.00    +0.000 A 
ATOM     24  S   UNL     1      46.167   7.464  12.274  0.00  0.00    +0.000 S 
ATOM     25  C   UNL     1      44.788   6.474  12.162  0.00  0.00    +0.000 A 
ATOM     26  N   UNL     1      43.717   6.845  11.411  0.00  0.00    +0.000 NA
ATOM     27  C   UNL     1      42.754   5.983  11.392  0.00  0.00    +0.000 A 
ATOM     28  N   UNL     1      42.762   4.788  12.063  0.00  0.00    +0.000 N 
ATOM     29  C   UNL     1      43.806   4.385  12.860  0.00  0.00    +0.000 A 
ATOM     30  O   UNL     1      43.755   3.333  13.489  0.00  0.00    +0.000 OA
ATOM     31  C   UNL     1      44.923   5.312  12.901  0.00  0.00    +0.000 A 
ATOM     32  H   UNL     1      41.971   4.163  12.017  0.00  0.00    +0.000 HD
ENDBRANCH  19  22
ENDBRANCH   1  20
TORSDOF 6
ENDMDL
MODEL 5
REMARK VINA RESULT:    -7.347      2.425      2.983
REMARK INTER + INTRA:         -10.971
REMARK INTER:                  -9.929
REMARK INTRA:                  -1.043
REMARK UNBOUND:                -1.047
REMARK  Name = 
REMARK  6 active torsions:
REMARK  status: ('A' for Active; 'I' for Inactive)
REMARK    1  A    between atoms: C_2  and  C_20
REMARK    2  A    between atoms: N_3  and  C_4
REMARK    3  A    between atoms: C_4  and  C_5
REMARK    4  A    between atoms: C_8  and  C_9
REMARK    5  A    between atoms: C_9  and  N_10
REMARK    6  A    between atoms: C_11  and  C_13
REMARK                            x       y       z     vdW  Elec       q    Type
REMARK                         _______ _______ _______ _____ _____    ______ ____
ROOT
ATOM      1  C   UNL     1      47.981   4.843  15.675  0.00  0.00    +0.000 C 
ENDROOT
BRANCH   1   2
ATOM      2  C   UNL     1      47.254   5.175  14.396  0.00  0.00    +0.000 A 
ATOM      3  C   UNL     1      46.166   4.399  13.973  0.00  0.00    +0.000 A 
ATOM      4  C   UNL     1      45.503   4.690  12.777  0.00  0.00    +0.000 A 
ATOM      5  C   UNL     1      45.927   5.750  11.965  0.00  0.00    +0.000 A 
ATOM      6  C   UNL     1      47.022   6.520  12.382  0.00  0.00    +0.000 A 
ATOM      7  C   UNL     1      47.685   6.229  13.580  0.00  0.00    +0.000 A 
BRANCH   5   8
ATOM      8  C   UNL     1      45.230   6.049  10.664  0.00  0.00    +0.000 C 
BRANCH   8   9
ATOM      9  N   UNL     1      45.680   5.201   9.587  0.00  0.00    +0.000 N 
ATOM     10  C   UNL     1      44.894   4.146   9.170  0.00  0.00    +0.000 C 
ATOM     11  O   UNL     1      43.870   3.798   9.755  0.00  0.00    +0.000 OA
ATOM     12  H   UNL     1      46.337   5.564   8.902  0.00  0.00    +0.000 HD
BRANCH  10  13
ATOM     13  C   UNL     1      45.441   3.377   7.961  0.00  0.00    +0.000 C 
ATOM     14  C   UNL     1      45.951   2.006   8.362  0.00  0.00    +0.000 C 
ATOM     15  C   UNL     1      46.860   1.667   7.209  0.00  0.00    +0.000 C 
ATOM     16  C   UNL     1      47.453   3.013   6.849  0.00  0.00    +0.000 C 
ATOM     17  O   UNL     1      46.550   4.027   7.320  0.00  0.00    +0.000 OA
ENDBRANCH  10  13
ENDBRANCH   8   9
ENDBRANCH   5   8
ENDBRANCH   1   2
BRANCH   1  20
ATOM     18  O   UNL     1      49.525   5.344  17.947  0.00  0.00    +0.000 OA
ATOM     19  C   UNL     1      48.526   6.032  17.754  0.00  0.00    +0.000 C 
ATOM     20  N   UNL     1      47.673   5.803  16.704  0.00  0.00    +0.000 N 
ATOM     21  H   UNL     1      46.984   6.508  16.465  0.00  0.00    +0.000 HD
BRANCH  19  22
ATOM     22  C   UNL     1      48.154   7.122  18.664  0.00  0.00    +0.000 A 
ATOM     23  C   UNL     1      47.987   6.872  20.020  0.00  0.00    +0.000 A 
ATOM     24  S   UNL     1      47.537   8.253  20.916  0.00  0.00    +0.000 S 
ATOM     25  C   UNL     1      47.600   9.242  19.532  0.00  0.00    +0.000 A 
ATOM     26  N   UNL     1      47.346  10.576  19.610  0.00  0.00    +0.000 NA
ATOM     27  C   UNL     1      47.461  11.208  18.489  0.00  0.00    +0.000 A 
ATOM     28  N   UNL     1      47.799  10.626  17.295  0.00  0.00    +0.000 N 
ATOM     29  C   UNL     1      48.033   9.279  17.160  0.00  0.00    +0.000 A 
ATOM     30  O   UNL     1      48.280   8.784  16.065  0.00  0.00    +0.000 OA
ATOM     31  C   UNL     1      47.933   8.525  18.397  0.00  0.00    +0.000 A 
ATOM     32  H   UNL     1      47.860  11.174  16.450  0.00  0.00    +0.000 HD
ENDBRANCH  19  22
ENDBRANCH   1  20
TORSDOF 6
ENDMDL
MODEL 6
REMARK VINA RESULT:    -6.906      4.289      8.919
REMARK INTER + INTRA:         -10.375
REMARK INTER:                  -9.414
REMARK INTRA:                  -0.961
REMARK UNBOUND:                -1.047
REMARK  Name = 
REMARK  6 active torsions:
REMARK  status: ('A' for Active; 'I' for Inactive)
REMARK    1  A    between atoms: C_2  and  C_20
REMARK    2  A    between atoms: N_3  and  C_4
REMARK    3  A    between atoms: C_4  and  C_5
REMARK    4  A    between atoms: C_8  and  C_9
REMARK    5  A    between atoms: C_9  and  N_10
REMARK    6  A    between atoms: C_11  and  C_13
REMARK                            x       y       z     vdW  Elec       q    Type
REMARK                         _______ _______ _______ _____ _____    ______ ____
ROOT
ATOM      1  C   UNL     1      48.264   7.415  14.636  0.00  0.00    +0.000 C 
ENDROOT
BRANCH   1   2
ATOM      2  C   UNL     1      48.667   6.327  15.599  0.00  0.00    +0.000 A 
ATOM      3  C   UNL     1      47.807   5.251  15.858  0.00  0.00    +0.000 A 
ATOM      4  C   UNL     1      48.168   4.251  16.767  0.00  0.00    +0.000 A 
ATOM      5  C   UNL     1      49.387   4.317  17.454  0.00  0.00    +0.000 A 
ATOM      6  C   UNL     1      50.243   5.399  17.203  0.00  0.00    +0.000 A 
ATOM      7  C   UNL     1      49.882   6.400  16.293  0.00  0.00    +0.000 A 
BRANCH   5   8
ATOM      8  C   UNL     1      49.765   3.255  18.452  0.00  0.00    +0.000 C 
BRANCH   8   9
ATOM      9  N   UNL     1      51.181   2.978  18.458  0.00  0.00    +0.000 N 
ATOM     10  C   UNL     1      51.683   1.954  17.681  0.00  0.00    +0.000 C 
ATOM     11  O   UNL     1      50.969   1.164  17.067  0.00  0.00    +0.000 OA
ATOM     12  H   UNL     1      51.836   3.716  18.699  0.00  0.00    +0.000 HD
BRANCH  10  13
ATOM     13  C   UNL     1      53.210   1.819  17.706  0.00  0.00    +0.000 C 
ATOM     14  C   UNL     1      53.658   0.488  17.132  0.00  0.00    +0.000 C 
ATOM     15  C   UNL     1      55.045   0.357  17.705  0.00  0.00    +0.000 C 
ATOM     16  C   UNL     1      54.898   0.984  19.076  0.00  0.00    +0.000 C 
ATOM     17  O   UNL     1      53.771   1.875  19.028  0.00  0.00    +0.000 OA
ENDBRANCH  10  13
ENDBRANCH   8   9
ENDBRANCH   5   8
ENDBRANCH   1   2
BRANCH   1  20
ATOM     18  O   UNL     1      47.980   6.589  11.984  0.00  0.00    +0.000 OA
ATOM     19  C   UNL     1      46.980   6.626  12.697  0.00  0.00    +0.000 C 
ATOM     20  N   UNL     1      47.019   7.090  13.987  0.00  0.00    +0.000 N 
ATOM     21  H   UNL     1      46.229   6.916  14.597  0.00  0.00    +0.000 HD
BRANCH  19  22
ATOM     22  C   UNL     1      45.663   6.215  12.197  0.00  0.00    +0.000 A 
ATOM     23  C   UNL     1      44.828   7.141  11.585  0.00  0.00    +0.000 A 
ATOM     24  S   UNL     1      43.333   6.485  11.087  0.00  0.00    +0.000 S 
ATOM     25  C   UNL     1      43.771   4.931  11.624  0.00  0.00    +0.000 A 
ATOM     26  N   UNL     1      42.932   3.872  11.467  0.00  0.00    +0.000 NA
ATOM     27  C   UNL     1      43.406   2.747  11.892  0.00  0.00    +0.000 A 
ATOM     28  N   UNL     1      44.639   2.587  12.467  0.00  0.00    +0.000 N 
ATOM     29  C   UNL     1      45.508   3.631  12.677  0.00  0.00    +0.000 A 
ATOM     30  O   UNL     1      46.582   3.459  13.245  0.00  0.00    +0.000 OA
ATOM     31  C   UNL     1      45.028   4.917  12.200  0.00  0.00    +0.000 A 
ATOM     32  H   UNL     1      44.947   1.682  12.791  0.00  0.00    +0.000 HD
ENDBRANCH  19  22
ENDBRANCH   1  20
TORSDOF 6
ENDMDL
MODEL 7
REMARK VINA RESULT:    -6.903      2.733      3.922
REMARK INTER + INTRA:         -10.371
REMARK INTER:                  -9.433
REMARK INTRA:                  -0.938
REMARK UNBOUND:                -1.047
REMARK  Name = 
REMARK  6 active torsions:
REMARK  status: ('A' for Active; 'I' for Inactive)
REMARK    1  A    between atoms: C_2  and  C_20
REMARK    2  A    between atoms: N_3  and  C_4
REMARK    3  A    between atoms: C_4  and  C_5
REMARK    4  A    between atoms: C_8  and  C_9
REMARK    5  A    between atoms: C_9  and  N_10
REMARK    6  A    between atoms: C_11  and  C_13
REMARK                            x       y       z     vdW  Elec       q    Type
REMARK                         _______ _______ _______ _____ _____    ______ ____
ROOT
ATOM      1  C   UNL     1      48.739   7.955  13.979  0.00  0.00    +0.000 C 
ENDROOT
BRANCH   1   2
ATOM      2  C   UNL     1      47.744   6.928  13.497  0.00  0.00    +0.000 A 
ATOM      3  C   UNL     1      46.901   7.209  12.413  0.00  0.00    +0.000 A 
ATOM      4  C   UNL     1      45.962   6.268  11.976  0.00  0.00    +0.000 A 
ATOM      5  C   UNL     1      45.831   5.035  12.627  0.00  0.00    +0.000 A 
ATOM      6  C   UNL     1      46.667   4.759  13.719  0.00  0.00    +0.000 A 
ATOM      7  C   UNL     1      47.606   5.700  14.156  0.00  0.00    +0.000 A 
BRANCH   5   8
ATOM      8  C   UNL     1      44.803   4.032  12.174  0.00  0.00    +0.000 C 
BRANCH   8   9
ATOM      9  N   UNL     1      45.102   3.480  10.875  0.00  0.00    +0.000 N 
ATOM     10  C   UNL     1      44.406   3.919   9.768  0.00  0.00    +0.000 C 
ATOM     11  O   UNL     1      43.439   4.676   9.836  0.00  0.00    +0.000 OA
ATOM     12  H   UNL     1      46.021   3.085  10.697  0.00  0.00    +0.000 HD
BRANCH  10  13
ATOM     13  C   UNL     1      44.877   3.321   8.436  0.00  0.00    +0.000 C 
ATOM     14  C   UNL     1      45.723   2.081   8.654  0.00  0.00    +0.000 C 
ATOM     15  C   UNL     1      46.464   1.980   7.346  0.00  0.00    +0.000 C 
ATOM     16  C   UNL     1      46.693   3.432   6.982  0.00  0.00    +0.000 C 
ATOM     17  O   UNL     1      45.698   4.214   7.664  0.00  0.00    +0.000 OA
ENDBRANCH  10  13
ENDBRANCH   8   9
ENDBRANCH   5   8
ENDBRANCH   1   2
BRANCH   1  20
ATOM     18  O   UNL     1      49.521   8.113  16.655  0.00  0.00    +0.000 OA
ATOM     19  C   UNL     1      50.166   7.394  15.897  0.00  0.00    +0.000 C 
ATOM     20  N   UNL     1      49.895   7.317  14.555  0.00  0.00    +0.000 N 
ATOM     21  H   UNL     1      50.312   6.570  14.010  0.00  0.00    +0.000 HD
BRANCH  19  22
ATOM     22  C   UNL     1      51.304   6.599  16.374  0.00  0.00    +0.000 A 
ATOM     23  C   UNL     1      52.601   7.070  16.214  0.00  0.00    +0.000 A 
ATOM     24  S   UNL     1      53.791   6.003  16.811  0.00  0.00    +0.000 S 
ATOM     25  C   UNL     1      52.613   4.899  17.350  0.00  0.00    +0.000 A 
ATOM     26  N   UNL     1      52.966   3.754  17.993  0.00  0.00    +0.000 NA
ATOM     27  C   UNL     1      51.969   3.025  18.373  0.00  0.00    +0.000 A 
ATOM     28  N   UNL     1      50.651   3.334  18.161  0.00  0.00    +0.000 N 
ATOM     29  C   UNL     1      50.246   4.462  17.489  0.00  0.00    +0.000 A 
ATOM     30  O   UNL     1      49.058   4.678  17.270  0.00  0.00    +0.000 OA
ATOM     31  C   UNL     1      51.331   5.325  17.055  0.00  0.00    +0.000 A 
ATOM     32  H   UNL     1      49.917   2.716  18.473  0.00  0.00    +0.000 HD
ENDBRANCH  19  22
ENDBRANCH   1  20
TORSDOF 6
ENDMDL
MODEL 8
REMARK VINA RESULT:    -6.824      2.765      3.455
REMARK INTER + INTRA:         -10.265
REMARK INTER:                  -9.496
REMARK INTRA:                  -0.769
REMARK UNBOUND:                -1.047
REMARK  Name = 
REMARK  6 active torsions:
REMARK  status: ('A' for Active; 'I' for Inactive)
REMARK    1  A    between atoms: C_2  and  C_20
REMARK    2  A    between atoms: N_3  and  C_4
REMARK    3  A    between atoms: C_4  and  C_5
REMARK    4  A    between atoms: C_8  and  C_9
REMARK    5  A    between atoms: C_9  and  N_10
REMARK    6  A    between atoms: C_11  and  C_13
REMARK                            x       y       z     vdW  Elec       q    Type
REMARK                         _______ _______ _______ _____ _____    ______ ____
ROOT
ATOM      1  C   UNL     1      47.389   4.347  15.770  0.00  0.00    +0.000 C 
ENDROOT
BRANCH   1   2
ATOM      2  C   UNL     1      46.855   4.821  14.441  0.00  0.00    +0.000 A 
ATOM      3  C   UNL     1      45.781   4.160  13.829  0.00  0.00    +0.000 A 
ATOM      4  C   UNL     1      45.297   4.583  12.587  0.00  0.00    +0.000 A 
ATOM      5  C   UNL     1      45.891   5.660  11.917  0.00  0.00    +0.000 A 
ATOM      6  C   UNL     1      46.973   6.314  12.524  0.00  0.00    +0.000 A 
ATOM      7  C   UNL     1      47.457   5.892  13.768  0.00  0.00    +0.000 A 
BRANCH   5   8
ATOM      8  C   UNL     1      45.388   6.099  10.568  0.00  0.00    +0.000 C 
BRANCH   8   9
ATOM      9  N   UNL     1      45.803   5.214   9.507  0.00  0.00    +0.000 N 
ATOM     10  C   UNL     1      44.933   4.254   9.034  0.00  0.00    +0.000 C 
ATOM     11  O   UNL     1      43.845   4.016   9.557  0.00  0.00    +0.000 OA
ATOM     12  H   UNL     1      46.533   5.509   8.864  0.00  0.00    +0.000 HD
BRANCH  10  13
ATOM     13  C   UNL     1      45.460   3.438   7.848  0.00  0.00    +0.000 C 
ATOM     14  C   UNL     1      46.000   2.093   8.296  0.00  0.00    +0.000 C 
ATOM     15  C   UNL     1      46.885   1.715   7.137  0.00  0.00    +0.000 C 
ATOM     16  C   UNL     1      47.449   3.051   6.701  0.00  0.00    +0.000 C 
ATOM     17  O   UNL     1      46.543   4.073   7.149  0.00  0.00    +0.000 OA
ENDBRANCH  10  13
ENDBRANCH   8   9
ENDBRANCH   5   8
ENDBRANCH   1   2
BRANCH   1  20
ATOM     18  O   UNL     1      46.765   4.981  18.417  0.00  0.00    +0.000 OA
ATOM     19  C   UNL     1      47.625   5.643  17.843  0.00  0.00    +0.000 C 
ATOM     20  N   UNL     1      47.939   5.446  16.522  0.00  0.00    +0.000 N 
ATOM     21  H   UNL     1      48.782   5.867  16.147  0.00  0.00    +0.000 HD
BRANCH  19  22
ATOM     22  C   UNL     1      48.348   6.723  18.525  0.00  0.00    +0.000 A 
ATOM     23  C   UNL     1      47.800   7.997  18.590  0.00  0.00    +0.000 A 
ATOM     24  S   UNL     1      48.790   9.124  19.404  0.00  0.00    +0.000 S 
ATOM     25  C   UNL     1      49.961   7.936  19.743  0.00  0.00    +0.000 A 
ATOM     26  N   UNL     1      51.079   8.237  20.455  0.00  0.00    +0.000 NA
ATOM     27  C   UNL     1      51.866   7.233  20.664  0.00  0.00    +0.000 A 
ATOM     28  N   UNL     1      51.638   5.957  20.218  0.00  0.00    +0.000 N 
ATOM     29  C   UNL     1      50.540   5.612  19.468  0.00  0.00    +0.000 A 
ATOM     30  O   UNL     1      50.398   4.471  19.039  0.00  0.00    +0.000 OA
ATOM     31  C   UNL     1      49.615   6.704  19.219  0.00  0.00    +0.000 A 
ATOM     32  H   UNL     1      52.299   5.218  20.405  0.00  0.00    +0.000 HD
ENDBRANCH  19  22
ENDBRANCH   1  20
TORSDOF 6
ENDMDL
MODEL 9
REMARK VINA RESULT:    -6.773      2.619      3.488
REMARK INTER + INTRA:         -10.195
REMARK INTER:                  -9.063
REMARK INTRA:                  -1.133
REMARK UNBOUND:                -1.047
REMARK  Name = 
REMARK  6 active torsions:
REMARK  status: ('A' for Active; 'I' for Inactive)
REMARK    1  A    between atoms: C_2  and  C_20
REMARK    2  A    between atoms: N_3  and  C_4
REMARK    3  A    between atoms: C_4  and  C_5
REMARK    4  A    between atoms: C_8  and  C_9
REMARK    5  A    between atoms: C_9  and  N_10
REMARK    6  A    between atoms: C_11  and  C_13
REMARK                            x       y       z     vdW  Elec       q    Type
REMARK                         _______ _______ _______ _____ _____    ______ ____
ROOT
ATOM      1  C   UNL     1      48.775   7.001  14.684  0.00  0.00    +0.000 C 
ENDROOT
BRANCH   1   2
ATOM      2  C   UNL     1      47.691   6.626  13.704  0.00  0.00    +0.000 A 
ATOM      3  C   UNL     1      47.258   7.543  12.736  0.00  0.00    +0.000 A 
ATOM      4  C   UNL     1      46.238   7.208  11.840  0.00  0.00    +0.000 A 
ATOM      5  C   UNL     1      45.613   5.956  11.906  0.00  0.00    +0.000 A 
ATOM      6  C   UNL     1      46.038   5.043  12.882  0.00  0.00    +0.000 A 
ATOM      7  C   UNL     1      47.059   5.379  13.778  0.00  0.00    +0.000 A 
BRANCH   5   8
ATOM      8  C   UNL     1      44.497   5.603  10.959  0.00  0.00    +0.000 C 
BRANCH   8   9
ATOM      9  N   UNL     1      44.968   4.928   9.774  0.00  0.00    +0.000 N 
ATOM     10  C   UNL     1      44.517   3.657   9.485  0.00  0.00    +0.000 C 
ATOM     11  O   UNL     1      43.820   2.998  10.255  0.00  0.00    +0.000 OA
ATOM     12  H   UNL     1      45.301   5.473   8.984  0.00  0.00    +0.000 HD
BRANCH  10  13
ATOM     13  C   UNL     1      45.021   3.084   8.155  0.00  0.00    +0.000 C 
ATOM     14  C   UNL     1      45.945   1.900   8.376  0.00  0.00    +0.000 C 
ATOM     15  C   UNL     1      46.687   1.840   7.067  0.00  0.00    +0.000 C 
ATOM     16  C   UNL     1      46.822   3.302   6.695  0.00  0.00    +0.000 C 
ATOM     17  O   UNL     1      45.781   4.022   7.376  0.00  0.00    +0.000 OA
ENDBRANCH  10  13
ENDBRANCH   8   9
ENDBRANCH   5   8
ENDBRANCH   1   2
BRANCH   1  20
ATOM     18  O   UNL     1      49.952   9.532  14.612  0.00  0.00    +0.000 OA
ATOM     19  C   UNL     1      50.536   8.598  14.069  0.00  0.00    +0.000 C 
ATOM     20  N   UNL     1      49.993   7.341  13.994  0.00  0.00    +0.000 N 
ATOM     21  H   UNL     1      50.585   6.564  13.723  0.00  0.00    +0.000 HD
BRANCH  19  22
ATOM     22  C   UNL     1      51.842   8.779  13.424  0.00  0.00    +0.000 A 
ATOM     23  C   UNL     1      52.910   9.299  14.143  0.00  0.00    +0.000 A 
ATOM     24  S   UNL     1      54.339   9.455  13.223  0.00  0.00    +0.000 S 
ATOM     25  C   UNL     1      53.594   8.786  11.847  0.00  0.00    +0.000 A 
ATOM     26  N   UNL     1      54.288   8.606  10.692  0.00  0.00    +0.000 NA
ATOM     27  C   UNL     1      53.607   8.060   9.739  0.00  0.00    +0.000 A 
ATOM     28  N   UNL     1      52.291   7.686   9.835  0.00  0.00    +0.000 N 
ATOM     29  C   UNL     1      51.540   7.877  10.969  0.00  0.00    +0.000 A 
ATOM     30  O   UNL     1      50.350   7.580  11.001  0.00  0.00    +0.000 OA
ATOM     31  C   UNL     1      52.267   8.473  12.077  0.00  0.00    +0.000 A 
ATOM     32  H   UNL     1      51.811   7.275   9.048  0.00  0.00    +0.000 HD
ENDBRANCH  19  22
ENDBRANCH   1  20
TORSDOF 6
ENDMDL
