MODEL 1
REMARK VINA RESULT:    -8.177      0.000      0.000
REMARK INTER + INTRA:         -13.824
REMARK INTER:                 -12.480
REMARK INTRA:                  -1.344
REMARK UNBOUND:                -1.344
REMARK  Name = 
REMARK  9 active torsions:
REMARK  status: ('A' for Active; 'I' for Inactive)
REMARK    1  A    between atoms: C_2  and  C_3
REMARK    2  A    between atoms: C_3  and  N_4
REMARK    3  A    between atoms: C_3  and  C_21
REMARK    4  A    between atoms: N_4  and  C_5
REMARK    5  A    between atoms: C_5  and  C_6
REMARK    6  A    between atoms: C_9  and  C_10
REMARK    7  A    between atoms: C_10  and  O_11
REMARK    8  A    between atoms: O_11  and  C_12
REMARK    9  A    between atoms: C_12  and  C_13
REMARK                            x       y       z     vdW  Elec       q    Type
REMARK                         _______ _______ _______ _____ _____    ______ ____
ROOT
ATOM      1  N   UNL     1      47.105   6.771  13.993  0.00  0.00    +0.000 NA
ATOM      2  H   UNL     1      46.527   6.286  14.681  0.00  0.00    +0.000 HD
ENDROOT
BRANCH   1   3
ATOM      3  C   UNL     1      48.521   6.473  14.308  0.00  0.00    +0.000 C 
BRANCH   3   4
ATOM      4  C   UNL     1      48.613   6.297  15.812  0.00  0.00    +0.000 A 
ATOM      5  C   UNL     1      49.066   7.248  16.717  0.00  0.00    +0.000 A 
ATOM      6  S   UNL     1      49.116   6.678  18.328  0.00  0.00    +0.000 S 
ATOM      7  C   UNL     1      48.488   5.162  17.876  0.00  0.00    +0.000 A 
ATOM      8  N   UNL     1      48.274   4.178  18.789  0.00  0.00    +0.000 NA
ATOM      9  C   UNL     1      47.777   3.093  18.295  0.00  0.00    +0.000 A 
ATOM     10  N   UNL     1      47.470   2.900  16.970  0.00  0.00    +0.000 N 
ATOM     11  C   UNL     1      47.659   3.869  16.015  0.00  0.00    +0.000 A 
ATOM     12  O   UNL     1      47.336   3.701  14.839  0.00  0.00    +0.000 OA
ATOM     13  C   UNL     1      48.239   5.096  16.520  0.00  0.00    +0.000 A 
ATOM     14  H   UNL     1      47.063   2.032  16.658  0.00  0.00    +0.000 HD
ENDBRANCH   3   4
BRANCH   3  16
ATOM     15  N   UNL     1      50.240   8.321  13.495  0.00  0.00    +0.000 NA
ATOM     16  C   UNL     1      49.479   7.521  13.854  0.00  0.00    +0.000 C 
ENDBRANCH   3  16
ENDBRANCH   1   3
BRANCH   1  17
ATOM     17  C   UNL     1      46.755   6.268  12.656  0.00  0.00    +0.000 C 
BRANCH  17  18
ATOM     18  C   UNL     1      45.239   6.143  12.412  0.00  0.00    +0.000 C 
ATOM     19  C   UNL     1      44.898   5.926  10.930  0.00  0.00    +0.000 C 
ATOM     20  C   UNL     1      43.417   5.592  10.764  0.00  0.00    +0.000 C 
ATOM     21  C   UNL     1      42.996   4.451  11.695  0.00  0.00    +0.000 C 
ATOM     22  C   UNL     1      43.384   4.812  13.130  0.00  0.00    +0.000 C 
ATOM     23  O   UNL     1      44.790   5.047  13.223  0.00  0.00    +0.000 OA
BRANCH  21  24
ATOM     24  C   UNL     1      43.656   3.124  11.296  0.00  0.00    +0.000 C 
BRANCH  24  25
ATOM     25  O   UNL     1      43.782   3.083   9.877  0.00  0.00    +0.000 OA
BRANCH  25  26
ATOM     26  C   UNL     1      44.400   1.872   9.452  0.00  0.00    +0.000 C 
BRANCH  26  27
ATOM     27  C   UNL     1      45.484   2.197   8.463  0.00  0.00    +0.000 A 
ATOM     28  C   UNL     1      45.646   3.506   7.988  0.00  0.00    +0.000 A 
ATOM     29  C   UNL     1      46.675   3.812   7.098  0.00  0.00    +0.000 A 
ATOM     30  C   UNL     1      47.552   2.815   6.677  0.00  0.00    +0.000 A 
ATOM     31  C   UNL     1      47.394   1.508   7.134  0.00  0.00    +0.000 A 
ATOM     32  C   UNL     1      46.361   1.198   8.017  0.00  0.00    +0.000 A 
ENDBRANCH  26  27
ENDBRANCH  25  26
ENDBRANCH  24  25
ENDBRANCH  21  24
ENDBRANCH  17  18
ENDBRANCH   1  17
TORSDOF 9
ENDMDL
MODEL 2
REMARK VINA RESULT:    -8.021      2.435      4.344
REMARK INTER + INTRA:         -13.585
REMARK INTER:                 -12.102
REMARK INTRA:                  -1.483
REMARK UNBOUND:                -1.344
REMARK  Name = 
REMARK  9 active torsions:
REMARK  status: ('A' for Active; 'I' for Inactive)
REMARK    1  A    between atoms: C_2  and  C_3
REMARK    2  A    between atoms: C_3  and  N_4
REMARK    3  A    between atoms: C_3  and  C_21
REMARK    4  A    between atoms: N_4  and  C_5
REMARK    5  A    between atoms: C_5  and  C_6
REMARK    6  A    between atoms: C_9  and  C_10
REMARK    7  A    between atoms: C_10  and  O_11
REMARK    8  A    between atoms: O_11  and  C_12
REMARK    9  A    between atoms: C_12  and  C_13
REMARK                            x       y       z     vdW  Elec       q    Type
REMARK                         _______ _______ _______ _____ _____    ______ ____
ROOT
ATOM      1  N   UNL     1      48.025   5.551  13.256  0.00  0.00    +0.000 NA
ATOM      2  H   UNL     1      47.858   5.806  12.282  0.00  0.00    +0.000 HD
ENDROOT
BRANCH   1   3
ATOM      3  C   UNL     1      48.154   6.806  14.031  0.00  0.00    +0.000 C 
BRANCH   3   4
ATOM      4  C   UNL     1      48.702   7.858  13.085  0.00  0.00    +0.000 A 
ATOM      5  C   UNL     1      50.003   7.920  12.602  0.00  0.00    +0.000 A 
ATOM      6  S   UNL     1      50.294   9.291  11.623  0.00  0.00    +0.000 S 
ATOM      7  C   UNL     1      48.683   9.817  11.771  0.00  0.00    +0.000 A 
ATOM      8  N   UNL     1      48.245  10.953  11.166  0.00  0.00    +0.000 NA
ATOM      9  C   UNL     1      46.993  11.209  11.358  0.00  0.00    +0.000 A 
ATOM     10  N   UNL     1      46.135  10.431  12.097  0.00  0.00    +0.000 N 
ATOM     11  C   UNL     1      46.531   9.271  12.716  0.00  0.00    +0.000 A 
ATOM     12  O   UNL     1      45.742   8.558  13.337  0.00  0.00    +0.000 OA
ATOM     13  C   UNL     1      47.935   8.957  12.550  0.00  0.00    +0.000 A 
ATOM     14  H   UNL     1      45.162  10.681  12.186  0.00  0.00    +0.000 HD
ENDBRANCH   3   4
BRANCH   3  16
ATOM     15  N   UNL     1      49.707   6.625  16.173  0.00  0.00    +0.000 NA
ATOM     16  C   UNL     1      49.029   6.692  15.233  0.00  0.00    +0.000 C 
ENDBRANCH   3  16
ENDBRANCH   1   3
BRANCH   1  17
ATOM     17  C   UNL     1      46.876   4.765  13.733  0.00  0.00    +0.000 C 
BRANCH  17  18
ATOM     18  C   UNL     1      45.532   5.180  13.107  0.00  0.00    +0.000 C 
ATOM     19  C   UNL     1      45.582   5.207  11.572  0.00  0.00    +0.000 C 
ATOM     20  C   UNL     1      44.182   5.410  10.993  0.00  0.00    +0.000 C 
ATOM     21  C   UNL     1      43.185   4.411  11.588  0.00  0.00    +0.000 C 
ATOM     22  C   UNL     1      43.235   4.506  13.113  0.00  0.00    +0.000 C 
ATOM     23  O   UNL     1      44.557   4.243  13.587  0.00  0.00    +0.000 OA
BRANCH  21  24
ATOM     24  C   UNL     1      43.494   2.974  11.146  0.00  0.00    +0.000 C 
BRANCH  24  25
ATOM     25  O   UNL     1      43.846   2.983   9.765  0.00  0.00    +0.000 OA
BRANCH  25  26
ATOM     26  C   UNL     1      44.547   1.797   9.407  0.00  0.00    +0.000 C 
BRANCH  26  27
ATOM     27  C   UNL     1      45.621   2.144   8.415  0.00  0.00    +0.000 A 
ATOM     28  C   UNL     1      45.783   3.464   7.974  0.00  0.00    +0.000 A 
ATOM     29  C   UNL     1      46.805   3.791   7.081  0.00  0.00    +0.000 A 
ATOM     30  C   UNL     1      47.672   2.801   6.624  0.00  0.00    +0.000 A 
ATOM     31  C   UNL     1      47.514   1.483   7.047  0.00  0.00    +0.000 A 
ATOM     32  C   UNL     1      46.489   1.154   7.932  0.00  0.00    +0.000 A 
ENDBRANCH  26  27
ENDBRANCH  25  26
ENDBRANCH  24  25
ENDBRANCH  21  24
ENDBRANCH  17  18
ENDBRANCH   1  17
TORSDOF 9
ENDMDL
MODEL 3
REMARK VINA RESULT:    -7.904      1.766      2.832
REMARK INTER + INTRA:         -13.407
REMARK INTER:                 -12.279
REMARK INTRA:                  -1.128
REMARK UNBOUND:                -1.344
REMARK  Name = 
REMARK  9 active torsions:
REMARK  status: ('A' for Active; 'I' for Inactive)
REMARK    1  A    between atoms: C_2  and  C_3
REMARK    2  A    between atoms: C_3  and  N_4
REMARK    3  A    between atoms: C_3  and  C_21
REMARK    4  A    between atoms: N_4  and  C_5
REMARK    5  A    between atoms: C_5  and  C_6
REMARK    6  A    between atoms: C_9  and  C_10
REMARK    7  A    between atoms: C_10  and  O_11
REMARK    8  A    between atoms: O_11  and  C_12
REMARK    9  A    between atoms: C_12  and  C_13
REMARK                            x       y       z     vdW  Elec       q    Type
REMARK                         _______ _______ _______ _____ _____    ______ ____
ROOT
ATOM      1  N   UNL     1      47.515   5.253  15.073  0.00  0.00    +0.000 NA
ATOM      2  H   UNL     1      46.975   6.096  15.273  0.00  0.00    +0.000 HD
ENDROOT
BRANCH   1   3
ATOM      3  C   UNL     1      47.818   4.599  16.366  0.00  0.00    +0.000 C 
BRANCH   3   4
ATOM      4  C   UNL     1      48.769   5.514  17.114  0.00  0.00    +0.000 A 
ATOM      5  C   UNL     1      50.018   5.927  16.672  0.00  0.00    +0.000 A 
ATOM      6  S   UNL     1      50.854   6.889  17.812  0.00  0.00    +0.000 S 
ATOM      7  C   UNL     1      49.556   6.826  18.910  0.00  0.00    +0.000 A 
ATOM      8  N   UNL     1      49.610   7.453  20.115  0.00  0.00    +0.000 NA
ATOM      9  C   UNL     1      48.540   7.328  20.828  0.00  0.00    +0.000 A 
ATOM     10  N   UNL     1      47.416   6.635  20.446  0.00  0.00    +0.000 N 
ATOM     11  C   UNL     1      47.313   5.997  19.235  0.00  0.00    +0.000 A 
ATOM     12  O   UNL     1      46.284   5.420  18.885  0.00  0.00    +0.000 OA
ATOM     13  C   UNL     1      48.501   6.089  18.411  0.00  0.00    +0.000 A 
ATOM     14  H   UNL     1      46.607   6.598  21.047  0.00  0.00    +0.000 HD
ENDBRANCH   3   4
BRANCH   3  16
ATOM     15  N   UNL     1      48.889   2.182  16.152  0.00  0.00    +0.000 NA
ATOM     16  C   UNL     1      48.413   3.238  16.236  0.00  0.00    +0.000 C 
ENDBRANCH   3  16
ENDBRANCH   1   3
BRANCH   1  17
ATOM     17  C   UNL     1      46.699   4.369  14.225  0.00  0.00    +0.000 C 
BRANCH  17  18
ATOM     18  C   UNL     1      45.660   5.114  13.365  0.00  0.00    +0.000 C 
ATOM     19  C   UNL     1      45.979   5.038  11.864  0.00  0.00    +0.000 C 
ATOM     20  C   UNL     1      44.819   5.596  11.041  0.00  0.00    +0.000 C 
ATOM     21  C   UNL     1      43.488   4.957  11.450  0.00  0.00    +0.000 C 
ATOM     22  C   UNL     1      43.302   5.121  12.960  0.00  0.00    +0.000 C 
ATOM     23  O   UNL     1      44.389   4.521  13.665  0.00  0.00    +0.000 OA
BRANCH  21  24
ATOM     24  C   UNL     1      43.439   3.469  11.079  0.00  0.00    +0.000 C 
BRANCH  24  25
ATOM     25  O   UNL     1      43.866   3.319   9.727  0.00  0.00    +0.000 OA
BRANCH  25  26
ATOM     26  C   UNL     1      44.599   2.111   9.554  0.00  0.00    +0.000 C 
BRANCH  26  27
ATOM     27  C   UNL     1      45.611   2.305   8.460  0.00  0.00    +0.000 A 
ATOM     28  C   UNL     1      46.384   1.229   8.005  0.00  0.00    +0.000 A 
ATOM     29  C   UNL     1      47.297   1.404   6.964  0.00  0.00    +0.000 A 
ATOM     30  C   UNL     1      47.444   2.655   6.370  0.00  0.00    +0.000 A 
ATOM     31  C   UNL     1      46.689   3.736   6.822  0.00  0.00    +0.000 A 
ATOM     32  C   UNL     1      45.783   3.565   7.868  0.00  0.00    +0.000 A 
ENDBRANCH  26  27
ENDBRANCH  25  26
ENDBRANCH  24  25
ENDBRANCH  21  24
ENDBRANCH  17  18
ENDBRANCH   1  17
TORSDOF 9
ENDMDL
MODEL 4
REMARK VINA RESULT:    -7.660      1.699      3.318
REMARK INTER + INTRA:         -13.034
REMARK INTER:                 -11.825
REMARK INTRA:                  -1.209
REMARK UNBOUND:                -1.344
REMARK  Name = 
REMARK  9 active torsions:
REMARK  status: ('A' for Active; 'I' for Inactive)
REMARK    1  A    between atoms: C_2  and  C_3
REMARK    2  A    between atoms: C_3  and  N_4
REMARK    3  A    between atoms: C_3  and  C_21
REMARK    4  A    between atoms: N_4  and  C_5
REMARK    5  A    between atoms: C_5  and  C_6
REMARK    6  A    between atoms: C_9  and  C_10
REMARK    7  A    between atoms: C_10  and  O_11
REMARK    8  A    between atoms: O_11  and  C_12
REMARK    9  A    between atoms: C_12  and  C_13
REMARK                            x       y       z     vdW  Elec       q    Type
REMARK                         _______ _______ _______ _____ _____    ______ ____
ROOT
ATOM      1  N   UNL     1      47.829   5.073  14.696  0.00  0.00    +0.000 NA
ATOM      2  H   UNL     1      47.735   6.010  14.301  0.00  0.00    +0.000 HD
ENDROOT
BRANCH   1   3
ATOM      3  C   UNL     1      47.779   5.202  16.170  0.00  0.00    +0.000 C 
BRANCH   3   4
ATOM      4  C   UNL     1      49.201   5.442  16.643  0.00  0.00    +0.000 A 
ATOM      5  C   UNL     1      49.976   4.553  17.376  0.00  0.00    +0.000 A 
ATOM      6  S   UNL     1      51.502   5.188  17.811  0.00  0.00    +0.000 S 
ATOM      7  C   UNL     1      51.196   6.650  16.994  0.00  0.00    +0.000 A 
ATOM      8  N   UNL     1      52.110   7.656  16.966  0.00  0.00    +0.000 NA
ATOM      9  C   UNL     1      51.738   8.693  16.291  0.00  0.00    +0.000 A 
ATOM     10  N   UNL     1      50.537   8.816  15.635  0.00  0.00    +0.000 N 
ATOM     11  C   UNL     1      49.590   7.821  15.627  0.00  0.00    +0.000 A 
ATOM     12  O   UNL     1      48.537   7.925  14.997  0.00  0.00    +0.000 OA
ATOM     13  C   UNL     1      49.953   6.648  16.394  0.00  0.00    +0.000 A 
ATOM     14  H   UNL     1      50.323   9.648  15.108  0.00  0.00    +0.000 HD
ENDBRANCH   3   4
BRANCH   3  16
ATOM     15  N   UNL     1      46.735   3.091  17.390  0.00  0.00    +0.000 NA
ATOM     16  C   UNL     1      47.201   4.016  16.865  0.00  0.00    +0.000 C 
ENDBRANCH   3  16
ENDBRANCH   1   3
BRANCH   1  17
ATOM     17  C   UNL     1      46.711   4.250  14.210  0.00  0.00    +0.000 C 
BRANCH  17  18
ATOM     18  C   UNL     1      45.681   5.028  13.370  0.00  0.00    +0.000 C 
ATOM     19  C   UNL     1      45.990   4.976  11.866  0.00  0.00    +0.000 C 
ATOM     20  C   UNL     1      44.835   5.571  11.061  0.00  0.00    +0.000 C 
ATOM     21  C   UNL     1      43.496   4.946  11.465  0.00  0.00    +0.000 C 
ATOM     22  C   UNL     1      43.321   5.083  12.979  0.00  0.00    +0.000 C 
ATOM     23  O   UNL     1      44.401   4.451  13.666  0.00  0.00    +0.000 OA
BRANCH  21  24
ATOM     24  C   UNL     1      43.419   3.467  11.065  0.00  0.00    +0.000 C 
BRANCH  24  25
ATOM     25  O   UNL     1      43.842   3.335   9.710  0.00  0.00    +0.000 OA
BRANCH  25  26
ATOM     26  C   UNL     1      44.511   2.095   9.501  0.00  0.00    +0.000 C 
BRANCH  26  27
ATOM     27  C   UNL     1      45.594   2.290   8.477  0.00  0.00    +0.000 A 
ATOM     28  C   UNL     1      46.383   1.209   8.061  0.00  0.00    +0.000 A 
ATOM     29  C   UNL     1      47.364   1.385   7.084  0.00  0.00    +0.000 A 
ATOM     30  C   UNL     1      47.562   2.641   6.514  0.00  0.00    +0.000 A 
ATOM     31  C   UNL     1      46.790   3.725   6.928  0.00  0.00    +0.000 A 
ATOM     32  C   UNL     1      45.816   3.553   7.911  0.00  0.00    +0.000 A 
ENDBRANCH  26  27
ENDBRANCH  25  26
ENDBRANCH  24  25
ENDBRANCH  21  24
ENDBRANCH  17  18
ENDBRANCH   1  17
TORSDOF 9
ENDMDL
MODEL 5
REMARK VINA RESULT:    -7.489      1.533      2.122
REMARK INTER + INTRA:         -12.773
REMARK INTER:                 -11.670
REMARK INTRA:                  -1.102
REMARK UNBOUND:                -1.344
REMARK  Name = 
REMARK  9 active torsions:
REMARK  status: ('A' for Active; 'I' for Inactive)
REMARK    1  A    between atoms: C_2  and  C_3
REMARK    2  A    between atoms: C_3  and  N_4
REMARK    3  A    between atoms: C_3  and  C_21
REMARK    4  A    between atoms: N_4  and  C_5
REMARK    5  A    between atoms: C_5  and  C_6
REMARK    6  A    between atoms: C_9  and  C_10
REMARK    7  A    between atoms: C_10  and  O_11
REMARK    8  A    between atoms: O_11  and  C_12
REMARK    9  A    between atoms: C_12  and  C_13
REMARK                            x       y       z     vdW  Elec       q    Type
REMARK                         _______ _______ _______ _____ _____    ______ ____
ROOT
ATOM      1  N   UNL     1      47.335   6.749  14.038  0.00  0.00    +0.000 NA
ATOM      2  H   UNL     1      47.123   6.825  15.035  0.00  0.00    +0.000 HD
ENDROOT
BRANCH   1   3
ATOM      3  C   UNL     1      48.807   6.784  13.890  0.00  0.00    +0.000 C 
BRANCH   3   4
ATOM      4  C   UNL     1      49.352   7.589  15.055  0.00  0.00    +0.000 A 
ATOM      5  C   UNL     1      49.704   8.932  15.023  0.00  0.00    +0.000 A 
ATOM      6  S   UNL     1      50.364   9.493  16.498  0.00  0.00    +0.000 S 
ATOM      7  C   UNL     1      50.153   7.976  17.240  0.00  0.00    +0.000 A 
ATOM      8  N   UNL     1      50.516   7.758  18.532  0.00  0.00    +0.000 NA
ATOM      9  C   UNL     1      50.276   6.562  18.957  0.00  0.00    +0.000 A 
ATOM     10  N   UNL     1      49.702   5.562  18.210  0.00  0.00    +0.000 N 
ATOM     11  C   UNL     1      49.310   5.740  16.906  0.00  0.00    +0.000 A 
ATOM     12  O   UNL     1      48.754   4.851  16.262  0.00  0.00    +0.000 OA
ATOM     13  C   UNL     1      49.583   7.060  16.378  0.00  0.00    +0.000 A 
ATOM     14  H   UNL     1      49.524   4.656  18.615  0.00  0.00    +0.000 HD
ENDBRANCH   3   4
BRANCH   3  16
ATOM     15  N   UNL     1      49.653   7.837  11.608  0.00  0.00    +0.000 NA
ATOM     16  C   UNL     1      49.276   7.368  12.600  0.00  0.00    +0.000 C 
ENDBRANCH   3  16
ENDBRANCH   1   3
BRANCH   1  17
ATOM     17  C   UNL     1      46.795   5.472  13.545  0.00  0.00    +0.000 C 
BRANCH  17  18
ATOM     18  C   UNL     1      45.346   5.563  13.033  0.00  0.00    +0.000 C 
ATOM     19  C   UNL     1      45.268   5.624  11.499  0.00  0.00    +0.000 C 
ATOM     20  C   UNL     1      43.820   5.494  11.030  0.00  0.00    +0.000 C 
ATOM     21  C   UNL     1      43.138   4.277  11.662  0.00  0.00    +0.000 C 
ATOM     22  C   UNL     1      43.283   4.359  13.183  0.00  0.00    +0.000 C 
ATOM     23  O   UNL     1      44.662   4.413  13.551  0.00  0.00    +0.000 OA
BRANCH  21  24
ATOM     24  C   UNL     1      43.744   2.962  11.153  0.00  0.00    +0.000 C 
BRANCH  24  25
ATOM     25  O   UNL     1      44.076   3.113   9.775  0.00  0.00    +0.000 OA
BRANCH  25  26
ATOM     26  C   UNL     1      44.502   1.876   9.212  0.00  0.00    +0.000 C 
BRANCH  26  27
ATOM     27  C   UNL     1      45.633   2.136   8.258  0.00  0.00    +0.000 A 
ATOM     28  C   UNL     1      46.546   1.121   7.942  0.00  0.00    +0.000 A 
ATOM     29  C   UNL     1      47.574   1.354   7.027  0.00  0.00    +0.000 A 
ATOM     30  C   UNL     1      47.696   2.602   6.421  0.00  0.00    +0.000 A 
ATOM     31  C   UNL     1      46.801   3.623   6.736  0.00  0.00    +0.000 A 
ATOM     32  C   UNL     1      45.779   3.394   7.656  0.00  0.00    +0.000 A 
ENDBRANCH  26  27
ENDBRANCH  25  26
ENDBRANCH  24  25
ENDBRANCH  21  24
ENDBRANCH  17  18
ENDBRANCH   1  17
TORSDOF 9
ENDMDL
MODEL 6
REMARK VINA RESULT:    -7.299      1.321      1.570
REMARK INTER + INTRA:         -12.484
REMARK INTER:                 -11.523
REMARK INTRA:                  -0.960
REMARK UNBOUND:                -1.344
REMARK  Name = 
REMARK  9 active torsions:
REMARK  status: ('A' for Active; 'I' for Inactive)
REMARK    1  A    between atoms: C_2  and  C_3
REMARK    2  A    between atoms: C_3  and  N_4
REMARK    3  A    between atoms: C_3  and  C_21
REMARK    4  A    between atoms: N_4  and  C_5
REMARK    5  A    between atoms: C_5  and  C_6
REMARK    6  A    between atoms: C_9  and  C_10
REMARK    7  A    between atoms: C_10  and  O_11
REMARK    8  A    between atoms: O_11  and  C_12
REMARK    9  A    between atoms: C_12  and  C_13
REMARK                            x       y       z     vdW  Elec       q    Type
REMARK                         _______ _______ _______ _____ _____    ______ ____
ROOT
ATOM      1  N   UNL     1      47.927   6.867  14.660  0.00  0.00    +0.000 NA
ATOM      2  H   UNL     1      47.267   7.331  15.286  0.00  0.00    +0.000 HD
ENDROOT
BRANCH   1   3
ATOM      3  C   UNL     1      49.181   6.647  15.415  0.00  0.00    +0.000 C 
BRANCH   3   4
ATOM      4  C   UNL     1      48.864   6.880  16.881  0.00  0.00    +0.000 A 
ATOM      5  C   UNL     1      48.525   8.097  17.457  0.00  0.00    +0.000 A 
ATOM      6  S   UNL     1      48.317   8.006  19.152  0.00  0.00    +0.000 S 
ATOM      7  C   UNL     1      48.622   6.332  19.162  0.00  0.00    +0.000 A 
ATOM      8  N   UNL     1      48.600   5.611  20.314  0.00  0.00    +0.000 NA
ATOM      9  C   UNL     1      48.833   4.350  20.156  0.00  0.00    +0.000 A 
ATOM     10  N   UNL     1      49.083   3.741  18.950  0.00  0.00    +0.000 N 
ATOM     11  C   UNL     1      49.103   4.428  17.761  0.00  0.00    +0.000 A 
ATOM     12  O   UNL     1      49.281   3.863  16.682  0.00  0.00    +0.000 OA
ATOM     13  C   UNL     1      48.872   5.851  17.893  0.00  0.00    +0.000 A 
ATOM     14  H   UNL     1      49.235   2.745  18.899  0.00  0.00    +0.000 HD
ENDBRANCH   3   4
BRANCH   3  16
ATOM     15  N   UNL     1      51.174   8.218  14.644  0.00  0.00    +0.000 NA
ATOM     16  C   UNL     1      50.310   7.525  14.990  0.00  0.00    +0.000 C 
ENDBRANCH   3  16
ENDBRANCH   1   3
BRANCH   1  17
ATOM     17  C   UNL     1      47.344   5.583  14.240  0.00  0.00    +0.000 C 
BRANCH  17  18
ATOM     18  C   UNL     1      46.067   5.725  13.391  0.00  0.00    +0.000 C 
ATOM     19  C   UNL     1      46.372   5.872  11.892  0.00  0.00    +0.000 C 
ATOM     20  C   UNL     1      45.084   5.791  11.073  0.00  0.00    +0.000 C 
ATOM     21  C   UNL     1      44.266   4.551  11.445  0.00  0.00    +0.000 C 
ATOM     22  C   UNL     1      44.030   4.546  12.956  0.00  0.00    +0.000 C 
ATOM     23  O   UNL     1      45.275   4.558  13.656  0.00  0.00    +0.000 OA
BRANCH  21  24
ATOM     24  C   UNL     1      44.978   3.258  11.025  0.00  0.00    +0.000 C 
BRANCH  24  25
ATOM     25  O   UNL     1      44.213   2.623  10.003  0.00  0.00    +0.000 OA
BRANCH  25  26
ATOM     26  C   UNL     1      44.387   3.279   8.751  0.00  0.00    +0.000 C 
BRANCH  26  27
ATOM     27  C   UNL     1      45.599   2.714   8.067  0.00  0.00    +0.000 A 
ATOM     28  C   UNL     1      46.447   3.543   7.320  0.00  0.00    +0.000 A 
ATOM     29  C   UNL     1      47.592   3.023   6.715  0.00  0.00    +0.000 A 
ATOM     30  C   UNL     1      47.899   1.671   6.853  0.00  0.00    +0.000 A 
ATOM     31  C   UNL     1      47.057   0.834   7.584  0.00  0.00    +0.000 A 
ATOM     32  C   UNL     1      45.908   1.351   8.182  0.00  0.00    +0.000 A 
ENDBRANCH  26  27
ENDBRANCH  25  26
ENDBRANCH  24  25
ENDBRANCH  21  24
ENDBRANCH  17  18
ENDBRANCH   1  17
TORSDOF 9
ENDMDL
MODEL 7
REMARK VINA RESULT:    -6.308      2.257      4.096
REMARK INTER + INTRA:         -10.972
REMARK INTER:                 -10.202
REMARK INTRA:                  -0.769
REMARK UNBOUND:                -1.344
REMARK  Name = 
REMARK  9 active torsions:
REMARK  status: ('A' for Active; 'I' for Inactive)
REMARK    1  A    between atoms: C_2  and  C_3
REMARK    2  A    between atoms: C_3  and  N_4
REMARK    3  A    between atoms: C_3  and  C_21
REMARK    4  A    between atoms: N_4  and  C_5
REMARK    5  A    between atoms: C_5  and  C_6
REMARK    6  A    between atoms: C_9  and  C_10
REMARK    7  A    between atoms: C_10  and  O_11
REMARK    8  A    between atoms: O_11  and  C_12
REMARK    9  A    between atoms: C_12  and  C_13
REMARK                            x       y       z     vdW  Elec       q    Type
REMARK                         _______ _______ _______ _____ _____    ______ ____
ROOT
ATOM      1  N   UNL     1      48.589   5.449  15.876  0.00  0.00    +0.000 NA
ATOM      2  H   UNL     1      49.401   4.829  15.880  0.00  0.00    +0.000 HD
ENDROOT
BRANCH   1   3
ATOM      3  C   UNL     1      47.879   5.263  17.162  0.00  0.00    +0.000 C 
BRANCH   3   4
ATOM      4  C   UNL     1      48.910   5.418  18.265  0.00  0.00    +0.000 A 
ATOM      5  C   UNL     1      48.859   6.339  19.303  0.00  0.00    +0.000 A 
ATOM      6  S   UNL     1      50.235   6.290  20.317  0.00  0.00    +0.000 S 
ATOM      7  C   UNL     1      50.917   5.006  19.433  0.00  0.00    +0.000 A 
ATOM      8  N   UNL     1      52.118   4.466  19.772  0.00  0.00    +0.000 NA
ATOM      9  C   UNL     1      52.493   3.487  19.016  0.00  0.00    +0.000 A 
ATOM     10  N   UNL     1      51.776   2.994  17.953  0.00  0.00    +0.000 N 
ATOM     11  C   UNL     1      50.554   3.501  17.582  0.00  0.00    +0.000 A 
ATOM     12  O   UNL     1      49.900   3.020  16.657  0.00  0.00    +0.000 OA
ATOM     13  C   UNL     1      50.105   4.618  18.386  0.00  0.00    +0.000 A 
ATOM     14  H   UNL     1      52.121   2.211  17.419  0.00  0.00    +0.000 HD
ENDBRANCH   3   4
BRANCH   3  16
ATOM     15  N   UNL     1      46.628   2.937  17.398  0.00  0.00    +0.000 NA
ATOM     16  C   UNL     1      47.186   3.949  17.290  0.00  0.00    +0.000 C 
ENDBRANCH   3  16
ENDBRANCH   1   3
BRANCH   1  17
ATOM     17  C   UNL     1      49.064   6.835  15.743  0.00  0.00    +0.000 C 
BRANCH  17  18
ATOM     18  C   UNL     1      48.820   7.448  14.351  0.00  0.00    +0.000 C 
ATOM     19  C   UNL     1      48.449   6.390  13.301  0.00  0.00    +0.000 C 
ATOM     20  C   UNL     1      48.006   7.059  12.000  0.00  0.00    +0.000 C 
ATOM     21  C   UNL     1      46.929   8.117  12.257  0.00  0.00    +0.000 C 
ATOM     22  C   UNL     1      47.443   9.103  13.308  0.00  0.00    +0.000 C 
ATOM     23  O   UNL     1      47.776   8.418  14.516  0.00  0.00    +0.000 OA
BRANCH  21  24
ATOM     24  C   UNL     1      45.617   7.483  12.737  0.00  0.00    +0.000 C 
BRANCH  24  25
ATOM     25  O   UNL     1      45.023   6.778  11.650  0.00  0.00    +0.000 OA
BRANCH  25  26
ATOM     26  C   UNL     1      44.831   5.405  11.974  0.00  0.00    +0.000 C 
BRANCH  26  27
ATOM     27  C   UNL     1      44.905   4.590  10.714  0.00  0.00    +0.000 A 
ATOM     28  C   UNL     1      45.493   5.119   9.557  0.00  0.00    +0.000 A 
ATOM     29  C   UNL     1      45.593   4.347   8.399  0.00  0.00    +0.000 A 
ATOM     30  C   UNL     1      45.110   3.041   8.388  0.00  0.00    +0.000 A 
ATOM     31  C   UNL     1      44.513   2.508   9.530  0.00  0.00    +0.000 A 
ATOM     32  C   UNL     1      44.404   3.280  10.685  0.00  0.00    +0.000 A 
ENDBRANCH  26  27
ENDBRANCH  25  26
ENDBRANCH  24  25
ENDBRANCH  21  24
ENDBRANCH  17  18
ENDBRANCH   1  17
TORSDOF 9
ENDMDL
MODEL 8
REMARK VINA RESULT:    -6.260      2.174      3.336
REMARK INTER + INTRA:         -10.898
REMARK INTER:                  -9.758
REMARK INTRA:                  -1.140
REMARK UNBOUND:                -1.344
REMARK  Name = 
REMARK  9 active torsions:
REMARK  status: ('A' for Active; 'I' for Inactive)
REMARK    1  A    between atoms: C_2  and  C_3
REMARK    2  A    between atoms: C_3  and  N_4
REMARK    3  A    between atoms: C_3  and  C_21
REMARK    4  A    between atoms: N_4  and  C_5
REMARK    5  A    between atoms: C_5  and  C_6
REMARK    6  A    between atoms: C_9  and  C_10
REMARK    7  A    between atoms: C_10  and  O_11
REMARK    8  A    between atoms: O_11  and  C_12
REMARK    9  A    between atoms: C_12  and  C_13
REMARK                            x       y       z     vdW  Elec       q    Type
REMARK                         _______ _______ _______ _____ _____    ______ ____
ROOT
ATOM      1  N   UNL     1      47.967   8.220  15.840  0.00  0.00    +0.000 NA
ATOM      2  H   UNL     1      48.265   7.264  15.641  0.00  0.00    +0.000 HD
ENDROOT
BRANCH   1   3
ATOM      3  C   UNL     1      48.617   8.637  17.104  0.00  0.00    +0.000 C 
BRANCH   3   4
ATOM      4  C   UNL     1      48.294   7.576  18.140  0.00  0.00    +0.000 A 
ATOM      5  C   UNL     1      47.526   7.760  19.282  0.00  0.00    +0.000 A 
ATOM      6  S   UNL     1      47.441   6.367  20.270  0.00  0.00    +0.000 S 
ATOM      7  C   UNL     1      48.383   5.461  19.181  0.00  0.00    +0.000 A 
ATOM      8  N   UNL     1      48.696   4.160  19.420  0.00  0.00    +0.000 NA
ATOM      9  C   UNL     1      49.402   3.604  18.491  0.00  0.00    +0.000 A 
ATOM     10  N   UNL     1      49.822   4.227  17.341  0.00  0.00    +0.000 N 
ATOM     11  C   UNL     1      49.520   5.536  17.053  0.00  0.00    +0.000 A 
ATOM     12  O   UNL     1      49.861   6.069  15.998  0.00  0.00    +0.000 OA
ATOM     13  C   UNL     1      48.751   6.208  18.079  0.00  0.00    +0.000 A 
ATOM     14  H   UNL     1      50.353   3.723  16.648  0.00  0.00    +0.000 HD
ENDBRANCH   3   4
BRANCH   3  16
ATOM     15  N   UNL     1      47.858  11.032  17.955  0.00  0.00    +0.000 NA
ATOM     16  C   UNL     1      48.189   9.979  17.594  0.00  0.00    +0.000 C 
ENDBRANCH   3  16
ENDBRANCH   1   3
BRANCH   1  17
ATOM     17  C   UNL     1      48.399   9.081  14.728  0.00  0.00    +0.000 C 
BRANCH  17  18
ATOM     18  C   UNL     1      47.737   8.740  13.380  0.00  0.00    +0.000 C 
ATOM     19  C   UNL     1      48.329   7.475  12.739  0.00  0.00    +0.000 C 
ATOM     20  C   UNL     1      47.504   7.053  11.524  0.00  0.00    +0.000 C 
ATOM     21  C   UNL     1      46.014   6.964  11.868  0.00  0.00    +0.000 C 
ATOM     22  C   UNL     1      45.565   8.292  12.481  0.00  0.00    +0.000 C 
ATOM     23  O   UNL     1      46.335   8.590  13.646  0.00  0.00    +0.000 OA
BRANCH  21  24
ATOM     24  C   UNL     1      45.728   5.817  12.846  0.00  0.00    +0.000 C 
BRANCH  24  25
ATOM     25  O   UNL     1      44.817   4.907  12.233  0.00  0.00    +0.000 OA
BRANCH  25  26
ATOM     26  C   UNL     1      44.453   5.347  10.929  0.00  0.00    +0.000 C 
BRANCH  26  27
ATOM     27  C   UNL     1      44.956   4.354   9.919  0.00  0.00    +0.000 A 
ATOM     28  C   UNL     1      44.677   2.989  10.063  0.00  0.00    +0.000 A 
ATOM     29  C   UNL     1      45.114   2.072   9.106  0.00  0.00    +0.000 A 
ATOM     30  C   UNL     1      45.831   2.514   7.996  0.00  0.00    +0.000 A 
ATOM     31  C   UNL     1      46.125   3.868   7.848  0.00  0.00    +0.000 A 
ATOM     32  C   UNL     1      45.697   4.784   8.809  0.00  0.00    +0.000 A 
ENDBRANCH  26  27
ENDBRANCH  25  26
ENDBRANCH  24  25
ENDBRANCH  21  24
ENDBRANCH  17  18
ENDBRANCH   1  17
TORSDOF 9
ENDMDL
MODEL 9
REMARK VINA RESULT:    -6.226      3.603      7.696
REMARK INTER + INTRA:         -10.846
REMARK INTER:                  -9.457
REMARK INTRA:                  -1.389
REMARK UNBOUND:                -1.344
REMARK  Name = 
REMARK  9 active torsions:
REMARK  status: ('A' for Active; 'I' for Inactive)
REMARK    1  A    between atoms: C_2  and  C_3
REMARK    2  A    between atoms: C_3  and  N_4
REMARK    3  A    between atoms: C_3  and  C_21
REMARK    4  A    between atoms: N_4  and  C_5
REMARK    5  A    between atoms: C_5  and  C_6
REMARK    6  A    between atoms: C_9  and  C_10
REMARK    7  A    between atoms: C_10  and  O_11
REMARK    8  A    between atoms: O_11  and  C_12
REMARK    9  A    between atoms: C_12  and  C_13
REMARK                            x       y       z     vdW  Elec       q    Type
REMARK                         _______ _______ _______ _____ _____    ______ ____
ROOT
ATOM      1  N   UNL     1      47.072   8.627  14.053  0.00  0.00    +0.000 NA
ATOM      2  H   UNL     1      46.329   9.327  14.055  0.00  0.00    +0.000 HD
ENDROOT
BRANCH   1   3
ATOM      3  C   UNL     1      46.997   7.899  12.766  0.00  0.00    +0.000 C 
BRANCH   3   4
ATOM      4  C   UNL     1      46.640   6.460  13.089  0.00  0.00    +0.000 A 
ATOM      5  C   UNL     1      47.389   5.591  13.872  0.00  0.00    +0.000 A 
ATOM      6  S   UNL     1      46.728   4.016  13.954  0.00  0.00    +0.000 S 
ATOM      7  C   UNL     1      45.396   4.458  12.990  0.00  0.00    +0.000 A 
ATOM      8  N   UNL     1      44.423   3.566  12.667  0.00  0.00    +0.000 NA
ATOM      9  C   UNL     1      43.470   4.056  11.946  0.00  0.00    +0.000 A 
ATOM     10  N   UNL     1      43.397   5.360  11.519  0.00  0.00    +0.000 N 
ATOM     11  C   UNL     1      44.351   6.298  11.831  0.00  0.00    +0.000 A 
ATOM     12  O   UNL     1      44.250   7.474  11.484  0.00  0.00    +0.000 OA
ATOM     13  C   UNL     1      45.453   5.786  12.618  0.00  0.00    +0.000 A 
ATOM     14  H   UNL     1      42.610   5.680  10.976  0.00  0.00    +0.000 HD
ENDBRANCH   3   4
BRANCH   3  16
ATOM     15  N   UNL     1      49.241   7.967  11.355  0.00  0.00    +0.000 NA
ATOM     16  C   UNL     1      48.254   7.947  11.965  0.00  0.00    +0.000 C 
ENDBRANCH   3  16
ENDBRANCH   1   3
BRANCH   1  17
ATOM     17  C   UNL     1      48.363   9.319  14.182  0.00  0.00    +0.000 C 
BRANCH  17  18
ATOM     18  C   UNL     1      49.145   8.952  15.457  0.00  0.00    +0.000 C 
ATOM     19  C   UNL     1      48.247   8.908  16.703  0.00  0.00    +0.000 C 
ATOM     20  C   UNL     1      49.012   8.333  17.895  0.00  0.00    +0.000 C 
ATOM     21  C   UNL     1      49.682   7.003  17.535  0.00  0.00    +0.000 C 
ATOM     22  C   UNL     1      50.549   7.204  16.291  0.00  0.00    +0.000 C 
ATOM     23  O   UNL     1      49.758   7.680  15.202  0.00  0.00    +0.000 OA
BRANCH  21  24
ATOM     24  C   UNL     1      48.647   5.901  17.275  0.00  0.00    +0.000 C 
BRANCH  24  25
ATOM     25  O   UNL     1      49.290   4.812  16.617  0.00  0.00    +0.000 OA
BRANCH  25  26
ATOM     26  C   UNL     1      49.199   3.620  17.390  0.00  0.00    +0.000 C 
BRANCH  26  27
ATOM     27  C   UNL     1      50.569   3.018  17.525  0.00  0.00    +0.000 A 
ATOM     28  C   UNL     1      51.658   3.808  17.917  0.00  0.00    +0.000 A 
ATOM     29  C   UNL     1      52.922   3.240  18.078  0.00  0.00    +0.000 A 
ATOM     30  C   UNL     1      53.108   1.878  17.850  0.00  0.00    +0.000 A 
ATOM     31  C   UNL     1      52.034   1.085  17.450  0.00  0.00    +0.000 A 
ATOM     32  C   UNL     1      50.772   1.653  17.280  0.00  0.00    +0.000 A 
ENDBRANCH  26  27
ENDBRANCH  25  26
ENDBRANCH  24  25
ENDBRANCH  21  24
ENDBRANCH  17  18
ENDBRANCH   1  17
TORSDOF 9
ENDMDL
