MODEL 1
REMARK VINA RESULT:    -7.192      0.000      0.000
REMARK INTER + INTRA:         -11.958
REMARK INTER:                 -11.187
REMARK INTRA:                  -0.771
REMARK UNBOUND:                -0.771
REMARK  Name = 
REMARK  13 active torsions:
REMARK  status: ('A' for Active; 'I' for Inactive)
REMARK    1  A    between atoms: C_1  and  N_2
REMARK    2  A    between atoms: N_2  and  C_3
REMARK    3  A    between atoms: N_2  and  C_4
REMARK    4  A    between atoms: C_4  and  C_5
REMARK    5  A    between atoms: C_5  and  C_6
REMARK    6  A    between atoms: C_6  and  C_7
REMARK    7  A    between atoms: C_7  and  C_8
REMARK    8  A    between atoms: C_7  and  O_9
REMARK    9  A    between atoms: C_7  and  C_10
REMARK   10  A    between atoms: C_13  and  C_14
REMARK   11  A    between atoms: C_14  and  O_15
REMARK   12  A    between atoms: O_15  and  C_16
REMARK   13  A    between atoms: C_19  and  C_20
REMARK                            x       y       z     vdW  Elec       q    Type
REMARK                         _______ _______ _______ _____ _____    ______ ____
ROOT
ATOM      1  C   UNL     1      47.000   6.185  12.847  0.00  0.00    +0.000 A 
ATOM      2  C   UNL     1      45.930   6.641  12.082  0.00  0.00    +0.000 A 
ATOM      3  N   UNL     1      44.899   5.852  11.689  0.00  0.00    +0.000 NA
ATOM      4  C   UNL     1      44.946   4.564  12.106  0.00  0.00    +0.000 A 
ATOM      5  C   UNL     1      45.984   4.104  12.896  0.00  0.00    +0.000 A 
ATOM      6  N   UNL     1      47.025   4.884  13.249  0.00  0.00    +0.000 NA
ENDROOT
BRANCH   1   7
ATOM      7  C   UNL     1      48.169   7.080  13.269  0.00  0.00    +0.000 C 
ATOM      8  C   UNL     1      48.178   8.443  12.549  0.00  0.00    +0.000 C 
BRANCH   7   9
ATOM      9  O   UNL     1      49.394   6.430  12.891  0.00  0.00    +0.000 OA
ATOM     10  H   UNL     1      49.417   5.560  13.322  0.00  0.00    +0.000 HD
ENDBRANCH   7   9
BRANCH   7  11
ATOM     11  C   UNL     1      48.174   7.334  14.802  0.00  0.00    +0.000 C 
BRANCH  11  12
ATOM     12  C   UNL     1      49.333   6.690  15.584  0.00  0.00    +0.000 C 
BRANCH  12  13
ATOM     13  C   UNL     1      48.878   5.892  16.814  0.00  0.00    +0.000 C 
BRANCH  13  15
ATOM     14  C   UNL     1      49.588   3.662  17.515  0.00  0.00    +0.000 C 
ATOM     15  N   UNL     1      48.764   4.440  16.585  0.00  0.00    +0.000 NA
ATOM     16  C   UNL     1      47.364   4.026  16.703  0.00  0.00    +0.000 C 
ENDBRANCH  13  15
ENDBRANCH  12  13
ENDBRANCH  11  12
ENDBRANCH   7  11
ENDBRANCH   1   7
BRANCH   4  17
ATOM     17  C   UNL     1      43.872   3.622  11.648  0.00  0.00    +0.000 C 
BRANCH  17  18
ATOM     18  O   UNL     1      43.559   3.868  10.277  0.00  0.00    +0.000 OA
BRANCH  18  19
ATOM     19  C   UNL     1      44.513   3.485   9.374  0.00  0.00    +0.000 A 
ATOM     20  C   UNL     1      45.221   4.339   8.524  0.00  0.00    +0.000 A 
ATOM     21  C   UNL     1      46.200   3.830   7.668  0.00  0.00    +0.000 A 
ATOM     22  C   UNL     1      46.473   2.460   7.649  0.00  0.00    +0.000 A 
ATOM     23  C   UNL     1      45.754   1.600   8.484  0.00  0.00    +0.000 A 
ATOM     24  C   UNL     1      44.778   2.115   9.342  0.00  0.00    +0.000 A 
BRANCH  22  25
ATOM     25  C   UNL     1      47.489   1.943   6.778  0.00  0.00    +0.000 C 
ATOM     26  N   UNL     1      48.305   1.517   6.077  0.00  0.00    +0.000 NA
ENDBRANCH  22  25
ENDBRANCH  18  19
ENDBRANCH  17  18
ENDBRANCH   4  17
TORSDOF 10
ENDMDL
MODEL 2
REMARK VINA RESULT:    -6.991      1.906      3.304
REMARK INTER + INTRA:         -11.645
REMARK INTER:                 -10.745
REMARK INTRA:                  -0.900
REMARK UNBOUND:                -0.771
REMARK  Name = 
REMARK  13 active torsions:
REMARK  status: ('A' for Active; 'I' for Inactive)
REMARK    1  A    between atoms: C_1  and  N_2
REMARK    2  A    between atoms: N_2  and  C_3
REMARK    3  A    between atoms: N_2  and  C_4
REMARK    4  A    between atoms: C_4  and  C_5
REMARK    5  A    between atoms: C_5  and  C_6
REMARK    6  A    between atoms: C_6  and  C_7
REMARK    7  A    between atoms: C_7  and  C_8
REMARK    8  A    between atoms: C_7  and  O_9
REMARK    9  A    between atoms: C_7  and  C_10
REMARK   10  A    between atoms: C_13  and  C_14
REMARK   11  A    between atoms: C_14  and  O_15
REMARK   12  A    between atoms: O_15  and  C_16
REMARK   13  A    between atoms: C_19  and  C_20
REMARK                            x       y       z     vdW  Elec       q    Type
REMARK                         _______ _______ _______ _____ _____    ______ ____
ROOT
ATOM      1  C   UNL     1      46.350   6.742  12.923  0.00  0.00    +0.000 A 
ATOM      2  C   UNL     1      45.254   6.924  12.084  0.00  0.00    +0.000 A 
ATOM      3  N   UNL     1      44.445   5.915  11.675  0.00  0.00    +0.000 NA
ATOM      4  C   UNL     1      44.748   4.684  12.153  0.00  0.00    +0.000 A 
ATOM      5  C   UNL     1      45.812   4.490  13.015  0.00  0.00    +0.000 A 
ATOM      6  N   UNL     1      46.634   5.493  13.385  0.00  0.00    +0.000 NA
ENDROOT
BRANCH   1   7
ATOM      7  C   UNL     1      47.267   7.887  13.363  0.00  0.00    +0.000 C 
ATOM      8  C   UNL     1      48.325   7.451  14.396  0.00  0.00    +0.000 C 
BRANCH   7   9
ATOM      9  O   UNL     1      46.464   8.880  14.022  0.00  0.00    +0.000 OA
ATOM     10  H   UNL     1      46.437   8.663  14.968  0.00  0.00    +0.000 HD
ENDBRANCH   7   9
BRANCH   7  11
ATOM     11  C   UNL     1      47.998   8.535  12.155  0.00  0.00    +0.000 C 
BRANCH  11  12
ATOM     12  C   UNL     1      49.053   7.654  11.460  0.00  0.00    +0.000 C 
BRANCH  12  13
ATOM     13  C   UNL     1      50.456   8.277  11.439  0.00  0.00    +0.000 C 
BRANCH  13  15
ATOM     14  C   UNL     1      51.552   9.320  13.358  0.00  0.00    +0.000 C 
ATOM     15  N   UNL     1      50.591   9.491  12.264  0.00  0.00    +0.000 NA
ATOM     16  C   UNL     1      50.998  10.620  11.424  0.00  0.00    +0.000 C 
ENDBRANCH  13  15
ENDBRANCH  12  13
ENDBRANCH  11  12
ENDBRANCH   7  11
ENDBRANCH   1   7
BRANCH   4  17
ATOM     17  C   UNL     1      43.935   3.513  11.683  0.00  0.00    +0.000 C 
BRANCH  17  18
ATOM     18  O   UNL     1      43.557   3.696  10.319  0.00  0.00    +0.000 OA
BRANCH  18  19
ATOM     19  C   UNL     1      44.508   3.365   9.392  0.00  0.00    +0.000 A 
ATOM     20  C   UNL     1      45.157   4.259   8.535  0.00  0.00    +0.000 A 
ATOM     21  C   UNL     1      46.139   3.803   7.654  0.00  0.00    +0.000 A 
ATOM     22  C   UNL     1      46.474   2.447   7.615  0.00  0.00    +0.000 A 
ATOM     23  C   UNL     1      45.814   1.547   8.457  0.00  0.00    +0.000 A 
ATOM     24  C   UNL     1      44.834   2.009   9.341  0.00  0.00    +0.000 A 
BRANCH  22  25
ATOM     25  C   UNL     1      47.493   1.985   6.718  0.00  0.00    +0.000 C 
ATOM     26  N   UNL     1      48.313   1.620   5.986  0.00  0.00    +0.000 NA
ENDBRANCH  22  25
ENDBRANCH  18  19
ENDBRANCH  17  18
ENDBRANCH   4  17
TORSDOF 10
ENDMDL
MODEL 3
REMARK VINA RESULT:    -6.571      1.383      1.988
REMARK INTER + INTRA:         -10.992
REMARK INTER:                 -10.248
REMARK INTRA:                  -0.744
REMARK UNBOUND:                -0.771
REMARK  Name = 
REMARK  13 active torsions:
REMARK  status: ('A' for Active; 'I' for Inactive)
REMARK    1  A    between atoms: C_1  and  N_2
REMARK    2  A    between atoms: N_2  and  C_3
REMARK    3  A    between atoms: N_2  and  C_4
REMARK    4  A    between atoms: C_4  and  C_5
REMARK    5  A    between atoms: C_5  and  C_6
REMARK    6  A    between atoms: C_6  and  C_7
REMARK    7  A    between atoms: C_7  and  C_8
REMARK    8  A    between atoms: C_7  and  O_9
REMARK    9  A    between atoms: C_7  and  C_10
REMARK   10  A    between atoms: C_13  and  C_14
REMARK   11  A    between atoms: C_14  and  O_15
REMARK   12  A    between atoms: O_15  and  C_16
REMARK   13  A    between atoms: C_19  and  C_20
REMARK                            x       y       z     vdW  Elec       q    Type
REMARK                         _______ _______ _______ _____ _____    ______ ____
ROOT
ATOM      1  C   UNL     1      46.855   5.906  13.282  0.00  0.00    +0.000 A 
ATOM      2  C   UNL     1      45.790   6.563  12.670  0.00  0.00    +0.000 A 
ATOM      3  N   UNL     1      44.746   5.922  12.089  0.00  0.00    +0.000 NA
ATOM      4  C   UNL     1      44.774   4.568  12.151  0.00  0.00    +0.000 A 
ATOM      5  C   UNL     1      45.806   3.900  12.785  0.00  0.00    +0.000 A 
ATOM      6  N   UNL     1      46.860   4.545  13.325  0.00  0.00    +0.000 NA
ENDROOT
BRANCH   1   7
ATOM      7  C   UNL     1      48.038   6.640  13.918  0.00  0.00    +0.000 C 
ATOM      8  C   UNL     1      47.881   8.173  13.897  0.00  0.00    +0.000 C 
BRANCH   7   9
ATOM      9  O   UNL     1      49.215   6.357  13.142  0.00  0.00    +0.000 OA
ATOM     10  H   UNL     1      49.872   7.046  13.332  0.00  0.00    +0.000 HD
ENDBRANCH   7   9
BRANCH   7  11
ATOM     11  C   UNL     1      48.271   6.190  15.387  0.00  0.00    +0.000 C 
BRANCH  11  12
ATOM     12  C   UNL     1      49.607   6.627  16.017  0.00  0.00    +0.000 C 
BRANCH  12  13
ATOM     13  C   UNL     1      49.442   7.413  17.325  0.00  0.00    +0.000 C 
BRANCH  13  15
ATOM     14  C   UNL     1      50.687   7.595  19.419  0.00  0.00    +0.000 C 
ATOM     15  N   UNL     1      50.714   7.792  17.967  0.00  0.00    +0.000 NA
ATOM     16  C   UNL     1      51.814   7.019  17.386  0.00  0.00    +0.000 C 
ENDBRANCH  13  15
ENDBRANCH  12  13
ENDBRANCH  11  12
ENDBRANCH   7  11
ENDBRANCH   1   7
BRANCH   4  17
ATOM     17  C   UNL     1      43.684   3.797  11.466  0.00  0.00    +0.000 C 
BRANCH  17  18
ATOM     18  O   UNL     1      43.656   4.120  10.076  0.00  0.00    +0.000 OA
BRANCH  18  19
ATOM     19  C   UNL     1      44.610   3.511   9.308  0.00  0.00    +0.000 A 
ATOM     20  C   UNL     1      44.877   2.139   9.273  0.00  0.00    +0.000 A 
ATOM     21  C   UNL     1      45.856   1.632   8.417  0.00  0.00    +0.000 A 
ATOM     22  C   UNL     1      46.584   2.494   7.594  0.00  0.00    +0.000 A 
ATOM     23  C   UNL     1      46.335   3.869   7.639  0.00  0.00    +0.000 A 
ATOM     24  C   UNL     1      45.350   4.372   8.495  0.00  0.00    +0.000 A 
BRANCH  22  25
ATOM     25  C   UNL     1      47.580   1.967   6.706  0.00  0.00    +0.000 C 
ATOM     26  N   UNL     1      48.385   1.551   5.986  0.00  0.00    +0.000 NA
ENDBRANCH  22  25
ENDBRANCH  18  19
ENDBRANCH  17  18
ENDBRANCH   4  17
TORSDOF 10
ENDMDL
MODEL 4
REMARK VINA RESULT:    -6.545      1.789      2.570
REMARK INTER + INTRA:         -10.951
REMARK INTER:                 -10.183
REMARK INTRA:                  -0.768
REMARK UNBOUND:                -0.771
REMARK  Name = 
REMARK  13 active torsions:
REMARK  status: ('A' for Active; 'I' for Inactive)
REMARK    1  A    between atoms: C_1  and  N_2
REMARK    2  A    between atoms: N_2  and  C_3
REMARK    3  A    between atoms: N_2  and  C_4
REMARK    4  A    between atoms: C_4  and  C_5
REMARK    5  A    between atoms: C_5  and  C_6
REMARK    6  A    between atoms: C_6  and  C_7
REMARK    7  A    between atoms: C_7  and  C_8
REMARK    8  A    between atoms: C_7  and  O_9
REMARK    9  A    between atoms: C_7  and  C_10
REMARK   10  A    between atoms: C_13  and  C_14
REMARK   11  A    between atoms: C_14  and  O_15
REMARK   12  A    between atoms: O_15  and  C_16
REMARK   13  A    between atoms: C_19  and  C_20
REMARK                            x       y       z     vdW  Elec       q    Type
REMARK                         _______ _______ _______ _____ _____    ______ ____
ROOT
ATOM      1  C   UNL     1      46.584   4.762  14.290  0.00  0.00    +0.000 A 
ATOM      2  C   UNL     1      46.791   5.902  13.518  0.00  0.00    +0.000 A 
ATOM      3  N   UNL     1      46.124   6.161  12.366  0.00  0.00    +0.000 NA
ATOM      4  C   UNL     1      45.199   5.241  11.999  0.00  0.00    +0.000 A 
ATOM      5  C   UNL     1      44.955   4.121  12.773  0.00  0.00    +0.000 A 
ATOM      6  N   UNL     1      45.652   3.852  13.896  0.00  0.00    +0.000 NA
ENDROOT
BRANCH   1   7
ATOM      7  C   UNL     1      47.357   4.472  15.579  0.00  0.00    +0.000 C 
ATOM      8  C   UNL     1      47.995   3.068  15.599  0.00  0.00    +0.000 C 
BRANCH   7   9
ATOM      9  O   UNL     1      46.429   4.494  16.677  0.00  0.00    +0.000 OA
ATOM     10  H   UNL     1      46.201   3.576  16.894  0.00  0.00    +0.000 HD
ENDBRANCH   7   9
BRANCH   7  11
ATOM     11  C   UNL     1      48.474   5.523  15.829  0.00  0.00    +0.000 C 
BRANCH  11  12
ATOM     12  C   UNL     1      48.467   6.191  17.216  0.00  0.00    +0.000 C 
BRANCH  12  13
ATOM     13  C   UNL     1      49.141   5.349  18.308  0.00  0.00    +0.000 C 
BRANCH  13  15
ATOM     14  C   UNL     1      48.973   4.627  20.636  0.00  0.00    +0.000 C 
ATOM     15  N   UNL     1      48.242   4.953  19.408  0.00  0.00    +0.000 NA
ATOM     16  C   UNL     1      47.282   6.026  19.676  0.00  0.00    +0.000 C 
ENDBRANCH  13  15
ENDBRANCH  12  13
ENDBRANCH  11  12
ENDBRANCH   7  11
ENDBRANCH   1   7
BRANCH   4  17
ATOM     17  C   UNL     1      44.475   5.432  10.699  0.00  0.00    +0.000 C 
BRANCH  17  18
ATOM     18  O   UNL     1      44.060   4.169  10.181  0.00  0.00    +0.000 OA
BRANCH  18  19
ATOM     19  C   UNL     1      44.935   3.568   9.317  0.00  0.00    +0.000 A 
ATOM     20  C   UNL     1      45.183   2.195   9.231  0.00  0.00    +0.000 A 
ATOM     21  C   UNL     1      46.076   1.697   8.280  0.00  0.00    +0.000 A 
ATOM     22  C   UNL     1      46.736   2.570   7.411  0.00  0.00    +0.000 A 
ATOM     23  C   UNL     1      46.506   3.946   7.506  0.00  0.00    +0.000 A 
ATOM     24  C   UNL     1      45.608   4.439   8.458  0.00  0.00    +0.000 A 
BRANCH  22  25
ATOM     25  C   UNL     1      47.642   2.054   6.427  0.00  0.00    +0.000 C 
ATOM     26  N   UNL     1      48.372   1.628   5.636  0.00  0.00    +0.000 NA
ENDBRANCH  22  25
ENDBRANCH  18  19
ENDBRANCH  17  18
ENDBRANCH   4  17
TORSDOF 10
ENDMDL
MODEL 5
REMARK VINA RESULT:    -5.973      2.102      8.382
REMARK INTER + INTRA:         -10.061
REMARK INTER:                  -9.691
REMARK INTRA:                  -0.370
REMARK UNBOUND:                -0.771
REMARK  Name = 
REMARK  13 active torsions:
REMARK  status: ('A' for Active; 'I' for Inactive)
REMARK    1  A    between atoms: C_1  and  N_2
REMARK    2  A    between atoms: N_2  and  C_3
REMARK    3  A    between atoms: N_2  and  C_4
REMARK    4  A    between atoms: C_4  and  C_5
REMARK    5  A    between atoms: C_5  and  C_6
REMARK    6  A    between atoms: C_6  and  C_7
REMARK    7  A    between atoms: C_7  and  C_8
REMARK    8  A    between atoms: C_7  and  O_9
REMARK    9  A    between atoms: C_7  and  C_10
REMARK   10  A    between atoms: C_13  and  C_14
REMARK   11  A    between atoms: C_14  and  O_15
REMARK   12  A    between atoms: O_15  and  C_16
REMARK   13  A    between atoms: C_19  and  C_20
REMARK                            x       y       z     vdW  Elec       q    Type
REMARK                         _______ _______ _______ _____ _____    ______ ____
ROOT
ATOM      1  C   UNL     1      45.673   4.711  12.843  0.00  0.00    +0.000 A 
ATOM      2  C   UNL     1      46.367   5.851  12.447  0.00  0.00    +0.000 A 
ATOM      3  N   UNL     1      47.340   6.434  13.189  0.00  0.00    +0.000 NA
ATOM      4  C   UNL     1      47.634   5.825  14.363  0.00  0.00    +0.000 A 
ATOM      5  C   UNL     1      46.980   4.672  14.756  0.00  0.00    +0.000 A 
ATOM      6  N   UNL     1      45.985   4.121  14.031  0.00  0.00    +0.000 NA
ENDROOT
BRANCH   1   7
ATOM      7  C   UNL     1      44.563   4.072  12.005  0.00  0.00    +0.000 C 
ATOM      8  C   UNL     1      43.156   4.586  12.372  0.00  0.00    +0.000 C 
BRANCH   7   9
ATOM      9  O   UNL     1      44.546   2.660  12.279  0.00  0.00    +0.000 OA
ATOM     10  H   UNL     1      43.652   2.424  12.576  0.00  0.00    +0.000 HD
ENDBRANCH   7   9
BRANCH   7  11
ATOM     11  C   UNL     1      44.787   4.298  10.485  0.00  0.00    +0.000 C 
BRANCH  11  12
ATOM     12  C   UNL     1      44.488   3.090   9.577  0.00  0.00    +0.000 C 
BRANCH  12  13
ATOM     13  C   UNL     1      44.897   3.305   8.113  0.00  0.00    +0.000 C 
BRANCH  13  15
ATOM     14  C   UNL     1      46.395   1.378   8.001  0.00  0.00    +0.000 C 
ATOM     15  N   UNL     1      46.250   2.821   7.786  0.00  0.00    +0.000 NA
ATOM     16  C   UNL     1      46.570   3.144   6.393  0.00  0.00    +0.000 C 
ENDBRANCH  13  15
ENDBRANCH  12  13
ENDBRANCH  11  12
ENDBRANCH   7  11
ENDBRANCH   1   7
BRANCH   4  17
ATOM     17  C   UNL     1      48.653   6.459  15.264  0.00  0.00    +0.000 C 
BRANCH  17  18
ATOM     18  O   UNL     1      48.480   5.991  16.601  0.00  0.00    +0.000 OA
BRANCH  18  19
ATOM     19  C   UNL     1      49.397   5.070  17.029  0.00  0.00    +0.000 A 
ATOM     20  C   UNL     1      49.123   3.739  17.360  0.00  0.00    +0.000 A 
ATOM     21  C   UNL     1      50.154   2.883  17.750  0.00  0.00    +0.000 A 
ATOM     22  C   UNL     1      51.468   3.352  17.822  0.00  0.00    +0.000 A 
ATOM     23  C   UNL     1      51.744   4.687  17.511  0.00  0.00    +0.000 A 
ATOM     24  C   UNL     1      50.709   5.540  17.116  0.00  0.00    +0.000 A 
BRANCH  22  25
ATOM     25  C   UNL     1      52.526   2.465  18.211  0.00  0.00    +0.000 C 
ATOM     26  N   UNL     1      53.386   1.757  18.525  0.00  0.00    +0.000 NA
ENDBRANCH  22  25
ENDBRANCH  18  19
ENDBRANCH  17  18
ENDBRANCH   4  17
TORSDOF 10
ENDMDL
MODEL 6
REMARK VINA RESULT:    -5.690      3.002      8.318
REMARK INTER + INTRA:          -9.621
REMARK INTER:                  -8.942
REMARK INTRA:                  -0.678
REMARK UNBOUND:                -0.771
REMARK  Name = 
REMARK  13 active torsions:
REMARK  status: ('A' for Active; 'I' for Inactive)
REMARK    1  A    between atoms: C_1  and  N_2
REMARK    2  A    between atoms: N_2  and  C_3
REMARK    3  A    between atoms: N_2  and  C_4
REMARK    4  A    between atoms: C_4  and  C_5
REMARK    5  A    between atoms: C_5  and  C_6
REMARK    6  A    between atoms: C_6  and  C_7
REMARK    7  A    between atoms: C_7  and  C_8
REMARK    8  A    between atoms: C_7  and  O_9
REMARK    9  A    between atoms: C_7  and  C_10
REMARK   10  A    between atoms: C_13  and  C_14
REMARK   11  A    between atoms: C_14  and  O_15
REMARK   12  A    between atoms: O_15  and  C_16
REMARK   13  A    between atoms: C_19  and  C_20
REMARK                            x       y       z     vdW  Elec       q    Type
REMARK                         _______ _______ _______ _____ _____    ______ ____
ROOT
ATOM      1  C   UNL     1      47.142   5.679  13.824  0.00  0.00    +0.000 A 
ATOM      2  C   UNL     1      46.810   4.335  13.973  0.00  0.00    +0.000 A 
ATOM      3  N   UNL     1      47.216   3.572  15.019  0.00  0.00    +0.000 NA
ATOM      4  C   UNL     1      47.964   4.203  15.956  0.00  0.00    +0.000 A 
ATOM      5  C   UNL     1      48.273   5.547  15.842  0.00  0.00    +0.000 A 
ATOM      6  N   UNL     1      47.899   6.287  14.778  0.00  0.00    +0.000 NA
ENDROOT
BRANCH   1   7
ATOM      7  C   UNL     1      46.694   6.525  12.629  0.00  0.00    +0.000 C 
ATOM      8  C   UNL     1      47.850   7.310  11.977  0.00  0.00    +0.000 C 
BRANCH   7   9
ATOM      9  O   UNL     1      45.765   7.516  13.100  0.00  0.00    +0.000 OA
ATOM     10  H   UNL     1      45.246   7.121  13.820  0.00  0.00    +0.000 HD
ENDBRANCH   7   9
BRANCH   7  11
ATOM     11  C   UNL     1      46.011   5.658  11.535  0.00  0.00    +0.000 C 
BRANCH  11  12
ATOM     12  C   UNL     1      44.510   5.921  11.314  0.00  0.00    +0.000 C 
BRANCH  12  13
ATOM     13  C   UNL     1      43.797   4.803  10.541  0.00  0.00    +0.000 C 
BRANCH  13  15
ATOM     14  C   UNL     1      43.365   2.747  11.789  0.00  0.00    +0.000 C 
ATOM     15  N   UNL     1      44.269   3.445  10.870  0.00  0.00    +0.000 NA
ATOM     16  C   UNL     1      44.423   2.661   9.642  0.00  0.00    +0.000 C 
ENDBRANCH  13  15
ENDBRANCH  12  13
ENDBRANCH  11  12
ENDBRANCH   7  11
ENDBRANCH   1   7
BRANCH   4  17
ATOM     17  C   UNL     1      48.503   3.400  17.103  0.00  0.00    +0.000 C 
BRANCH  17  18
ATOM     18  O   UNL     1      49.702   3.997  17.596  0.00  0.00    +0.000 OA
BRANCH  18  19
ATOM     19  C   UNL     1      50.775   3.156  17.717  0.00  0.00    +0.000 A 
ATOM     20  C   UNL     1      50.815   1.820  17.304  0.00  0.00    +0.000 A 
ATOM     21  C   UNL     1      51.985   1.073  17.449  0.00  0.00    +0.000 A 
ATOM     22  C   UNL     1      53.123   1.651  18.017  0.00  0.00    +0.000 A 
ATOM     23  C   UNL     1      53.081   2.980  18.449  0.00  0.00    +0.000 A 
ATOM     24  C   UNL     1      51.909   3.726  18.297  0.00  0.00    +0.000 A 
BRANCH  22  25
ATOM     25  C   UNL     1      54.327   0.883  18.152  0.00  0.00    +0.000 C 
ATOM     26  N   UNL     1      55.296   0.258  18.252  0.00  0.00    +0.000 NA
ENDBRANCH  22  25
ENDBRANCH  18  19
ENDBRANCH  17  18
ENDBRANCH   4  17
TORSDOF 10
ENDMDL
MODEL 7
REMARK VINA RESULT:    -5.569      2.870      7.621
REMARK INTER + INTRA:          -9.433
REMARK INTER:                  -8.974
REMARK INTRA:                  -0.459
REMARK UNBOUND:                -0.771
REMARK  Name = 
REMARK  13 active torsions:
REMARK  status: ('A' for Active; 'I' for Inactive)
REMARK    1  A    between atoms: C_1  and  N_2
REMARK    2  A    between atoms: N_2  and  C_3
REMARK    3  A    between atoms: N_2  and  C_4
REMARK    4  A    between atoms: C_4  and  C_5
REMARK    5  A    between atoms: C_5  and  C_6
REMARK    6  A    between atoms: C_6  and  C_7
REMARK    7  A    between atoms: C_7  and  C_8
REMARK    8  A    between atoms: C_7  and  O_9
REMARK    9  A    between atoms: C_7  and  C_10
REMARK   10  A    between atoms: C_13  and  C_14
REMARK   11  A    between atoms: C_14  and  O_15
REMARK   12  A    between atoms: O_15  and  C_16
REMARK   13  A    between atoms: C_19  and  C_20
REMARK                            x       y       z     vdW  Elec       q    Type
REMARK                         _______ _______ _______ _____ _____    ______ ____
ROOT
ATOM      1  C   UNL     1      45.310   4.355  12.371  0.00  0.00    +0.000 A 
ATOM      2  C   UNL     1      45.677   5.624  11.931  0.00  0.00    +0.000 A 
ATOM      3  N   UNL     1      46.640   6.375  12.521  0.00  0.00    +0.000 NA
ATOM      4  C   UNL     1      47.267   5.807  13.580  0.00  0.00    +0.000 A 
ATOM      5  C   UNL     1      46.940   4.533  14.008  0.00  0.00    +0.000 A 
ATOM      6  N   UNL     1      45.953   3.810  13.440  0.00  0.00    +0.000 NA
ENDROOT
BRANCH   1   7
ATOM      7  C   UNL     1      44.208   3.524  11.709  0.00  0.00    +0.000 C 
ATOM      8  C   UNL     1      42.908   4.320  11.477  0.00  0.00    +0.000 C 
BRANCH   7   9
ATOM      9  O   UNL     1      43.856   2.451  12.598  0.00  0.00    +0.000 OA
ATOM     10  H   UNL     1      42.894   2.475  12.730  0.00  0.00    +0.000 HD
ENDBRANCH   7   9
BRANCH   7  11
ATOM     11  C   UNL     1      44.671   2.934  10.348  0.00  0.00    +0.000 C 
BRANCH  11  12
ATOM     12  C   UNL     1      44.482   3.848   9.123  0.00  0.00    +0.000 C 
BRANCH  12  13
ATOM     13  C   UNL     1      45.729   3.951   8.234  0.00  0.00    +0.000 C 
BRANCH  13  15
ATOM     14  C   UNL     1      46.579   3.295   6.039  0.00  0.00    +0.000 C 
ATOM     15  N   UNL     1      45.855   2.869   7.241  0.00  0.00    +0.000 NA
ATOM     16  C   UNL     1      46.534   1.719   7.842  0.00  0.00    +0.000 C 
ENDBRANCH  13  15
ENDBRANCH  12  13
ENDBRANCH  11  12
ENDBRANCH   7  11
ENDBRANCH   1   7
BRANCH   4  17
ATOM     17  C   UNL     1      48.294   6.612  14.320  0.00  0.00    +0.000 C 
BRANCH  17  18
ATOM     18  O   UNL     1      48.500   7.863  13.665  0.00  0.00    +0.000 OA
BRANCH  18  19
ATOM     19  C   UNL     1      49.710   8.013  13.045  0.00  0.00    +0.000 A 
ATOM     20  C   UNL     1      49.948   7.869  11.675  0.00  0.00    +0.000 A 
ATOM     21  C   UNL     1      51.226   8.084  11.154  0.00  0.00    +0.000 A 
ATOM     22  C   UNL     1      52.279   8.437  12.001  0.00  0.00    +0.000 A 
ATOM     23  C   UNL     1      52.050   8.563  13.375  0.00  0.00    +0.000 A 
ATOM     24  C   UNL     1      50.769   8.351  13.891  0.00  0.00    +0.000 A 
BRANCH  22  25
ATOM     25  C   UNL     1      53.587   8.670  11.460  0.00  0.00    +0.000 C 
ATOM     26  N   UNL     1      54.645   8.863  11.032  0.00  0.00    +0.000 NA
ENDBRANCH  22  25
ENDBRANCH  18  19
ENDBRANCH  17  18
ENDBRANCH   4  17
TORSDOF 10
ENDMDL
MODEL 8
REMARK VINA RESULT:    -5.479      1.778      2.192
REMARK INTER + INTRA:          -9.293
REMARK INTER:                  -8.759
REMARK INTRA:                  -0.534
REMARK UNBOUND:                -0.771
REMARK  Name = 
REMARK  13 active torsions:
REMARK  status: ('A' for Active; 'I' for Inactive)
REMARK    1  A    between atoms: C_1  and  N_2
REMARK    2  A    between atoms: N_2  and  C_3
REMARK    3  A    between atoms: N_2  and  C_4
REMARK    4  A    between atoms: C_4  and  C_5
REMARK    5  A    between atoms: C_5  and  C_6
REMARK    6  A    between atoms: C_6  and  C_7
REMARK    7  A    between atoms: C_7  and  C_8
REMARK    8  A    between atoms: C_7  and  O_9
REMARK    9  A    between atoms: C_7  and  C_10
REMARK   10  A    between atoms: C_13  and  C_14
REMARK   11  A    between atoms: C_14  and  O_15
REMARK   12  A    between atoms: O_15  and  C_16
REMARK   13  A    between atoms: C_19  and  C_20
REMARK                            x       y       z     vdW  Elec       q    Type
REMARK                         _______ _______ _______ _____ _____    ______ ____
ROOT
ATOM      1  C   UNL     1      47.799   6.770  14.104  0.00  0.00    +0.000 A 
ATOM      2  C   UNL     1      46.937   7.692  13.517  0.00  0.00    +0.000 A 
ATOM      3  N   UNL     1      45.810   7.347  12.847  0.00  0.00    +0.000 NA
ATOM      4  C   UNL     1      45.538   6.020  12.791  0.00  0.00    +0.000 A 
ATOM      5  C   UNL     1      46.365   5.092  13.399  0.00  0.00    +0.000 A 
ATOM      6  N   UNL     1      47.505   5.442  14.028  0.00  0.00    +0.000 NA
ENDROOT
BRANCH   1   7
ATOM      7  C   UNL     1      49.079   7.171  14.842  0.00  0.00    +0.000 C 
ATOM      8  C   UNL     1      49.056   8.627  15.347  0.00  0.00    +0.000 C 
BRANCH   7   9
ATOM      9  O   UNL     1      50.176   7.097  13.915  0.00  0.00    +0.000 OA
ATOM     10  H   UNL     1      49.815   7.173  13.017  0.00  0.00    +0.000 HD
ENDBRANCH   7   9
BRANCH   7  11
ATOM     11  C   UNL     1      49.363   6.236  16.050  0.00  0.00    +0.000 C 
BRANCH  11  12
ATOM     12  C   UNL     1      48.741   6.668  17.391  0.00  0.00    +0.000 C 
BRANCH  12  13
ATOM     13  C   UNL     1      49.512   6.162  18.618  0.00  0.00    +0.000 C 
BRANCH  13  15
ATOM     14  C   UNL     1      47.608   7.183  19.759  0.00  0.00    +0.000 C 
ATOM     15  N   UNL     1      48.935   6.579  19.909  0.00  0.00    +0.000 NA
ATOM     16  C   UNL     1      48.852   5.428  20.811  0.00  0.00    +0.000 C 
ENDBRANCH  13  15
ENDBRANCH  12  13
ENDBRANCH  11  12
ENDBRANCH   7  11
ENDBRANCH   1   7
BRANCH   4  17
ATOM     17  C   UNL     1      44.344   5.566  12.005  0.00  0.00    +0.000 C 
BRANCH  17  18
ATOM     18  O   UNL     1      44.512   4.207  11.602  0.00  0.00    +0.000 OA
BRANCH  18  19
ATOM     19  C   UNL     1      44.983   4.021  10.331  0.00  0.00    +0.000 A 
ATOM     20  C   UNL     1      45.496   5.019   9.497  0.00  0.00    +0.000 A 
ATOM     21  C   UNL     1      45.981   4.697   8.228  0.00  0.00    +0.000 A 
ATOM     22  C   UNL     1      45.950   3.375   7.778  0.00  0.00    +0.000 A 
ATOM     23  C   UNL     1      45.420   2.376   8.602  0.00  0.00    +0.000 A 
ATOM     24  C   UNL     1      44.939   2.703   9.873  0.00  0.00    +0.000 A 
BRANCH  22  25
ATOM     25  C   UNL     1      46.462   3.046   6.479  0.00  0.00    +0.000 C 
ATOM     26  N   UNL     1      46.874   2.771   5.433  0.00  0.00    +0.000 NA
ENDBRANCH  22  25
ENDBRANCH  18  19
ENDBRANCH  17  18
ENDBRANCH   4  17
TORSDOF 10
ENDMDL
MODEL 9
REMARK VINA RESULT:    -5.282      2.479      8.832
REMARK INTER + INTRA:          -8.987
REMARK INTER:                  -8.438
REMARK INTRA:                  -0.549
REMARK UNBOUND:                -0.771
REMARK  Name = 
REMARK  13 active torsions:
REMARK  status: ('A' for Active; 'I' for Inactive)
REMARK    1  A    between atoms: C_1  and  N_2
REMARK    2  A    between atoms: N_2  and  C_3
REMARK    3  A    between atoms: N_2  and  C_4
REMARK    4  A    between atoms: C_4  and  C_5
REMARK    5  A    between atoms: C_5  and  C_6
REMARK    6  A    between atoms: C_6  and  C_7
REMARK    7  A    between atoms: C_7  and  C_8
REMARK    8  A    between atoms: C_7  and  O_9
REMARK    9  A    between atoms: C_7  and  C_10
REMARK   10  A    between atoms: C_13  and  C_14
REMARK   11  A    between atoms: C_14  and  O_15
REMARK   12  A    between atoms: O_15  and  C_16
REMARK   13  A    between atoms: C_19  and  C_20
REMARK                            x       y       z     vdW  Elec       q    Type
REMARK                         _______ _______ _______ _____ _____    ______ ____
ROOT
ATOM      1  C   UNL     1      44.799   5.302  12.772  0.00  0.00    +0.000 A 
ATOM      2  C   UNL     1      45.307   6.576  12.531  0.00  0.00    +0.000 A 
ATOM      3  N   UNL     1      46.499   7.012  13.010  0.00  0.00    +0.000 NA
ATOM      4  C   UNL     1      47.207   6.116  13.739  0.00  0.00    +0.000 A 
ATOM      5  C   UNL     1      46.733   4.835  13.958  0.00  0.00    +0.000 A 
ATOM      6  N   UNL     1      45.529   4.423  13.512  0.00  0.00    +0.000 NA
ENDROOT
BRANCH   1   7
ATOM      7  C   UNL     1      43.443   4.827  12.242  0.00  0.00    +0.000 C 
ATOM      8  C   UNL     1      42.677   5.922  11.472  0.00  0.00    +0.000 C 
BRANCH   7   9
ATOM      9  O   UNL     1      42.613   4.487  13.366  0.00  0.00    +0.000 OA
ATOM     10  H   UNL     1      41.950   3.845  13.065  0.00  0.00    +0.000 HD
ENDBRANCH   7   9
BRANCH   7  11
ATOM     11  C   UNL     1      43.589   3.588  11.317  0.00  0.00    +0.000 C 
BRANCH  11  12
ATOM     12  C   UNL     1      44.664   3.695  10.219  0.00  0.00    +0.000 C 
BRANCH  12  13
ATOM     13  C   UNL     1      44.809   2.422   9.374  0.00  0.00    +0.000 C 
BRANCH  13  15
ATOM     14  C   UNL     1      46.318   1.087   7.991  0.00  0.00    +0.000 C 
ATOM     15  N   UNL     1      45.966   2.431   8.461  0.00  0.00    +0.000 NA
ATOM     16  C   UNL     1      45.685   3.295   7.312  0.00  0.00    +0.000 C 
ENDBRANCH  13  15
ENDBRANCH  12  13
ENDBRANCH  11  12
ENDBRANCH   7  11
ENDBRANCH   1   7
BRANCH   4  17
ATOM     17  C   UNL     1      48.501   6.557  14.357  0.00  0.00    +0.000 C 
BRANCH  17  18
ATOM     18  O   UNL     1      48.777   5.780  15.521  0.00  0.00    +0.000 OA
BRANCH  18  19
ATOM     19  C   UNL     1      49.418   6.440  16.534  0.00  0.00    +0.000 A 
ATOM     20  C   UNL     1      49.026   7.662  17.089  0.00  0.00    +0.000 A 
ATOM     21  C   UNL     1      49.746   8.219  18.148  0.00  0.00    +0.000 A 
ATOM     22  C   UNL     1      50.870   7.563  18.656  0.00  0.00    +0.000 A 
ATOM     23  C   UNL     1      51.277   6.350  18.091  0.00  0.00    +0.000 A 
ATOM     24  C   UNL     1      50.551   5.794  17.034  0.00  0.00    +0.000 A 
BRANCH  22  25
ATOM     25  C   UNL     1      51.598   8.133  19.752  0.00  0.00    +0.000 C 
ATOM     26  N   UNL     1      52.177   8.595  20.642  0.00  0.00    +0.000 NA
ENDBRANCH  22  25
ENDBRANCH  18  19
ENDBRANCH  17  18
ENDBRANCH   4  17
TORSDOF 10
ENDMDL
