MODEL 1
REMARK VINA RESULT:    -8.490      0.000      0.000
REMARK INTER + INTRA:         -11.431
REMARK INTER:                 -10.972
REMARK INTRA:                  -0.459
REMARK UNBOUND:                -0.459
REMARK  Name = 
REMARK  5 active torsions:
REMARK  status: ('A' for Active; 'I' for Inactive)
REMARK    1  A    between atoms: C_2  and  C_4
REMARK    2  A    between atoms: C_8  and  C_9
REMARK    3  A    between atoms: C_9  and  O_10
REMARK    4  A    between atoms: O_10  and  C_11
REMARK    5  A    between atoms: C_15  and  C_16
REMARK                            x       y       z     vdW  Elec       q    Type
REMARK                         _______ _______ _______ _____ _____    ______ ____
ROOT
ATOM      1  O   UNL     1      43.791   4.266  11.195  0.00  0.00    +0.000 OA
ENDROOT
BRANCH   1   2
ATOM      2  C   UNL     1      44.907   4.713  11.848  0.00  0.00    +0.000 A 
ATOM      3  C   UNL     1      45.394   3.907  12.865  0.00  0.00    +0.000 A 
ATOM      4  C   UNL     1      46.495   4.349  13.571  0.00  0.00    +0.000 A 
ATOM      5  N   UNL     1      47.124   5.522  13.330  0.00  0.00    +0.000 NA
ATOM      6  C   UNL     1      46.647   6.299  12.327  0.00  0.00    +0.000 A 
ATOM      7  C   UNL     1      45.564   5.901  11.551  0.00  0.00    +0.000 A 
BRANCH   6   8
ATOM      8  C   UNL     1      47.317   7.594  12.110  0.00  0.00    +0.000 A 
ATOM      9  C   UNL     1      46.619   8.805  12.245  0.00  0.00    +0.000 A 
ATOM     10  C   UNL     1      47.259  10.037  12.068  0.00  0.00    +0.000 A 
ATOM     11  C   UNL     1      48.613  10.081  11.748  0.00  0.00    +0.000 A 
ATOM     12  C   UNL     1      49.319   8.894  11.594  0.00  0.00    +0.000 A 
ATOM     13 CL   UNL     1      50.995   8.933  11.198  0.00  0.00    +0.000 Cl
ATOM     14  C   UNL     1      48.682   7.665  11.764  0.00  0.00    +0.000 A 
ENDBRANCH   6   8
ENDBRANCH   1   2
BRANCH   1  15
ATOM     15  C   UNL     1      43.902   2.949  10.648  0.00  0.00    +0.000 C 
BRANCH  15  20
ATOM     16  C   UNL     1      46.290   2.050   7.830  0.00  0.00    +0.000 A 
ATOM     17  C   UNL     1      46.305   3.274   7.176  0.00  0.00    +0.000 A 
ATOM     18  N   UNL     1      45.576   4.348   7.568  0.00  0.00    +0.000 NA
ATOM     19  C   UNL     1      44.810   4.190   8.668  0.00  0.00    +0.000 A 
ATOM     20  C   UNL     1      44.737   3.010   9.405  0.00  0.00    +0.000 A 
ATOM     21  C   UNL     1      45.504   1.922   8.977  0.00  0.00    +0.000 A 
BRANCH  16  23
ATOM     22  N   UNL     1      46.795  -0.323   7.679  0.00  0.00    +0.000 N 
ATOM     23  C   UNL     1      47.124   0.950   7.302  0.00  0.00    +0.000 C 
ATOM     24  O   UNL     1      48.050   1.163   6.532  0.00  0.00    +0.000 OA
ATOM     25  H   UNL     1      47.302  -1.067   7.213  0.00  0.00    +0.000 HD
ATOM     26  H   UNL     1      45.895  -0.556   8.075  0.00  0.00    +0.000 HD
ENDBRANCH  16  23
ENDBRANCH  15  20
ENDBRANCH   1  15
TORSDOF 5
ENDMDL
MODEL 2
REMARK VINA RESULT:    -8.484      3.793      7.514
REMARK INTER + INTRA:         -11.423
REMARK INTER:                 -10.683
REMARK INTRA:                  -0.740
REMARK UNBOUND:                -0.459
REMARK  Name = 
REMARK  5 active torsions:
REMARK  status: ('A' for Active; 'I' for Inactive)
REMARK    1  A    between atoms: C_2  and  C_4
REMARK    2  A    between atoms: C_8  and  C_9
REMARK    3  A    between atoms: C_9  and  O_10
REMARK    4  A    between atoms: O_10  and  C_11
REMARK    5  A    between atoms: C_15  and  C_16
REMARK                            x       y       z     vdW  Elec       q    Type
REMARK                         _______ _______ _______ _____ _____    ______ ____
ROOT
ATOM      1  O   UNL     1      45.413   5.769  13.276  0.00  0.00    +0.000 OA
ENDROOT
BRANCH   1   2
ATOM      2  C   UNL     1      44.841   4.936  12.354  0.00  0.00    +0.000 A 
ATOM      3  C   UNL     1      43.590   4.429  12.670  0.00  0.00    +0.000 A 
ATOM      4  C   UNL     1      43.003   3.553  11.778  0.00  0.00    +0.000 A 
ATOM      5  N   UNL     1      43.577   3.160  10.618  0.00  0.00    +0.000 NA
ATOM      6  C   UNL     1      44.795   3.670  10.313  0.00  0.00    +0.000 A 
ATOM      7  C   UNL     1      45.431   4.585  11.146  0.00  0.00    +0.000 A 
BRANCH   6   8
ATOM      8  C   UNL     1      45.424   3.195   9.067  0.00  0.00    +0.000 A 
ATOM      9  C   UNL     1      45.762   4.089   8.037  0.00  0.00    +0.000 A 
ATOM     10  C   UNL     1      46.385   3.646   6.866  0.00  0.00    +0.000 A 
ATOM     11  C   UNL     1      46.681   2.296   6.699  0.00  0.00    +0.000 A 
ATOM     12  C   UNL     1      46.342   1.392   7.698  0.00  0.00    +0.000 A 
ATOM     13 CL   UNL     1      46.701  -0.280   7.506  0.00  0.00    +0.000 Cl
ATOM     14  C   UNL     1      45.715   1.831   8.864  0.00  0.00    +0.000 A 
ENDBRANCH   6   8
ENDBRANCH   1   2
BRANCH   1  15
ATOM     15  C   UNL     1      46.808   6.018  13.079  0.00  0.00    +0.000 C 
BRANCH  15  20
ATOM     16  C   UNL     1      47.831   4.549  16.433  0.00  0.00    +0.000 A 
ATOM     17  C   UNL     1      48.870   5.421  16.730  0.00  0.00    +0.000 A 
ATOM     18  N   UNL     1      49.272   6.422  15.909  0.00  0.00    +0.000 NA
ATOM     19  C   UNL     1      48.599   6.560  14.747  0.00  0.00    +0.000 A 
ATOM     20  C   UNL     1      47.533   5.750  14.362  0.00  0.00    +0.000 A 
ATOM     21  C   UNL     1      47.139   4.728  15.233  0.00  0.00    +0.000 A 
BRANCH  16  23
ATOM     22  N   UNL     1      48.419   3.194  18.363  0.00  0.00    +0.000 N 
ATOM     23  C   UNL     1      47.489   3.491  17.405  0.00  0.00    +0.000 C 
ATOM     24  O   UNL     1      46.405   2.925  17.379  0.00  0.00    +0.000 OA
ATOM     25  H   UNL     1      48.118   2.553  19.088  0.00  0.00    +0.000 HD
ATOM     26  H   UNL     1      49.187   3.812  18.584  0.00  0.00    +0.000 HD
ENDBRANCH  16  23
ENDBRANCH  15  20
ENDBRANCH   1  15
TORSDOF 5
ENDMDL
MODEL 3
REMARK VINA RESULT:    -8.371      1.541      1.909
REMARK INTER + INTRA:         -11.277
REMARK INTER:                 -10.597
REMARK INTRA:                  -0.680
REMARK UNBOUND:                -0.459
REMARK  Name = 
REMARK  5 active torsions:
REMARK  status: ('A' for Active; 'I' for Inactive)
REMARK    1  A    between atoms: C_2  and  C_4
REMARK    2  A    between atoms: C_8  and  C_9
REMARK    3  A    between atoms: C_9  and  O_10
REMARK    4  A    between atoms: O_10  and  C_11
REMARK    5  A    between atoms: C_15  and  C_16
REMARK                            x       y       z     vdW  Elec       q    Type
REMARK                         _______ _______ _______ _____ _____    ______ ____
ROOT
ATOM      1  O   UNL     1      44.554   2.931  11.905  0.00  0.00    +0.000 OA
ENDROOT
BRANCH   1   2
ATOM      2  C   UNL     1      44.818   4.225  12.263  0.00  0.00    +0.000 A 
ATOM      3  C   UNL     1      43.721   5.043  12.483  0.00  0.00    +0.000 A 
ATOM      4  C   UNL     1      43.953   6.365  12.806  0.00  0.00    +0.000 A 
ATOM      5  N   UNL     1      45.187   6.909  12.919  0.00  0.00    +0.000 NA
ATOM      6  C   UNL     1      46.253   6.098  12.712  0.00  0.00    +0.000 A 
ATOM      7  C   UNL     1      46.096   4.748  12.418  0.00  0.00    +0.000 A 
BRANCH   6   8
ATOM      8  C   UNL     1      47.588   6.719  12.795  0.00  0.00    +0.000 A 
ATOM      9  C   UNL     1      48.147   7.390  11.695  0.00  0.00    +0.000 A 
ATOM     10  C   UNL     1      49.401   8.005  11.779  0.00  0.00    +0.000 A 
ATOM     11  C   UNL     1      50.124   7.958  12.967  0.00  0.00    +0.000 A 
ATOM     12  C   UNL     1      49.597   7.285  14.063  0.00  0.00    +0.000 A 
ATOM     13 CL   UNL     1      50.481   7.217  15.539  0.00  0.00    +0.000 Cl
ATOM     14  C   UNL     1      48.350   6.666  13.980  0.00  0.00    +0.000 A 
ENDBRANCH   6   8
ENDBRANCH   1   2
BRANCH   1  15
ATOM     15  C   UNL     1      43.776   2.783  10.713  0.00  0.00    +0.000 C 
BRANCH  15  20
ATOM     16  C   UNL     1      46.277   2.113   7.929  0.00  0.00    +0.000 A 
ATOM     17  C   UNL     1      46.361   3.401   7.416  0.00  0.00    +0.000 A 
ATOM     18  N   UNL     1      45.644   4.450   7.890  0.00  0.00    +0.000 NA
ATOM     19  C   UNL     1      44.819   4.200   8.928  0.00  0.00    +0.000 A 
ATOM     20  C   UNL     1      44.674   2.950   9.526  0.00  0.00    +0.000 A 
ATOM     21  C   UNL     1      45.429   1.889   9.017  0.00  0.00    +0.000 A 
BRANCH  16  23
ATOM     22  N   UNL     1      46.811  -0.243   7.664  0.00  0.00    +0.000 N 
ATOM     23  C   UNL     1      47.103   1.049   7.323  0.00  0.00    +0.000 C 
ATOM     24  O   UNL     1      47.991   1.308   6.523  0.00  0.00    +0.000 OA
ATOM     25  H   UNL     1      47.308  -0.959   7.148  0.00  0.00    +0.000 HD
ATOM     26  H   UNL     1      45.934  -0.506   8.090  0.00  0.00    +0.000 HD
ENDBRANCH  16  23
ENDBRANCH  15  20
ENDBRANCH   1  15
TORSDOF 5
ENDMDL
MODEL 4
REMARK VINA RESULT:    -8.339      2.023      2.389
REMARK INTER + INTRA:         -11.235
REMARK INTER:                 -10.852
REMARK INTRA:                  -0.384
REMARK UNBOUND:                -0.459
REMARK  Name = 
REMARK  5 active torsions:
REMARK  status: ('A' for Active; 'I' for Inactive)
REMARK    1  A    between atoms: C_2  and  C_4
REMARK    2  A    between atoms: C_8  and  C_9
REMARK    3  A    between atoms: C_9  and  O_10
REMARK    4  A    between atoms: O_10  and  C_11
REMARK    5  A    between atoms: C_15  and  C_16
REMARK                            x       y       z     vdW  Elec       q    Type
REMARK                         _______ _______ _______ _____ _____    ______ ____
ROOT
ATOM      1  O   UNL     1      44.741   2.887  11.698  0.00  0.00    +0.000 OA
ENDROOT
BRANCH   1   2
ATOM      2  C   UNL     1      45.385   3.966  12.240  0.00  0.00    +0.000 A 
ATOM      3  C   UNL     1      46.276   3.702  13.268  0.00  0.00    +0.000 A 
ATOM      4  C   UNL     1      46.912   4.773  13.864  0.00  0.00    +0.000 A 
ATOM      5  N   UNL     1      46.715   6.062  13.505  0.00  0.00    +0.000 NA
ATOM      6  C   UNL     1      45.850   6.309  12.492  0.00  0.00    +0.000 A 
ATOM      7  C   UNL     1      45.200   5.278  11.822  0.00  0.00    +0.000 A 
BRANCH   6   8
ATOM      8  C   UNL     1      45.613   7.723  12.146  0.00  0.00    +0.000 A 
ATOM      9  C   UNL     1      46.551   8.717  12.471  0.00  0.00    +0.000 A 
ATOM     10  C   UNL     1      46.343  10.055  12.117  0.00  0.00    +0.000 A 
ATOM     11  C   UNL     1      45.189  10.426  11.433  0.00  0.00    +0.000 A 
ATOM     12  C   UNL     1      44.241   9.461  11.116  0.00  0.00    +0.000 A 
ATOM     13 CL   UNL     1      42.809   9.905  10.270  0.00  0.00    +0.000 Cl
ATOM     14  C   UNL     1      44.443   8.128  11.472  0.00  0.00    +0.000 A 
ENDBRANCH   6   8
ENDBRANCH   1   2
BRANCH   1  15
ATOM     15  C   UNL     1      43.970   3.173  10.527  0.00  0.00    +0.000 C 
BRANCH  15  20
ATOM     16  C   UNL     1      46.412   2.115   7.812  0.00  0.00    +0.000 A 
ATOM     17  C   UNL     1      46.607   3.355   7.218  0.00  0.00    +0.000 A 
ATOM     18  N   UNL     1      45.981   4.490   7.617  0.00  0.00    +0.000 NA
ATOM     19  C   UNL     1      45.135   4.378   8.662  0.00  0.00    +0.000 A 
ATOM     20  C   UNL     1      44.882   3.186   9.338  0.00  0.00    +0.000 A 
ATOM     21  C   UNL     1      45.546   2.034   8.905  0.00  0.00    +0.000 A 
BRANCH  16  23
ATOM     22  N   UNL     1      46.752  -0.289   7.711  0.00  0.00    +0.000 N 
ATOM     23  C   UNL     1      47.147   0.948   7.282  0.00  0.00    +0.000 C 
ATOM     24  O   UNL     1      48.049   1.077   6.467  0.00  0.00    +0.000 OA
ATOM     25  H   UNL     1      47.187  -1.078   7.247  0.00  0.00    +0.000 HD
ATOM     26  H   UNL     1      45.858  -0.450   8.152  0.00  0.00    +0.000 HD
ENDBRANCH  16  23
ENDBRANCH  15  20
ENDBRANCH   1  15
TORSDOF 5
ENDMDL
MODEL 5
REMARK VINA RESULT:    -7.954      2.845      4.006
REMARK INTER + INTRA:         -10.738
REMARK INTER:                 -10.005
REMARK INTRA:                  -0.733
REMARK UNBOUND:                -0.459
REMARK  Name = 
REMARK  5 active torsions:
REMARK  status: ('A' for Active; 'I' for Inactive)
REMARK    1  A    between atoms: C_2  and  C_4
REMARK    2  A    between atoms: C_8  and  C_9
REMARK    3  A    between atoms: C_9  and  O_10
REMARK    4  A    between atoms: O_10  and  C_11
REMARK    5  A    between atoms: C_15  and  C_16
REMARK                            x       y       z     vdW  Elec       q    Type
REMARK                         _______ _______ _______ _____ _____    ______ ____
ROOT
ATOM      1  O   UNL     1      44.398   4.599  11.094  0.00  0.00    +0.000 OA
ENDROOT
BRANCH   1   2
ATOM      2  C   UNL     1      45.420   5.291  11.683  0.00  0.00    +0.000 A 
ATOM      3  C   UNL     1      45.999   6.301  10.930  0.00  0.00    +0.000 A 
ATOM      4  C   UNL     1      47.060   6.992  11.481  0.00  0.00    +0.000 A 
ATOM      5  N   UNL     1      47.568   6.741  12.709  0.00  0.00    +0.000 NA
ATOM      6  C   UNL     1      46.988   5.759  13.442  0.00  0.00    +0.000 A 
ATOM      7  C   UNL     1      45.893   5.045  12.966  0.00  0.00    +0.000 A 
BRANCH   6   8
ATOM      8  C   UNL     1      47.584   5.470  14.759  0.00  0.00    +0.000 A 
ATOM      9  C   UNL     1      48.557   6.314  15.318  0.00  0.00    +0.000 A 
ATOM     10  C   UNL     1      49.103   6.059  16.581  0.00  0.00    +0.000 A 
ATOM     11  C   UNL     1      48.688   4.948  17.309  0.00  0.00    +0.000 A 
ATOM     12  C   UNL     1      47.738   4.090  16.769  0.00  0.00    +0.000 A 
ATOM     13 CL   UNL     1      47.215   2.712  17.658  0.00  0.00    +0.000 Cl
ATOM     14  C   UNL     1      47.197   4.340  15.508  0.00  0.00    +0.000 A 
ENDBRANCH   6   8
ENDBRANCH   1   2
BRANCH   1  15
ATOM     15  C   UNL     1      44.345   4.701   9.668  0.00  0.00    +0.000 C 
BRANCH  15  20
ATOM     16  C   UNL     1      46.521   2.446   7.515  0.00  0.00    +0.000 A 
ATOM     17  C   UNL     1      46.073   1.220   7.987  0.00  0.00    +0.000 A 
ATOM     18  N   UNL     1      45.146   1.081   8.966  0.00  0.00    +0.000 NA
ATOM     19  C   UNL     1      44.639   2.218   9.485  0.00  0.00    +0.000 A 
ATOM     20  C   UNL     1      45.008   3.497   9.072  0.00  0.00    +0.000 A 
ATOM     21  C   UNL     1      45.964   3.607   8.057  0.00  0.00    +0.000 A 
BRANCH  16  23
ATOM     22  N   UNL     1      47.330   3.317   5.395  0.00  0.00    +0.000 N 
ATOM     23  C   UNL     1      47.542   2.470   6.448  0.00  0.00    +0.000 C 
ATOM     24  O   UNL     1      48.554   1.787   6.517  0.00  0.00    +0.000 OA
ATOM     25  H   UNL     1      48.096   3.405   4.737  0.00  0.00    +0.000 HD
ATOM     26  H   UNL     1      46.668   4.078   5.436  0.00  0.00    +0.000 HD
ENDBRANCH  16  23
ENDBRANCH  15  20
ENDBRANCH   1  15
TORSDOF 5
ENDMDL
MODEL 6
REMARK VINA RESULT:    -7.936      3.542      7.049
REMARK INTER + INTRA:         -10.715
REMARK INTER:                  -9.927
REMARK INTRA:                  -0.788
REMARK UNBOUND:                -0.459
REMARK  Name = 
REMARK  5 active torsions:
REMARK  status: ('A' for Active; 'I' for Inactive)
REMARK    1  A    between atoms: C_2  and  C_4
REMARK    2  A    between atoms: C_8  and  C_9
REMARK    3  A    between atoms: C_9  and  O_10
REMARK    4  A    between atoms: O_10  and  C_11
REMARK    5  A    between atoms: C_15  and  C_16
REMARK                            x       y       z     vdW  Elec       q    Type
REMARK                         _______ _______ _______ _____ _____    ______ ____
ROOT
ATOM      1  O   UNL     1      44.154   6.831  12.243  0.00  0.00    +0.000 OA
ENDROOT
BRANCH   1   2
ATOM      2  C   UNL     1      44.024   5.589  11.684  0.00  0.00    +0.000 A 
ATOM      3  C   UNL     1      43.131   4.724  12.297  0.00  0.00    +0.000 A 
ATOM      4  C   UNL     1      43.006   3.449  11.781  0.00  0.00    +0.000 A 
ATOM      5  N   UNL     1      43.704   2.995  10.715  0.00  0.00    +0.000 NA
ATOM      6  C   UNL     1      44.566   3.852  10.116  0.00  0.00    +0.000 A 
ATOM      7  C   UNL     1      44.718   5.162  10.558  0.00  0.00    +0.000 A 
BRANCH   6   8
ATOM      8  C   UNL     1      45.351   3.326   8.983  0.00  0.00    +0.000 A 
ATOM      9  C   UNL     1      45.883   4.183   8.006  0.00  0.00    +0.000 A 
ATOM     10  C   UNL     1      46.652   3.690   6.948  0.00  0.00    +0.000 A 
ATOM     11  C   UNL     1      46.903   2.325   6.842  0.00  0.00    +0.000 A 
ATOM     12  C   UNL     1      46.373   1.457   7.789  0.00  0.00    +0.000 A 
ATOM     13 CL   UNL     1      46.674  -0.235   7.672  0.00  0.00    +0.000 Cl
ATOM     14  C   UNL     1      45.601   1.945   8.842  0.00  0.00    +0.000 A 
ENDBRANCH   6   8
ENDBRANCH   1   2
BRANCH   1  15
ATOM     15  C   UNL     1      44.795   7.802  11.410  0.00  0.00    +0.000 C 
BRANCH  15  20
ATOM     16  C   UNL     1      48.032   7.837  13.404  0.00  0.00    +0.000 A 
ATOM     17  C   UNL     1      48.299   9.197  13.336  0.00  0.00    +0.000 A 
ATOM     18  N   UNL     1      47.523  10.086  12.668  0.00  0.00    +0.000 NA
ATOM     19  C   UNL     1      46.428   9.591  12.053  0.00  0.00    +0.000 A 
ATOM     20  C   UNL     1      46.062   8.247  12.074  0.00  0.00    +0.000 A 
ATOM     21  C   UNL     1      46.881   7.356  12.775  0.00  0.00    +0.000 A 
BRANCH  16  23
ATOM     22  N   UNL     1      50.263   7.363  14.244  0.00  0.00    +0.000 N 
ATOM     23  C   UNL     1      48.957   6.965  14.157  0.00  0.00    +0.000 C 
ATOM     24  O   UNL     1      48.567   5.947  14.710  0.00  0.00    +0.000 OA
ATOM     25  H   UNL     1      50.851   6.815  14.862  0.00  0.00    +0.000 HD
ATOM     26  H   UNL     1      50.556   8.308  14.046  0.00  0.00    +0.000 HD
ENDBRANCH  16  23
ENDBRANCH  15  20
ENDBRANCH   1  15
TORSDOF 5
ENDMDL
MODEL 7
REMARK VINA RESULT:    -7.735      1.538      1.870
REMARK INTER + INTRA:         -10.456
REMARK INTER:                  -9.724
REMARK INTRA:                  -0.732
REMARK UNBOUND:                -0.459
REMARK  Name = 
REMARK  5 active torsions:
REMARK  status: ('A' for Active; 'I' for Inactive)
REMARK    1  A    between atoms: C_2  and  C_4
REMARK    2  A    between atoms: C_8  and  C_9
REMARK    3  A    between atoms: C_9  and  O_10
REMARK    4  A    between atoms: O_10  and  C_11
REMARK    5  A    between atoms: C_15  and  C_16
REMARK                            x       y       z     vdW  Elec       q    Type
REMARK                         _______ _______ _______ _____ _____    ______ ____
ROOT
ATOM      1  O   UNL     1      44.420   4.803  11.096  0.00  0.00    +0.000 OA
ENDROOT
BRANCH   1   2
ATOM      2  C   UNL     1      45.518   5.013  11.885  0.00  0.00    +0.000 A 
ATOM      3  C   UNL     1      45.730   4.099  12.906  0.00  0.00    +0.000 A 
ATOM      4  C   UNL     1      46.807   4.305  13.745  0.00  0.00    +0.000 A 
ATOM      5  N   UNL     1      47.665   5.344  13.631  0.00  0.00    +0.000 NA
ATOM      6  C   UNL     1      47.455   6.226  12.623  0.00  0.00    +0.000 A 
ATOM      7  C   UNL     1      46.412   6.063  11.718  0.00  0.00    +0.000 A 
BRANCH   6   8
ATOM      8  C   UNL     1      48.374   7.377  12.541  0.00  0.00    +0.000 A 
ATOM      9  C   UNL     1      48.036   8.526  11.808  0.00  0.00    +0.000 A 
ATOM     10  C   UNL     1      48.892   9.631  11.753  0.00  0.00    +0.000 A 
ATOM     11  C   UNL     1      50.108   9.608  12.429  0.00  0.00    +0.000 A 
ATOM     12  C   UNL     1      50.469   8.475  13.148  0.00  0.00    +0.000 A 
ATOM     13 CL   UNL     1      51.970   8.431  13.991  0.00  0.00    +0.000 Cl
ATOM     14  C   UNL     1      49.620   7.369  13.200  0.00  0.00    +0.000 A 
ENDBRANCH   6   8
ENDBRANCH   1   2
BRANCH   1  15
ATOM     15  C   UNL     1      44.619   5.070   9.705  0.00  0.00    +0.000 C 
BRANCH  15  20
ATOM     16  C   UNL     1      46.505   2.757   7.350  0.00  0.00    +0.000 A 
ATOM     17  C   UNL     1      46.104   1.543   7.892  0.00  0.00    +0.000 A 
ATOM     18  N   UNL     1      45.298   1.430   8.976  0.00  0.00    +0.000 NA
ATOM     19  C   UNL     1      44.866   2.582   9.532  0.00  0.00    +0.000 A 
ATOM     20  C   UNL     1      45.195   3.849   9.056  0.00  0.00    +0.000 A 
ATOM     21  C   UNL     1      46.026   3.932   7.934  0.00  0.00    +0.000 A 
BRANCH  16  23
ATOM     22  N   UNL     1      48.723   2.515   6.386  0.00  0.00    +0.000 N 
ATOM     23  C   UNL     1      47.394   2.753   6.170  0.00  0.00    +0.000 C 
ATOM     24  O   UNL     1      46.956   2.920   5.040  0.00  0.00    +0.000 OA
ATOM     25  H   UNL     1      49.292   2.398   5.556  0.00  0.00    +0.000 HD
ATOM     26  H   UNL     1      49.069   2.107   7.243  0.00  0.00    +0.000 HD
ENDBRANCH  16  23
ENDBRANCH  15  20
ENDBRANCH   1  15
TORSDOF 5
ENDMDL
MODEL 8
REMARK VINA RESULT:    -7.413      4.178      7.945
REMARK INTER + INTRA:         -10.039
REMARK INTER:                  -9.475
REMARK INTRA:                  -0.564
REMARK UNBOUND:                -0.459
REMARK  Name = 
REMARK  5 active torsions:
REMARK  status: ('A' for Active; 'I' for Inactive)
REMARK    1  A    between atoms: C_2  and  C_4
REMARK    2  A    between atoms: C_8  and  C_9
REMARK    3  A    between atoms: C_9  and  O_10
REMARK    4  A    between atoms: O_10  and  C_11
REMARK    5  A    between atoms: C_15  and  C_16
REMARK                            x       y       z     vdW  Elec       q    Type
REMARK                         _______ _______ _______ _____ _____    ______ ____
ROOT
ATOM      1  O   UNL     1      45.455   4.379  14.135  0.00  0.00    +0.000 OA
ENDROOT
BRANCH   1   2
ATOM      2  C   UNL     1      44.837   4.287  12.918  0.00  0.00    +0.000 A 
ATOM      3  C   UNL     1      43.477   4.555  12.893  0.00  0.00    +0.000 A 
ATOM      4  C   UNL     1      42.815   4.432  11.687  0.00  0.00    +0.000 A 
ATOM      5  N   UNL     1      43.415   4.065  10.531  0.00  0.00    +0.000 NA
ATOM      6  C   UNL     1      44.746   3.815  10.564  0.00  0.00    +0.000 A 
ATOM      7  C   UNL     1      45.485   3.953  11.735  0.00  0.00    +0.000 A 
BRANCH   6   8
ATOM      8  C   UNL     1      45.373   3.372   9.305  0.00  0.00    +0.000 A 
ATOM      9  C   UNL     1      45.710   4.291   8.298  0.00  0.00    +0.000 A 
ATOM     10  C   UNL     1      46.332   3.878   7.115  0.00  0.00    +0.000 A 
ATOM     11  C   UNL     1      46.627   2.533   6.914  0.00  0.00    +0.000 A 
ATOM     12  C   UNL     1      46.288   1.604   7.890  0.00  0.00    +0.000 A 
ATOM     13 CL   UNL     1      46.646  -0.064   7.655  0.00  0.00    +0.000 Cl
ATOM     14  C   UNL     1      45.663   2.013   9.068  0.00  0.00    +0.000 A 
ENDBRANCH   6   8
ENDBRANCH   1   2
BRANCH   1  15
ATOM     15  C   UNL     1      46.643   5.177  14.148  0.00  0.00    +0.000 C 
BRANCH  15  20
ATOM     16  C   UNL     1      49.082   5.181  17.064  0.00  0.00    +0.000 A 
ATOM     17  C   UNL     1      49.127   3.813  17.294  0.00  0.00    +0.000 A 
ATOM     18  N   UNL     1      48.403   2.905  16.594  0.00  0.00    +0.000 NA
ATOM     19  C   UNL     1      47.611   3.389  15.615  0.00  0.00    +0.000 A 
ATOM     20  C   UNL     1      47.506   4.741  15.292  0.00  0.00    +0.000 A 
ATOM     21  C   UNL     1      48.268   5.651  16.030  0.00  0.00    +0.000 A 
BRANCH  16  23
ATOM     22  N   UNL     1      49.662   6.087  19.243  0.00  0.00    +0.000 N 
ATOM     23  C   UNL     1      49.913   6.073  17.899  0.00  0.00    +0.000 C 
ATOM     24  O   UNL     1      50.812   6.747  17.415  0.00  0.00    +0.000 OA
ATOM     25  H   UNL     1      50.318   6.612  19.810  0.00  0.00    +0.000 HD
ATOM     26  H   UNL     1      49.134   5.360  19.704  0.00  0.00    +0.000 HD
ENDBRANCH  16  23
ENDBRANCH  15  20
ENDBRANCH   1  15
TORSDOF 5
ENDMDL
MODEL 9
REMARK VINA RESULT:    -7.310      3.125      4.668
REMARK INTER + INTRA:          -9.907
REMARK INTER:                  -9.154
REMARK INTRA:                  -0.753
REMARK UNBOUND:                -0.459
REMARK  Name = 
REMARK  5 active torsions:
REMARK  status: ('A' for Active; 'I' for Inactive)
REMARK    1  A    between atoms: C_2  and  C_4
REMARK    2  A    between atoms: C_8  and  C_9
REMARK    3  A    between atoms: C_9  and  O_10
REMARK    4  A    between atoms: O_10  and  C_11
REMARK    5  A    between atoms: C_15  and  C_16
REMARK                            x       y       z     vdW  Elec       q    Type
REMARK                         _______ _______ _______ _____ _____    ______ ____
ROOT
ATOM      1  O   UNL     1      45.672   6.978  11.488  0.00  0.00    +0.000 OA
ENDROOT
BRANCH   1   2
ATOM      2  C   UNL     1      46.763   6.857  12.305  0.00  0.00    +0.000 A 
ATOM      3  C   UNL     1      47.952   7.388  11.832  0.00  0.00    +0.000 A 
ATOM      4  C   UNL     1      49.081   7.247  12.616  0.00  0.00    +0.000 A 
ATOM      5  N   UNL     1      49.093   6.620  13.815  0.00  0.00    +0.000 NA
ATOM      6  C   UNL     1      47.923   6.114  14.273  0.00  0.00    +0.000 A 
ATOM      7  C   UNL     1      46.739   6.250  13.555  0.00  0.00    +0.000 A 
BRANCH   6   8
ATOM      8  C   UNL     1      47.965   5.395  15.560  0.00  0.00    +0.000 A 
ATOM      9  C   UNL     1      47.244   4.205  15.752  0.00  0.00    +0.000 A 
ATOM     10  C   UNL     1      47.305   3.505  16.961  0.00  0.00    +0.000 A 
ATOM     11  C   UNL     1      48.088   3.985  18.007  0.00  0.00    +0.000 A 
ATOM     12  C   UNL     1      48.798   5.168  17.844  0.00  0.00    +0.000 A 
ATOM     13 CL   UNL     1      49.771   5.774  19.129  0.00  0.00    +0.000 Cl
ATOM     14  C   UNL     1      48.734   5.871  16.641  0.00  0.00    +0.000 A 
ENDBRANCH   6   8
ENDBRANCH   1   2
BRANCH   1  15
ATOM     15  C   UNL     1      44.510   6.266  11.925  0.00  0.00    +0.000 C 
BRANCH  15  20
ATOM     16  C   UNL     1      45.050   3.486   9.389  0.00  0.00    +0.000 A 
ATOM     17  C   UNL     1      44.174   2.550   9.922  0.00  0.00    +0.000 A 
ATOM     18  N   UNL     1      43.454   2.750  11.053  0.00  0.00    +0.000 NA
ATOM     19  C   UNL     1      43.610   3.941  11.668  0.00  0.00    +0.000 A 
ATOM     20  C   UNL     1      44.449   4.953  11.206  0.00  0.00    +0.000 A 
ATOM     21  C   UNL     1      45.175   4.718  10.035  0.00  0.00    +0.000 A 
BRANCH  16  23
ATOM     22  N   UNL     1      46.241   1.867   8.022  0.00  0.00    +0.000 N 
ATOM     23  C   UNL     1      45.787   3.150   8.153  0.00  0.00    +0.000 C 
ATOM     24  O   UNL     1      45.955   3.975   7.265  0.00  0.00    +0.000 OA
ATOM     25  H   UNL     1      46.637   1.628   7.120  0.00  0.00    +0.000 HD
ATOM     26  H   UNL     1      45.891   1.107   8.588  0.00  0.00    +0.000 HD
ENDBRANCH  16  23
ENDBRANCH  15  20
ENDBRANCH   1  15
TORSDOF 5
ENDMDL
