MODEL 1
REMARK VINA RESULT:    -7.606      0.000      0.000
REMARK INTER + INTRA:         -10.287
REMARK INTER:                  -9.829
REMARK INTRA:                  -0.457
REMARK UNBOUND:                -0.457
REMARK  Name = 
REMARK  6 active torsions:
REMARK  status: ('A' for Active; 'I' for Inactive)
REMARK    1  A    between atoms: C_1  and  S_2
REMARK    2  A    between atoms: S_2  and  C_5
REMARK    3  A    between atoms: C_8  and  N_9
REMARK    4  A    between atoms: N_9  and  C_10
REMARK    5  A    between atoms: C_10  and  C_11
REMARK    6  A    between atoms: C_11  and  C_13
REMARK                            x       y       z     vdW  Elec       q    Type
REMARK                         _______ _______ _______ _____ _____    ______ ____
ROOT
ATOM      1  N   UNL     1      45.591   5.488  10.899  0.00  0.00    +0.000 N 
ATOM      2  H   UNL     1      46.387   5.849  10.370  0.00  0.00    +0.000 HD
ENDROOT
BRANCH   1   6
ATOM      3  C   UNL     1      46.907   4.260  14.565  0.00  0.00    +0.000 A 
ATOM      4  C   UNL     1      46.941   5.599  14.242  0.00  0.00    +0.000 A 
ATOM      5  N   UNL     1      46.509   6.047  13.034  0.00  0.00    +0.000 NA
ATOM      6  C   UNL     1      46.036   5.117  12.176  0.00  0.00    +0.000 A 
ATOM      7  C   UNL     1      45.965   3.771  12.560  0.00  0.00    +0.000 A 
ATOM      8  N   UNL     1      46.411   3.297  13.750  0.00  0.00    +0.000 NA
BRANCH   3  10
ATOM      9  C   UNL     1      48.542   5.099  16.690  0.00  0.00    +0.000 C 
ATOM     10  S   UNL     1      47.631   3.711  16.073  0.00  0.00    +0.000 S 
ATOM     11  O   UNL     1      48.584   2.666  15.731  0.00  0.00    +0.000 OA
ATOM     12  O   UNL     1      46.540   3.445  16.996  0.00  0.00    +0.000 OA
ENDBRANCH   3  10
ENDBRANCH   1   6
BRANCH   1  13
ATOM     13  C   UNL     1      44.910   4.407  10.166  0.00  0.00    +0.000 C 
BRANCH  13  14
ATOM     14  C   UNL     1      45.324   4.440   8.680  0.00  0.00    +0.000 C 
ATOM     15  F   UNL     1      46.180   5.504   8.526  0.00  0.00    +0.000 F 
BRANCH  14  16
ATOM     16  C   UNL     1      45.929   3.147   8.203  0.00  0.00    +0.000 A 
ATOM     17  C   UNL     1      46.895   3.122   7.191  0.00  0.00    +0.000 A 
ATOM     18  C   UNL     1      47.415   1.906   6.758  0.00  0.00    +0.000 A 
ATOM     19  C   UNL     1      46.951   0.746   7.351  0.00  0.00    +0.000 A 
ATOM     20  N   UNL     1      46.014   0.726   8.324  0.00  0.00    +0.000 NA
ATOM     21  C   UNL     1      45.523   1.920   8.721  0.00  0.00    +0.000 A 
ENDBRANCH  14  16
ENDBRANCH  13  14
ENDBRANCH   1  13
TORSDOF 5
ENDMDL
MODEL 2
REMARK VINA RESULT:    -7.358      4.239      6.871
REMARK INTER + INTRA:          -9.966
REMARK INTER:                  -9.448
REMARK INTRA:                  -0.518
REMARK UNBOUND:                -0.457
REMARK  Name = 
REMARK  6 active torsions:
REMARK  status: ('A' for Active; 'I' for Inactive)
REMARK    1  A    between atoms: C_1  and  S_2
REMARK    2  A    between atoms: S_2  and  C_5
REMARK    3  A    between atoms: C_8  and  N_9
REMARK    4  A    between atoms: N_9  and  C_10
REMARK    5  A    between atoms: C_10  and  C_11
REMARK    6  A    between atoms: C_11  and  C_13
REMARK                            x       y       z     vdW  Elec       q    Type
REMARK                         _______ _______ _______ _____ _____    ______ ____
ROOT
ATOM      1  N   UNL     1      43.733   4.757  10.117  0.00  0.00    +0.000 N 
ATOM      2  H   UNL     1      42.898   4.952   9.561  0.00  0.00    +0.000 HD
ENDROOT
BRANCH   1   6
ATOM      3  C   UNL     1      46.354   2.680   7.773  0.00  0.00    +0.000 A 
ATOM      4  C   UNL     1      46.311   4.055   7.695  0.00  0.00    +0.000 A 
ATOM      5  N   UNL     1      45.456   4.782   8.460  0.00  0.00    +0.000 NA
ATOM      6  C   UNL     1      44.662   4.090   9.306  0.00  0.00    +0.000 A 
ATOM      7  C   UNL     1      44.772   2.696   9.399  0.00  0.00    +0.000 A 
ATOM      8  N   UNL     1      45.601   1.947   8.630  0.00  0.00    +0.000 NA
BRANCH   3  10
ATOM      9  C   UNL     1      46.927   2.387   5.038  0.00  0.00    +0.000 C 
ATOM     10  S   UNL     1      47.358   1.776   6.644  0.00  0.00    +0.000 S 
ATOM     11  O   UNL     1      46.937   0.386   6.722  0.00  0.00    +0.000 OA
ATOM     12  O   UNL     1      48.737   2.149   6.909  0.00  0.00    +0.000 OA
ENDBRANCH   3  10
ENDBRANCH   1   6
BRANCH   1  13
ATOM     13  C   UNL     1      43.392   4.037  11.355  0.00  0.00    +0.000 C 
BRANCH  13  14
ATOM     14  C   UNL     1      43.531   4.981  12.567  0.00  0.00    +0.000 C 
ATOM     15  F   UNL     1      42.909   4.367  13.627  0.00  0.00    +0.000 F 
BRANCH  14  16
ATOM     16  C   UNL     1      44.959   5.345  12.877  0.00  0.00    +0.000 A 
ATOM     17  C   UNL     1      45.441   6.643  12.679  0.00  0.00    +0.000 A 
ATOM     18  C   UNL     1      46.774   6.938  12.953  0.00  0.00    +0.000 A 
ATOM     19  C   UNL     1      47.588   5.921  13.419  0.00  0.00    +0.000 A 
ATOM     20  N   UNL     1      47.164   4.654  13.615  0.00  0.00    +0.000 NA
ATOM     21  C   UNL     1      45.868   4.394  13.336  0.00  0.00    +0.000 A 
ENDBRANCH  14  16
ENDBRANCH  13  14
ENDBRANCH   1  13
TORSDOF 5
ENDMDL
MODEL 3
REMARK VINA RESULT:    -7.346      2.245      2.596
REMARK INTER + INTRA:          -9.951
REMARK INTER:                  -9.455
REMARK INTRA:                  -0.496
REMARK UNBOUND:                -0.457
REMARK  Name = 
REMARK  6 active torsions:
REMARK  status: ('A' for Active; 'I' for Inactive)
REMARK    1  A    between atoms: C_1  and  S_2
REMARK    2  A    between atoms: S_2  and  C_5
REMARK    3  A    between atoms: C_8  and  N_9
REMARK    4  A    between atoms: N_9  and  C_10
REMARK    5  A    between atoms: C_10  and  C_11
REMARK    6  A    between atoms: C_11  and  C_13
REMARK                            x       y       z     vdW  Elec       q    Type
REMARK                         _______ _______ _______ _____ _____    ______ ____
ROOT
ATOM      1  N   UNL     1      43.796   4.431  10.751  0.00  0.00    +0.000 N 
ATOM      2  H   UNL     1      43.009   5.083  10.729  0.00  0.00    +0.000 HD
ENDROOT
BRANCH   1   6
ATOM      3  C   UNL     1      46.853   6.026  12.940  0.00  0.00    +0.000 A 
ATOM      4  C   UNL     1      46.604   6.500  11.670  0.00  0.00    +0.000 A 
ATOM      5  N   UNL     1      45.595   5.998  10.912  0.00  0.00    +0.000 NA
ATOM      6  C   UNL     1      44.844   5.023  11.470  0.00  0.00    +0.000 A 
ATOM      7  C   UNL     1      45.092   4.605  12.785  0.00  0.00    +0.000 A 
ATOM      8  N   UNL     1      46.106   5.075  13.553  0.00  0.00    +0.000 NA
BRANCH   3  10
ATOM      9  C   UNL     1      47.912   8.268  14.263  0.00  0.00    +0.000 C 
ATOM     10  S   UNL     1      48.271   6.591  13.816  0.00  0.00    +0.000 S 
ATOM     11  O   UNL     1      49.376   6.607  12.870  0.00  0.00    +0.000 OA
ATOM     12  O   UNL     1      48.355   5.811  15.039  0.00  0.00    +0.000 OA
ENDBRANCH   3  10
ENDBRANCH   1   6
BRANCH   1  13
ATOM     13  C   UNL     1      44.170   4.002   9.393  0.00  0.00    +0.000 C 
BRANCH  13  14
ATOM     14  C   UNL     1      44.997   2.702   9.462  0.00  0.00    +0.000 C 
ATOM     15  F   UNL     1      44.109   1.674   9.669  0.00  0.00    +0.000 F 
BRANCH  14  16
ATOM     16  C   UNL     1      45.856   2.478   8.246  0.00  0.00    +0.000 A 
ATOM     17  C   UNL     1      46.055   3.487   7.297  0.00  0.00    +0.000 A 
ATOM     18  C   UNL     1      46.836   3.238   6.172  0.00  0.00    +0.000 A 
ATOM     19  C   UNL     1      47.397   1.981   6.029  0.00  0.00    +0.000 A 
ATOM     20  N   UNL     1      47.222   0.978   6.917  0.00  0.00    +0.000 NA
ATOM     21  C   UNL     1      46.455   1.247   7.996  0.00  0.00    +0.000 A 
ENDBRANCH  14  16
ENDBRANCH  13  14
ENDBRANCH   1  13
TORSDOF 5
ENDMDL
MODEL 4
REMARK VINA RESULT:    -6.777      2.750      3.445
REMARK INTER + INTRA:          -9.215
REMARK INTER:                  -8.722
REMARK INTRA:                  -0.493
REMARK UNBOUND:                -0.457
REMARK  Name = 
REMARK  6 active torsions:
REMARK  status: ('A' for Active; 'I' for Inactive)
REMARK    1  A    between atoms: C_1  and  S_2
REMARK    2  A    between atoms: S_2  and  C_5
REMARK    3  A    between atoms: C_8  and  N_9
REMARK    4  A    between atoms: N_9  and  C_10
REMARK    5  A    between atoms: C_10  and  C_11
REMARK    6  A    between atoms: C_11  and  C_13
REMARK                            x       y       z     vdW  Elec       q    Type
REMARK                         _______ _______ _______ _____ _____    ______ ____
ROOT
ATOM      1  N   UNL     1      43.354   5.435  12.690  0.00  0.00    +0.000 N 
ATOM      2  H   UNL     1      42.779   6.268  12.828  0.00  0.00    +0.000 HD
ENDROOT
BRANCH   1   6
ATOM      3  C   UNL     1      47.232   6.605  13.211  0.00  0.00    +0.000 A 
ATOM      4  C   UNL     1      46.788   5.438  13.793  0.00  0.00    +0.000 A 
ATOM      5  N   UNL     1      45.506   5.013  13.640  0.00  0.00    +0.000 NA
ATOM      6  C   UNL     1      44.698   5.785  12.882  0.00  0.00    +0.000 A 
ATOM      7  C   UNL     1      45.199   6.937  12.260  0.00  0.00    +0.000 A 
ATOM      8  N   UNL     1      46.467   7.393  12.415  0.00  0.00    +0.000 NA
BRANCH   3  10
ATOM      9  C   UNL     1      48.638   8.898  14.023  0.00  0.00    +0.000 C 
ATOM     10  S   UNL     1      48.849   7.197  13.574  0.00  0.00    +0.000 S 
ATOM     11  O   UNL     1      49.607   7.152  12.333  0.00  0.00    +0.000 OA
ATOM     12  O   UNL     1      49.311   6.479  14.751  0.00  0.00    +0.000 OA
ENDBRANCH   3  10
ENDBRANCH   1   6
BRANCH   1  13
ATOM     13  C   UNL     1      43.079   4.810  11.385  0.00  0.00    +0.000 C 
BRANCH  13  14
ATOM     14  C   UNL     1      43.898   3.510  11.244  0.00  0.00    +0.000 C 
ATOM     15  F   UNL     1      43.017   2.465  11.377  0.00  0.00    +0.000 F 
BRANCH  14  16
ATOM     16  C   UNL     1      44.680   3.438   9.959  0.00  0.00    +0.000 A 
ATOM     17  C   UNL     1      45.009   2.211   9.373  0.00  0.00    +0.000 A 
ATOM     18  C   UNL     1      45.753   2.181   8.197  0.00  0.00    +0.000 A 
ATOM     19  C   UNL     1      46.149   3.384   7.640  0.00  0.00    +0.000 A 
ATOM     20  N   UNL     1      45.859   4.588   8.178  0.00  0.00    +0.000 NA
ATOM     21  C   UNL     1      45.140   4.588   9.322  0.00  0.00    +0.000 A 
ENDBRANCH  14  16
ENDBRANCH  13  14
ENDBRANCH   1  13
TORSDOF 5
ENDMDL
MODEL 5
REMARK VINA RESULT:    -6.657      1.991      2.627
REMARK INTER + INTRA:          -9.061
REMARK INTER:                  -8.704
REMARK INTRA:                  -0.356
REMARK UNBOUND:                -0.457
REMARK  Name = 
REMARK  6 active torsions:
REMARK  status: ('A' for Active; 'I' for Inactive)
REMARK    1  A    between atoms: C_1  and  S_2
REMARK    2  A    between atoms: S_2  and  C_5
REMARK    3  A    between atoms: C_8  and  N_9
REMARK    4  A    between atoms: N_9  and  C_10
REMARK    5  A    between atoms: C_10  and  C_11
REMARK    6  A    between atoms: C_11  and  C_13
REMARK                            x       y       z     vdW  Elec       q    Type
REMARK                         _______ _______ _______ _____ _____    ______ ____
ROOT
ATOM      1  N   UNL     1      45.550   4.902  12.215  0.00  0.00    +0.000 N 
ATOM      2  H   UNL     1      46.117   5.130  11.397  0.00  0.00    +0.000 HD
ENDROOT
BRANCH   1   6
ATOM      3  C   UNL     1      47.955   5.251  15.498  0.00  0.00    +0.000 A 
ATOM      4  C   UNL     1      47.030   4.232  15.435  0.00  0.00    +0.000 A 
ATOM      5  N   UNL     1      46.214   4.080  14.360  0.00  0.00    +0.000 NA
ATOM      6  C   UNL     1      46.365   4.970  13.354  0.00  0.00    +0.000 A 
ATOM      7  C   UNL     1      47.355   5.959  13.428  0.00  0.00    +0.000 A 
ATOM      8  N   UNL     1      48.165   6.144  14.499  0.00  0.00    +0.000 NA
BRANCH   3  10
ATOM      9  C   UNL     1      47.719   5.228  18.297  0.00  0.00    +0.000 C 
ATOM     10  S   UNL     1      48.871   5.505  16.979  0.00  0.00    +0.000 S 
ATOM     11  O   UNL     1      49.253   6.908  17.007  0.00  0.00    +0.000 OA
ATOM     12  O   UNL     1      49.880   4.461  17.040  0.00  0.00    +0.000 OA
ENDBRANCH   3  10
ENDBRANCH   1   6
BRANCH   1  13
ATOM     13  C   UNL     1      44.864   3.610  12.046  0.00  0.00    +0.000 C 
BRANCH  13  14
ATOM     14  C   UNL     1      44.048   3.617  10.737  0.00  0.00    +0.000 C 
ATOM     15  F   UNL     1      43.385   4.818  10.684  0.00  0.00    +0.000 F 
BRANCH  14  16
ATOM     16  C   UNL     1      44.889   3.375   9.512  0.00  0.00    +0.000 A 
ATOM     17  C   UNL     1      45.291   2.086   9.145  0.00  0.00    +0.000 A 
ATOM     18  C   UNL     1      46.088   1.901   8.019  0.00  0.00    +0.000 A 
ATOM     19  C   UNL     1      46.462   3.016   7.290  0.00  0.00    +0.000 A 
ATOM     20  N   UNL     1      46.102   4.277   7.614  0.00  0.00    +0.000 NA
ATOM     21  C   UNL     1      45.333   4.427   8.716  0.00  0.00    +0.000 A 
ENDBRANCH  14  16
ENDBRANCH  13  14
ENDBRANCH   1  13
TORSDOF 5
ENDMDL
MODEL 6
REMARK VINA RESULT:    -6.276      4.222      7.692
REMARK INTER + INTRA:          -8.568
REMARK INTER:                  -8.222
REMARK INTRA:                  -0.346
REMARK UNBOUND:                -0.457
REMARK  Name = 
REMARK  6 active torsions:
REMARK  status: ('A' for Active; 'I' for Inactive)
REMARK    1  A    between atoms: C_1  and  S_2
REMARK    2  A    between atoms: S_2  and  C_5
REMARK    3  A    between atoms: C_8  and  N_9
REMARK    4  A    between atoms: N_9  and  C_10
REMARK    5  A    between atoms: C_10  and  C_11
REMARK    6  A    between atoms: C_11  and  C_13
REMARK                            x       y       z     vdW  Elec       q    Type
REMARK                         _______ _______ _______ _____ _____    ______ ____
ROOT
ATOM      1  N   UNL     1      47.487   5.165  15.139  0.00  0.00    +0.000 N 
ATOM      2  H   UNL     1      47.225   6.063  15.550  0.00  0.00    +0.000 HD
ENDROOT
BRANCH   1   6
ATOM      3  C   UNL     1      45.064   4.325  11.961  0.00  0.00    +0.000 A 
ATOM      4  C   UNL     1      45.325   5.637  12.291  0.00  0.00    +0.000 A 
ATOM      5  N   UNL     1      46.128   5.957  13.339  0.00  0.00    +0.000 NA
ATOM      6  C   UNL     1      46.665   4.927  14.029  0.00  0.00    +0.000 A 
ATOM      7  C   UNL     1      46.422   3.606  13.630  0.00  0.00    +0.000 A 
ATOM      8  N   UNL     1      45.606   3.260  12.603  0.00  0.00    +0.000 NA
BRANCH   3  10
ATOM      9  C   UNL     1      44.835   3.748   9.221  0.00  0.00    +0.000 C 
ATOM     10  S   UNL     1      43.888   3.963  10.702  0.00  0.00    +0.000 S 
ATOM     11  O   UNL     1      43.063   5.150  10.538  0.00  0.00    +0.000 OA
ATOM     12  O   UNL     1      43.286   2.683  11.038  0.00  0.00    +0.000 OA
ENDBRANCH   3  10
ENDBRANCH   1   6
BRANCH   1  13
ATOM     13  C   UNL     1      47.460   4.090  16.146  0.00  0.00    +0.000 C 
BRANCH  13  14
ATOM     14  C   UNL     1      48.394   4.447  17.320  0.00  0.00    +0.000 C 
ATOM     15  F   UNL     1      47.638   4.391  18.465  0.00  0.00    +0.000 F 
BRANCH  14  16
ATOM     16  C   UNL     1      49.613   3.566  17.398  0.00  0.00    +0.000 A 
ATOM     17  C   UNL     1      50.832   4.049  17.885  0.00  0.00    +0.000 A 
ATOM     18  C   UNL     1      51.945   3.213  17.921  0.00  0.00    +0.000 A 
ATOM     19  C   UNL     1      51.805   1.914  17.466  0.00  0.00    +0.000 A 
ATOM     20  N   UNL     1      50.649   1.412  16.981  0.00  0.00    +0.000 NA
ATOM     21  C   UNL     1      49.586   2.247  16.952  0.00  0.00    +0.000 A 
ENDBRANCH  14  16
ENDBRANCH  13  14
ENDBRANCH   1  13
TORSDOF 5
ENDMDL
MODEL 7
REMARK VINA RESULT:    -6.245      2.465      2.894
REMARK INTER + INTRA:          -8.528
REMARK INTER:                  -8.347
REMARK INTRA:                  -0.181
REMARK UNBOUND:                -0.457
REMARK  Name = 
REMARK  6 active torsions:
REMARK  status: ('A' for Active; 'I' for Inactive)
REMARK    1  A    between atoms: C_1  and  S_2
REMARK    2  A    between atoms: S_2  and  C_5
REMARK    3  A    between atoms: C_8  and  N_9
REMARK    4  A    between atoms: N_9  and  C_10
REMARK    5  A    between atoms: C_10  and  C_11
REMARK    6  A    between atoms: C_11  and  C_13
REMARK                            x       y       z     vdW  Elec       q    Type
REMARK                         _______ _______ _______ _____ _____    ______ ____
ROOT
ATOM      1  N   UNL     1      45.205   3.473  12.306  0.00  0.00    +0.000 N 
ATOM      2  H   UNL     1      45.323   2.612  12.843  0.00  0.00    +0.000 HD
ENDROOT
BRANCH   1   6
ATOM      3  C   UNL     1      47.744   6.216  13.953  0.00  0.00    +0.000 A 
ATOM      4  C   UNL     1      46.957   6.573  12.880  0.00  0.00    +0.000 A 
ATOM      5  N   UNL     1      46.098   5.691  12.306  0.00  0.00    +0.000 NA
ATOM      6  C   UNL     1      46.047   4.455  12.848  0.00  0.00    +0.000 A 
ATOM      7  C   UNL     1      46.821   4.144  13.974  0.00  0.00    +0.000 A 
ATOM      8  N   UNL     1      47.702   4.999  14.550  0.00  0.00    +0.000 NA
BRANCH   3  10
ATOM      9  C   UNL     1      49.852   7.877  13.120  0.00  0.00    +0.000 C 
ATOM     10  S   UNL     1      48.959   7.340  14.553  0.00  0.00    +0.000 S 
ATOM     11  O   UNL     1      49.872   6.573  15.387  0.00  0.00    +0.000 OA
ATOM     12  O   UNL     1      48.248   8.487  15.092  0.00  0.00    +0.000 OA
ENDBRANCH   3  10
ENDBRANCH   1   6
BRANCH   1  13
ATOM     13  C   UNL     1      43.788   3.870  12.240  0.00  0.00    +0.000 C 
BRANCH  13  14
ATOM     14  C   UNL     1      43.399   4.187  10.782  0.00  0.00    +0.000 C 
ATOM     15  F   UNL     1      43.288   5.552  10.685  0.00  0.00    +0.000 F 
BRANCH  14  16
ATOM     16  C   UNL     1      44.362   3.619   9.773  0.00  0.00    +0.000 A 
ATOM     17  C   UNL     1      45.120   4.449   8.941  0.00  0.00    +0.000 A 
ATOM     18  C   UNL     1      45.983   3.890   8.003  0.00  0.00    +0.000 A 
ATOM     19  C   UNL     1      46.062   2.511   7.924  0.00  0.00    +0.000 A 
ATOM     20  N   UNL     1      45.342   1.675   8.703  0.00  0.00    +0.000 NA
ATOM     21  C   UNL     1      44.508   2.246   9.601  0.00  0.00    +0.000 A 
ENDBRANCH  14  16
ENDBRANCH  13  14
ENDBRANCH   1  13
TORSDOF 5
ENDMDL
MODEL 8
REMARK VINA RESULT:    -6.053      4.277      6.923
REMARK INTER + INTRA:          -8.279
REMARK INTER:                  -8.056
REMARK INTRA:                  -0.223
REMARK UNBOUND:                -0.457
REMARK  Name = 
REMARK  6 active torsions:
REMARK  status: ('A' for Active; 'I' for Inactive)
REMARK    1  A    between atoms: C_1  and  S_2
REMARK    2  A    between atoms: S_2  and  C_5
REMARK    3  A    between atoms: C_8  and  N_9
REMARK    4  A    between atoms: N_9  and  C_10
REMARK    5  A    between atoms: C_10  and  C_11
REMARK    6  A    between atoms: C_11  and  C_13
REMARK                            x       y       z     vdW  Elec       q    Type
REMARK                         _______ _______ _______ _____ _____    ______ ____
ROOT
ATOM      1  N   UNL     1      43.767   4.586  10.755  0.00  0.00    +0.000 N 
ATOM      2  H   UNL     1      42.866   4.866  10.364  0.00  0.00    +0.000 HD
ENDROOT
BRANCH   1   6
ATOM      3  C   UNL     1      46.018   2.845   7.825  0.00  0.00    +0.000 A 
ATOM      4  C   UNL     1      45.228   2.060   8.636  0.00  0.00    +0.000 A 
ATOM      5  N   UNL     1      44.462   2.601   9.619  0.00  0.00    +0.000 NA
ATOM      6  C   UNL     1      44.507   3.945   9.752  0.00  0.00    +0.000 A 
ATOM      7  C   UNL     1      45.279   4.717   8.873  0.00  0.00    +0.000 A 
ATOM      8  N   UNL     1      46.068   4.198   7.900  0.00  0.00    +0.000 NA
BRANCH   3  10
ATOM      9  C   UNL     1      47.041   0.350   7.037  0.00  0.00    +0.000 C 
ATOM     10  S   UNL     1      47.115   2.084   6.679  0.00  0.00    +0.000 S 
ATOM     11  O   UNL     1      48.455   2.550   7.000  0.00  0.00    +0.000 OA
ATOM     12  O   UNL     1      46.557   2.291   5.353  0.00  0.00    +0.000 OA
ENDBRANCH   3  10
ENDBRANCH   1   6
BRANCH   1  13
ATOM     13  C   UNL     1      43.591   3.782  11.976  0.00  0.00    +0.000 C 
BRANCH  13  14
ATOM     14  C   UNL     1      44.799   3.982  12.915  0.00  0.00    +0.000 C 
ATOM     15  F   UNL     1      45.674   2.954  12.666  0.00  0.00    +0.000 F 
BRANCH  14  16
ATOM     16  C   UNL     1      45.448   5.333  12.768  0.00  0.00    +0.000 A 
ATOM     17  C   UNL     1      46.823   5.462  12.548  0.00  0.00    +0.000 A 
ATOM     18  C   UNL     1      47.394   6.727  12.441  0.00  0.00    +0.000 A 
ATOM     19  C   UNL     1      46.568   7.831  12.559  0.00  0.00    +0.000 A 
ATOM     20  N   UNL     1      45.238   7.750  12.780  0.00  0.00    +0.000 NA
ATOM     21  C   UNL     1      44.712   6.509  12.885  0.00  0.00    +0.000 A 
ENDBRANCH  14  16
ENDBRANCH  13  14
ENDBRANCH   1  13
TORSDOF 5
ENDMDL
MODEL 9
REMARK VINA RESULT:    -5.883      2.602      3.694
REMARK INTER + INTRA:          -8.060
REMARK INTER:                  -7.625
REMARK INTRA:                  -0.435
REMARK UNBOUND:                -0.457
REMARK  Name = 
REMARK  6 active torsions:
REMARK  status: ('A' for Active; 'I' for Inactive)
REMARK    1  A    between atoms: C_1  and  S_2
REMARK    2  A    between atoms: S_2  and  C_5
REMARK    3  A    between atoms: C_8  and  N_9
REMARK    4  A    between atoms: N_9  and  C_10
REMARK    5  A    between atoms: C_10  and  C_11
REMARK    6  A    between atoms: C_11  and  C_13
REMARK                            x       y       z     vdW  Elec       q    Type
REMARK                         _______ _______ _______ _____ _____    ______ ____
ROOT
ATOM      1  N   UNL     1      47.441   6.733  12.515  0.00  0.00    +0.000 N 
ATOM      2  H   UNL     1      47.835   6.195  11.741  0.00  0.00    +0.000 HD
ENDROOT
BRANCH   1   6
ATOM      3  C   UNL     1      47.786   4.641  16.005  0.00  0.00    +0.000 A 
ATOM      4  C   UNL     1      47.049   4.116  14.966  0.00  0.00    +0.000 A 
ATOM      5  N   UNL     1      46.913   4.780  13.788  0.00  0.00    +0.000 NA
ATOM      6  C   UNL     1      47.546   5.969  13.686  0.00  0.00    +0.000 A 
ATOM      7  C   UNL     1      48.332   6.445  14.744  0.00  0.00    +0.000 A 
ATOM      8  N   UNL     1      48.465   5.812  15.936  0.00  0.00    +0.000 NA
BRANCH   3  10
ATOM      9  C   UNL     1      49.308   2.903  17.605  0.00  0.00    +0.000 C 
ATOM     10  S   UNL     1      47.795   3.823  17.564  0.00  0.00    +0.000 S 
ATOM     11  O   UNL     1      46.693   2.873  17.551  0.00  0.00    +0.000 OA
ATOM     12  O   UNL     1      47.871   4.855  18.585  0.00  0.00    +0.000 OA
ENDBRANCH   3  10
ENDBRANCH   1   6
BRANCH   1  13
ATOM     13  C   UNL     1      46.071   7.179  12.211  0.00  0.00    +0.000 C 
BRANCH  13  14
ATOM     14  C   UNL     1      45.558   6.471  10.941  0.00  0.00    +0.000 C 
ATOM     15  F   UNL     1      46.659   6.184  10.170  0.00  0.00    +0.000 F 
BRANCH  14  16
ATOM     16  C   UNL     1      44.732   5.246  11.234  0.00  0.00    +0.000 A 
ATOM     17  C   UNL     1      43.962   5.148  12.397  0.00  0.00    +0.000 A 
ATOM     18  C   UNL     1      43.229   3.991  12.648  0.00  0.00    +0.000 A 
ATOM     19  C   UNL     1      43.290   2.963  11.725  0.00  0.00    +0.000 A 
ATOM     20  N   UNL     1      44.028   3.015  10.595  0.00  0.00    +0.000 NA
ATOM     21  C   UNL     1      44.733   4.147  10.379  0.00  0.00    +0.000 A 
ENDBRANCH  14  16
ENDBRANCH  13  14
ENDBRANCH   1  13
TORSDOF 5
ENDMDL
