MODEL 1
REMARK VINA RESULT:    -6.263      0.000      0.000
REMARK INTER + INTRA:          -8.616
REMARK INTER:                  -8.094
REMARK INTRA:                  -0.522
REMARK UNBOUND:                -0.522
REMARK  Name = 
REMARK  8 active torsions:
REMARK  status: ('A' for Active; 'I' for Inactive)
REMARK    1  A    between atoms: C_1  and  C_2
REMARK    2  A    between atoms: C_8  and  C_9
REMARK    3  A    between atoms: C_11  and  C_12
REMARK    4  A    between atoms: C_12  and  N_13
REMARK    5  A    between atoms: N_13  and  C_14
REMARK    6  A    between atoms: N_13  and  C_15
REMARK    7  A    between atoms: C_18  and  C_19
REMARK    8  A    between atoms: C_26  and  C_27
REMARK                            x       y       z     vdW  Elec       q    Type
REMARK                         _______ _______ _______ _____ _____    ______ ____
ROOT
ATOM      1  C   UNL     1      50.855   9.801  19.354  0.00  0.00    +0.000 C 
ATOM      2  C   UNL     1      50.087   9.360  20.597  0.00  0.00    +0.000 C 
ATOM      3  C   UNL     1      50.011   7.821  20.730  0.00  0.00    +0.000 C 
ATOM      4  N   UNL     1      48.953   7.322  19.866  0.00  0.00    +0.000 N 
ATOM      5  C   UNL     1      49.116   6.226  19.074  0.00  0.00    +0.000 A 
ATOM      6  N   UNL     1      50.217   5.476  19.211  0.00  0.00    +0.000 NA
ATOM      7  C   UNL     1      50.317   4.370  18.445  0.00  0.00    +0.000 A 
ATOM      8  C   UNL     1      49.385   3.997  17.501  0.00  0.00    +0.000 A 
ATOM      9  C   UNL     1      48.315   4.860  17.356  0.00  0.00    +0.000 A 
ATOM     10  N   UNL     1      48.171   5.949  18.162  0.00  0.00    +0.000 NA
ATOM     11  C   UNL     1      47.640   7.900  20.109  0.00  0.00    +0.000 C 
ATOM     12  C   UNL     1      47.726   9.427  19.935  0.00  0.00    +0.000 C 
ATOM     13  C   UNL     1      47.755   9.833  18.464  0.00  0.00    +0.000 C 
ATOM     14  O   UNL     1      48.805  10.013  20.690  0.00  0.00    +0.000 OA
ENDROOT
BRANCH   8  15
ATOM     15  C   UNL     1      49.507   2.742  16.837  0.00  0.00    +0.000 C 
ATOM     16  N   UNL     1      49.533   1.731  16.265  0.00  0.00    +0.000 NA
ENDBRANCH   8  15
BRANCH   9  17
ATOM     17  C   UNL     1      47.230   4.673  16.306  0.00  0.00    +0.000 C 
BRANCH  17  18
ATOM     18  N   UNL     1      47.667   5.038  14.940  0.00  0.00    +0.000 N 
ATOM     19  C   UNL     1      48.316   6.351  14.773  0.00  0.00    +0.000 C 
BRANCH  18  20
ATOM     20  C   UNL     1      46.797   4.731  13.877  0.00  0.00    +0.000 A 
ATOM     21  C   UNL     1      46.257   5.759  13.087  0.00  0.00    +0.000 A 
ATOM     22  C   UNL     1      45.441   5.468  11.990  0.00  0.00    +0.000 A 
ATOM     23  C   UNL     1      45.170   4.138  11.710  0.00  0.00    +0.000 A 
ATOM     24  N   UNL     1      45.624   3.102  12.466  0.00  0.00    +0.000 NA
ATOM     25  C   UNL     1      46.415   3.433  13.517  0.00  0.00    +0.000 A 
BRANCH  23  26
ATOM     26  C   UNL     1      44.371   3.768  10.499  0.00  0.00    +0.000 C 
ATOM     27  N   UNL     1      43.789   4.823   9.846  0.00  0.00    +0.000 N 
ATOM     28  O   UNL     1      44.226   2.612  10.122  0.00  0.00    +0.000 OA
ATOM     29  H   UNL     1      43.897   5.757  10.224  0.00  0.00    +0.000 HD
ATOM     30  H   UNL     1      43.181   4.653   9.058  0.00  0.00    +0.000 HD
ENDBRANCH  23  26
ENDBRANCH  18  20
ENDBRANCH  17  18
ENDBRANCH   9  17
TORSDOF 5
ENDMDL
MODEL 2
REMARK VINA RESULT:    -6.211      3.120      8.294
REMARK INTER + INTRA:          -8.549
REMARK INTER:                  -7.919
REMARK INTRA:                  -0.630
REMARK UNBOUND:                -0.522
REMARK  Name = 
REMARK  8 active torsions:
REMARK  status: ('A' for Active; 'I' for Inactive)
REMARK    1  A    between atoms: C_1  and  C_2
REMARK    2  A    between atoms: C_8  and  C_9
REMARK    3  A    between atoms: C_11  and  C_12
REMARK    4  A    between atoms: C_12  and  N_13
REMARK    5  A    between atoms: N_13  and  C_14
REMARK    6  A    between atoms: N_13  and  C_15
REMARK    7  A    between atoms: C_18  and  C_19
REMARK    8  A    between atoms: C_26  and  C_27
REMARK                            x       y       z     vdW  Elec       q    Type
REMARK                         _______ _______ _______ _____ _____    ______ ____
ROOT
ATOM      1  C   UNL     1      43.817   4.551   9.726  0.00  0.00    +0.000 C 
ATOM      2  C   UNL     1      43.011   4.693  11.013  0.00  0.00    +0.000 C 
ATOM      3  C   UNL     1      43.175   6.086  11.664  0.00  0.00    +0.000 C 
ATOM      4  N   UNL     1      44.423   6.116  12.411  0.00  0.00    +0.000 N 
ATOM      5  C   UNL     1      45.284   7.170  12.348  0.00  0.00    +0.000 A 
ATOM      6  N   UNL     1      44.905   8.289  11.718  0.00  0.00    +0.000 NA
ATOM      7  C   UNL     1      45.765   9.328  11.723  0.00  0.00    +0.000 A 
ATOM      8  C   UNL     1      47.021   9.289  12.287  0.00  0.00    +0.000 A 
ATOM      9  C   UNL     1      47.379   8.077  12.847  0.00  0.00    +0.000 A 
ATOM     10  N   UNL     1      46.500   7.038  12.901  0.00  0.00    +0.000 NA
ATOM     11  C   UNL     1      44.554   5.082  13.427  0.00  0.00    +0.000 C 
ATOM     12  C   UNL     1      44.425   3.704  12.755  0.00  0.00    +0.000 C 
ATOM     13  C   UNL     1      45.704   3.303  12.025  0.00  0.00    +0.000 C 
ATOM     14  O   UNL     1      43.256   3.598  11.919  0.00  0.00    +0.000 OA
ENDROOT
BRANCH   8  15
ATOM     15  C   UNL     1      47.806  10.477  12.363  0.00  0.00    +0.000 C 
ATOM     16  N   UNL     1      48.509  11.401  12.402  0.00  0.00    +0.000 NA
ENDBRANCH   8  15
BRANCH   9  17
ATOM     17  C   UNL     1      48.754   7.803  13.436  0.00  0.00    +0.000 C 
BRANCH  17  18
ATOM     18  N   UNL     1      48.803   7.959  14.907  0.00  0.00    +0.000 N 
ATOM     19  C   UNL     1      49.872   8.814  15.454  0.00  0.00    +0.000 C 
BRANCH  18  20
ATOM     20  C   UNL     1      48.585   6.808  15.689  0.00  0.00    +0.000 A 
ATOM     21  C   UNL     1      48.672   6.877  17.088  0.00  0.00    +0.000 A 
ATOM     22  C   UNL     1      48.397   5.758  17.880  0.00  0.00    +0.000 A 
ATOM     23  C   UNL     1      48.047   4.577  17.246  0.00  0.00    +0.000 A 
ATOM     24  N   UNL     1      47.994   4.436  15.895  0.00  0.00    +0.000 NA
ATOM     25  C   UNL     1      48.264   5.548  15.168  0.00  0.00    +0.000 A 
BRANCH  23  26
ATOM     26  C   UNL     1      47.662   3.373  18.050  0.00  0.00    +0.000 C 
ATOM     27  N   UNL     1      48.385   3.190  19.199  0.00  0.00    +0.000 N 
ATOM     28  O   UNL     1      46.782   2.595  17.707  0.00  0.00    +0.000 OA
ATOM     29  H   UNL     1      49.137   3.834  19.417  0.00  0.00    +0.000 HD
ATOM     30  H   UNL     1      48.232   2.368  19.764  0.00  0.00    +0.000 HD
ENDBRANCH  23  26
ENDBRANCH  18  20
ENDBRANCH  17  18
ENDBRANCH   9  17
TORSDOF 5
ENDMDL
MODEL 3
REMARK VINA RESULT:    -6.199      3.030      3.741
REMARK INTER + INTRA:          -8.533
REMARK INTER:                  -7.818
REMARK INTRA:                  -0.715
REMARK UNBOUND:                -0.522
REMARK  Name = 
REMARK  8 active torsions:
REMARK  status: ('A' for Active; 'I' for Inactive)
REMARK    1  A    between atoms: C_1  and  C_2
REMARK    2  A    between atoms: C_8  and  C_9
REMARK    3  A    between atoms: C_11  and  C_12
REMARK    4  A    between atoms: C_12  and  N_13
REMARK    5  A    between atoms: N_13  and  C_14
REMARK    6  A    between atoms: N_13  and  C_15
REMARK    7  A    between atoms: C_18  and  C_19
REMARK    8  A    between atoms: C_26  and  C_27
REMARK                            x       y       z     vdW  Elec       q    Type
REMARK                         _______ _______ _______ _____ _____    ______ ____
ROOT
ATOM      1  C   UNL     1      54.916   5.765  15.400  0.00  0.00    +0.000 C 
ATOM      2  C   UNL     1      54.809   6.674  16.621  0.00  0.00    +0.000 C 
ATOM      3  C   UNL     1      53.669   6.250  17.576  0.00  0.00    +0.000 C 
ATOM      4  N   UNL     1      52.406   6.751  17.059  0.00  0.00    +0.000 N 
ATOM      5  C   UNL     1      51.280   5.985  17.019  0.00  0.00    +0.000 A 
ATOM      6  N   UNL     1      51.278   4.791  17.624  0.00  0.00    +0.000 NA
ATOM      7  C   UNL     1      50.129   4.086  17.607  0.00  0.00    +0.000 A 
ATOM      8  C   UNL     1      48.981   4.494  16.963  0.00  0.00    +0.000 A 
ATOM      9  C   UNL     1      49.079   5.696  16.289  0.00  0.00    +0.000 A 
ATOM     10  N   UNL     1      50.214   6.447  16.346  0.00  0.00    +0.000 NA
ATOM     11  C   UNL     1      52.357   8.190  16.848  0.00  0.00    +0.000 C 
ATOM     12  C   UNL     1      53.474   8.588  15.866  0.00  0.00    +0.000 C 
ATOM     13  C   UNL     1      53.110   8.253  14.422  0.00  0.00    +0.000 C 
ATOM     14  O   UNL     1      54.762   8.066  16.246  0.00  0.00    +0.000 OA
ENDROOT
BRANCH   8  15
ATOM     15  C   UNL     1      47.776   3.747  17.113  0.00  0.00    +0.000 C 
ATOM     16  N   UNL     1      46.778   3.183  17.302  0.00  0.00    +0.000 NA
ENDBRANCH   8  15
BRANCH   9  17
ATOM     17  C   UNL     1      47.954   6.272  15.443  0.00  0.00    +0.000 C 
BRANCH  17  18
ATOM     18  N   UNL     1      48.143   6.057  13.991  0.00  0.00    +0.000 N 
ATOM     19  C   UNL     1      48.667   7.191  13.209  0.00  0.00    +0.000 C 
BRANCH  18  20
ATOM     20  C   UNL     1      47.137   5.351  13.303  0.00  0.00    +0.000 A 
ATOM     21  C   UNL     1      46.486   5.938  12.207  0.00  0.00    +0.000 A 
ATOM     22  C   UNL     1      45.529   5.228  11.476  0.00  0.00    +0.000 A 
ATOM     23  C   UNL     1      45.233   3.933  11.870  0.00  0.00    +0.000 A 
ATOM     24  N   UNL     1      45.794   3.328  12.952  0.00  0.00    +0.000 NA
ATOM     25  C   UNL     1      46.719   4.054  13.626  0.00  0.00    +0.000 A 
BRANCH  23  26
ATOM     26  C   UNL     1      44.277   3.100  11.072  0.00  0.00    +0.000 C 
ATOM     27  N   UNL     1      44.837   2.430  10.016  0.00  0.00    +0.000 N 
ATOM     28  O   UNL     1      43.081   3.030  11.324  0.00  0.00    +0.000 OA
ATOM     29  H   UNL     1      45.823   2.557   9.818  0.00  0.00    +0.000 HD
ATOM     30  H   UNL     1      44.250   1.898   9.390  0.00  0.00    +0.000 HD
ENDBRANCH  23  26
ENDBRANCH  18  20
ENDBRANCH  17  18
ENDBRANCH   9  17
TORSDOF 5
ENDMDL
MODEL 4
REMARK VINA RESULT:    -6.099      3.526      6.952
REMARK INTER + INTRA:          -8.404
REMARK INTER:                  -7.587
REMARK INTRA:                  -0.817
REMARK UNBOUND:                -0.522
REMARK  Name = 
REMARK  8 active torsions:
REMARK  status: ('A' for Active; 'I' for Inactive)
REMARK    1  A    between atoms: C_1  and  C_2
REMARK    2  A    between atoms: C_8  and  C_9
REMARK    3  A    between atoms: C_11  and  C_12
REMARK    4  A    between atoms: C_12  and  N_13
REMARK    5  A    between atoms: N_13  and  C_14
REMARK    6  A    between atoms: N_13  and  C_15
REMARK    7  A    between atoms: C_18  and  C_19
REMARK    8  A    between atoms: C_26  and  C_27
REMARK                            x       y       z     vdW  Elec       q    Type
REMARK                         _______ _______ _______ _____ _____    ______ ____
ROOT
ATOM      1  C   UNL     1      43.134   5.147  13.030  0.00  0.00    +0.000 C 
ATOM      2  C   UNL     1      44.067   4.577  11.966  0.00  0.00    +0.000 C 
ATOM      3  C   UNL     1      45.286   3.848  12.577  0.00  0.00    +0.000 C 
ATOM      4  N   UNL     1      46.284   4.834  12.962  0.00  0.00    +0.000 N 
ATOM      5  C   UNL     1      46.940   4.779  14.154  0.00  0.00    +0.000 A 
ATOM      6  N   UNL     1      46.796   3.699  14.932  0.00  0.00    +0.000 NA
ATOM      7  C   UNL     1      47.503   3.660  16.080  0.00  0.00    +0.000 A 
ATOM      8  C   UNL     1      48.316   4.680  16.522  0.00  0.00    +0.000 A 
ATOM      9  C   UNL     1      48.354   5.798  15.711  0.00  0.00    +0.000 A 
ATOM     10  N   UNL     1      47.692   5.829  14.521  0.00  0.00    +0.000 NA
ATOM     11  C   UNL     1      46.725   5.711  11.887  0.00  0.00    +0.000 C 
ATOM     12  C   UNL     1      45.505   6.455  11.317  0.00  0.00    +0.000 C 
ATOM     13  C   UNL     1      45.062   7.602  12.220  0.00  0.00    +0.000 C 
ATOM     14  O   UNL     1      44.419   5.569  10.980  0.00  0.00    +0.000 OA
ENDROOT
BRANCH   8  15
ATOM     15  C   UNL     1      49.129   4.493  17.679  0.00  0.00    +0.000 C 
ATOM     16  N   UNL     1      49.789   4.421  18.632  0.00  0.00    +0.000 NA
ENDBRANCH   8  15
BRANCH   9  17
ATOM     17  C   UNL     1      49.118   7.064  16.069  0.00  0.00    +0.000 C 
BRANCH  17  18
ATOM     18  N   UNL     1      50.092   7.474  15.033  0.00  0.00    +0.000 N 
ATOM     19  C   UNL     1      51.462   7.775  15.484  0.00  0.00    +0.000 C 
BRANCH  18  20
ATOM     20  C   UNL     1      49.645   8.368  14.041  0.00  0.00    +0.000 A 
ATOM     21  C   UNL     1      49.658   7.988  12.690  0.00  0.00    +0.000 A 
ATOM     22  C   UNL     1      49.160   8.841  11.700  0.00  0.00    +0.000 A 
ATOM     23  C   UNL     1      48.664  10.075  12.088  0.00  0.00    +0.000 A 
ATOM     24  N   UNL     1      48.669  10.518  13.373  0.00  0.00    +0.000 NA
ATOM     25  C   UNL     1      49.157   9.655  14.299  0.00  0.00    +0.000 A 
BRANCH  23  26
ATOM     26  C   UNL     1      48.043  10.991  11.078  0.00  0.00    +0.000 C 
ATOM     27  N   UNL     1      46.727  11.297  11.307  0.00  0.00    +0.000 N 
ATOM     28  O   UNL     1      48.651  11.425  10.108  0.00  0.00    +0.000 OA
ATOM     29  H   UNL     1      46.253  10.874  12.096  0.00  0.00    +0.000 HD
ATOM     30  H   UNL     1      46.217  11.856  10.638  0.00  0.00    +0.000 HD
ENDBRANCH  23  26
ENDBRANCH  18  20
ENDBRANCH  17  18
ENDBRANCH   9  17
TORSDOF 5
ENDMDL
MODEL 5
REMARK VINA RESULT:    -5.857      4.315      6.806
REMARK INTER + INTRA:          -8.091
REMARK INTER:                  -7.379
REMARK INTRA:                  -0.711
REMARK UNBOUND:                -0.522
REMARK  Name = 
REMARK  8 active torsions:
REMARK  status: ('A' for Active; 'I' for Inactive)
REMARK    1  A    between atoms: C_1  and  C_2
REMARK    2  A    between atoms: C_8  and  C_9
REMARK    3  A    between atoms: C_11  and  C_12
REMARK    4  A    between atoms: C_12  and  N_13
REMARK    5  A    between atoms: N_13  and  C_14
REMARK    6  A    between atoms: N_13  and  C_15
REMARK    7  A    between atoms: C_18  and  C_19
REMARK    8  A    between atoms: C_26  and  C_27
REMARK                            x       y       z     vdW  Elec       q    Type
REMARK                         _______ _______ _______ _____ _____    ______ ____
ROOT
ATOM      1  C   UNL     1      50.093   2.374  17.017  0.00  0.00    +0.000 C 
ATOM      2  C   UNL     1      49.114   3.046  17.976  0.00  0.00    +0.000 C 
ATOM      3  C   UNL     1      47.789   3.445  17.285  0.00  0.00    +0.000 C 
ATOM      4  N   UNL     1      47.986   4.695  16.567  0.00  0.00    +0.000 N 
ATOM      5  C   UNL     1      47.520   4.889  15.302  0.00  0.00    +0.000 A 
ATOM      6  N   UNL     1      46.710   3.975  14.755  0.00  0.00    +0.000 NA
ATOM      7  C   UNL     1      46.228   4.229  13.521  0.00  0.00    +0.000 A 
ATOM      8  C   UNL     1      46.559   5.339  12.775  0.00  0.00    +0.000 A 
ATOM      9  C   UNL     1      47.464   6.199  13.368  0.00  0.00    +0.000 A 
ATOM     10  N   UNL     1      47.914   5.986  14.636  0.00  0.00    +0.000 NA
ATOM     11  C   UNL     1      48.466   5.801  17.383  0.00  0.00    +0.000 C 
ATOM     12  C   UNL     1      49.802   5.399  18.032  0.00  0.00    +0.000 C 
ATOM     13  C   UNL     1      50.963   5.480  17.044  0.00  0.00    +0.000 C 
ATOM     14  O   UNL     1      49.737   4.125  18.702  0.00  0.00    +0.000 OA
ENDROOT
BRANCH   8  15
ATOM     15  C   UNL     1      45.895   5.591  11.539  0.00  0.00    +0.000 C 
ATOM     16  N   UNL     1      45.425   5.783  10.494  0.00  0.00    +0.000 NA
ENDBRANCH   8  15
BRANCH   9  17
ATOM     17  C   UNL     1      48.024   7.430  12.672  0.00  0.00    +0.000 C 
BRANCH  17  18
ATOM     18  N   UNL     1      49.153   8.052  13.399  0.00  0.00    +0.000 N 
ATOM     19  C   UNL     1      48.866   9.289  14.148  0.00  0.00    +0.000 C 
BRANCH  18  20
ATOM     20  C   UNL     1      50.399   8.098  12.746  0.00  0.00    +0.000 A 
ATOM     21  C   UNL     1      50.504   7.723  11.397  0.00  0.00    +0.000 A 
ATOM     22  C   UNL     1      51.722   7.823  10.717  0.00  0.00    +0.000 A 
ATOM     23  C   UNL     1      52.824   8.291  11.414  0.00  0.00    +0.000 A 
ATOM     24  N   UNL     1      52.796   8.623  12.732  0.00  0.00    +0.000 NA
ATOM     25  C   UNL     1      51.593   8.515  13.348  0.00  0.00    +0.000 A 
BRANCH  23  26
ATOM     26  C   UNL     1      54.131   8.495  10.711  0.00  0.00    +0.000 C 
ATOM     27  N   UNL     1      55.214   8.646  11.536  0.00  0.00    +0.000 N 
ATOM     28  O   UNL     1      54.233   8.543   9.492  0.00  0.00    +0.000 OA
ATOM     29  H   UNL     1      55.073   8.648  12.540  0.00  0.00    +0.000 HD
ATOM     30  H   UNL     1      56.121   8.853  11.143  0.00  0.00    +0.000 HD
ENDBRANCH  23  26
ENDBRANCH  18  20
ENDBRANCH  17  18
ENDBRANCH   9  17
TORSDOF 5
ENDMDL
MODEL 6
REMARK VINA RESULT:    -5.744      4.674      7.386
REMARK INTER + INTRA:          -7.945
REMARK INTER:                  -7.111
REMARK INTRA:                  -0.834
REMARK UNBOUND:                -0.522
REMARK  Name = 
REMARK  8 active torsions:
REMARK  status: ('A' for Active; 'I' for Inactive)
REMARK    1  A    between atoms: C_1  and  C_2
REMARK    2  A    between atoms: C_8  and  C_9
REMARK    3  A    between atoms: C_11  and  C_12
REMARK    4  A    between atoms: C_12  and  N_13
REMARK    5  A    between atoms: N_13  and  C_14
REMARK    6  A    between atoms: N_13  and  C_15
REMARK    7  A    between atoms: C_18  and  C_19
REMARK    8  A    between atoms: C_26  and  C_27
REMARK                            x       y       z     vdW  Elec       q    Type
REMARK                         _______ _______ _______ _____ _____    ______ ____
ROOT
ATOM      1  C   UNL     1      51.550  11.323  14.092  0.00  0.00    +0.000 C 
ATOM      2  C   UNL     1      51.925  10.903  12.673  0.00  0.00    +0.000 C 
ATOM      3  C   UNL     1      50.763  11.098  11.672  0.00  0.00    +0.000 C 
ATOM      4  N   UNL     1      49.844   9.977  11.789  0.00  0.00    +0.000 N 
ATOM      5  C   UNL     1      48.492  10.144  11.823  0.00  0.00    +0.000 A 
ATOM      6  N   UNL     1      47.975  11.353  11.573  0.00  0.00    +0.000 NA
ATOM      7  C   UNL     1      46.631  11.465  11.565  0.00  0.00    +0.000 A 
ATOM      8  C   UNL     1      45.767  10.430  11.848  0.00  0.00    +0.000 A 
ATOM      9  C   UNL     1      46.370   9.232  12.178  0.00  0.00    +0.000 A 
ATOM     10  N   UNL     1      47.724   9.088  12.134  0.00  0.00    +0.000 NA
ATOM     11  C   UNL     1      50.447   8.667  11.591  0.00  0.00    +0.000 C 
ATOM     12  C   UNL     1      51.575   8.477  12.620  0.00  0.00    +0.000 C 
ATOM     13  C   UNL     1      51.033   8.140  14.006  0.00  0.00    +0.000 C 
ATOM     14  O   UNL     1      52.501   9.581  12.643  0.00  0.00    +0.000 OA
ENDROOT
BRANCH   8  15
ATOM     15  C   UNL     1      44.362  10.609  11.682  0.00  0.00    +0.000 C 
ATOM     16  N   UNL     1      43.217  10.791  11.619  0.00  0.00    +0.000 NA
ENDBRANCH   8  15
BRANCH   9  17
ATOM     17  C   UNL     1      45.593   7.998  12.612  0.00  0.00    +0.000 C 
BRANCH  17  18
ATOM     18  N   UNL     1      46.221   6.728  12.181  0.00  0.00    +0.000 N 
ATOM     19  C   UNL     1      45.594   6.024  11.047  0.00  0.00    +0.000 C 
BRANCH  18  20
ATOM     20  C   UNL     1      46.655   5.845  13.187  0.00  0.00    +0.000 A 
ATOM     21  C   UNL     1      47.533   6.291  14.188  0.00  0.00    +0.000 A 
ATOM     22  C   UNL     1      47.924   5.443  15.229  0.00  0.00    +0.000 A 
ATOM     23  C   UNL     1      47.430   4.149  15.239  0.00  0.00    +0.000 A 
ATOM     24  N   UNL     1      46.617   3.645  14.273  0.00  0.00    +0.000 NA
ATOM     25  C   UNL     1      46.261   4.505  13.287  0.00  0.00    +0.000 A 
BRANCH  23  26
ATOM     26  C   UNL     1      47.751   3.227  16.376  0.00  0.00    +0.000 C 
ATOM     27  N   UNL     1      46.849   3.244  17.407  0.00  0.00    +0.000 N 
ATOM     28  O   UNL     1      48.751   2.521  16.400  0.00  0.00    +0.000 OA
ATOM     29  H   UNL     1      46.062   3.882  17.363  0.00  0.00    +0.000 HD
ATOM     30  H   UNL     1      47.026   2.701  18.239  0.00  0.00    +0.000 HD
ENDBRANCH  23  26
ENDBRANCH  18  20
ENDBRANCH  17  18
ENDBRANCH   9  17
TORSDOF 5
ENDMDL
MODEL 7
REMARK VINA RESULT:    -5.493      3.594      7.428
REMARK INTER + INTRA:          -7.621
REMARK INTER:                  -6.790
REMARK INTRA:                  -0.831
REMARK UNBOUND:                -0.522
REMARK  Name = 
REMARK  8 active torsions:
REMARK  status: ('A' for Active; 'I' for Inactive)
REMARK    1  A    between atoms: C_1  and  C_2
REMARK    2  A    between atoms: C_8  and  C_9
REMARK    3  A    between atoms: C_11  and  C_12
REMARK    4  A    between atoms: C_12  and  N_13
REMARK    5  A    between atoms: N_13  and  C_14
REMARK    6  A    between atoms: N_13  and  C_15
REMARK    7  A    between atoms: C_18  and  C_19
REMARK    8  A    between atoms: C_26  and  C_27
REMARK                            x       y       z     vdW  Elec       q    Type
REMARK                         _______ _______ _______ _____ _____    ______ ____
ROOT
ATOM      1  C   UNL     1      44.145   5.819  12.942  0.00  0.00    +0.000 C 
ATOM      2  C   UNL     1      45.251   5.148  12.132  0.00  0.00    +0.000 C 
ATOM      3  C   UNL     1      46.156   4.244  13.000  0.00  0.00    +0.000 C 
ATOM      4  N   UNL     1      47.130   5.073  13.692  0.00  0.00    +0.000 N 
ATOM      5  C   UNL     1      47.426   4.901  15.011  0.00  0.00    +0.000 A 
ATOM      6  N   UNL     1      46.941   3.835  15.658  0.00  0.00    +0.000 NA
ATOM      7  C   UNL     1      47.300   3.673  16.948  0.00  0.00    +0.000 A 
ATOM      8  C   UNL     1      48.088   4.560  17.648  0.00  0.00    +0.000 A 
ATOM      9  C   UNL     1      48.486   5.680  16.942  0.00  0.00    +0.000 A 
ATOM     10  N   UNL     1      48.180   5.828  15.624  0.00  0.00    +0.000 NA
ATOM     11  C   UNL     1      47.954   5.903  12.826  0.00  0.00    +0.000 C 
ATOM     12  C   UNL     1      47.038   6.821  11.997  0.00  0.00    +0.000 C 
ATOM     13  C   UNL     1      46.519   8.000  12.817  0.00  0.00    +0.000 C 
ATOM     14  O   UNL     1      45.980   6.102  11.334  0.00  0.00    +0.000 OA
ENDROOT
BRANCH   8  15
ATOM     15  C   UNL     1      48.527   4.237  18.966  0.00  0.00    +0.000 C 
ATOM     16  N   UNL     1      48.820   4.014  20.067  0.00  0.00    +0.000 NA
ENDBRANCH   8  15
BRANCH   9  17
ATOM     17  C   UNL     1      49.281   6.818  17.563  0.00  0.00    +0.000 C 
BRANCH  17  18
ATOM     18  N   UNL     1      50.731   6.538  17.658  0.00  0.00    +0.000 N 
ATOM     19  C   UNL     1      51.363   6.723  18.976  0.00  0.00    +0.000 C 
BRANCH  18  20
ATOM     20  C   UNL     1      51.548   6.987  16.603  0.00  0.00    +0.000 A 
ATOM     21  C   UNL     1      52.870   6.529  16.490  0.00  0.00    +0.000 A 
ATOM     22  C   UNL     1      53.675   6.917  15.414  0.00  0.00    +0.000 A 
ATOM     23  C   UNL     1      53.135   7.775  14.469  0.00  0.00    +0.000 A 
ATOM     24  N   UNL     1      51.879   8.290  14.551  0.00  0.00    +0.000 NA
ATOM     25  C   UNL     1      51.135   7.881  15.608  0.00  0.00    +0.000 A 
BRANCH  23  26
ATOM     26  C   UNL     1      53.925   8.155  13.255  0.00  0.00    +0.000 C 
ATOM     27  N   UNL     1      54.456   7.102  12.558  0.00  0.00    +0.000 N 
ATOM     28  O   UNL     1      54.104   9.317  12.912  0.00  0.00    +0.000 OA
ATOM     29  H   UNL     1      54.321   6.160  12.908  0.00  0.00    +0.000 HD
ATOM     30  H   UNL     1      55.055   7.275  11.764  0.00  0.00    +0.000 HD
ENDBRANCH  23  26
ENDBRANCH  18  20
ENDBRANCH  17  18
ENDBRANCH   9  17
TORSDOF 5
ENDMDL
MODEL 8
REMARK VINA RESULT:    -5.385      4.875      5.931
REMARK INTER + INTRA:          -7.481
REMARK INTER:                  -6.694
REMARK INTRA:                  -0.787
REMARK UNBOUND:                -0.522
REMARK  Name = 
REMARK  8 active torsions:
REMARK  status: ('A' for Active; 'I' for Inactive)
REMARK    1  A    between atoms: C_1  and  C_2
REMARK    2  A    between atoms: C_8  and  C_9
REMARK    3  A    between atoms: C_11  and  C_12
REMARK    4  A    between atoms: C_12  and  N_13
REMARK    5  A    between atoms: N_13  and  C_14
REMARK    6  A    between atoms: N_13  and  C_15
REMARK    7  A    between atoms: C_18  and  C_19
REMARK    8  A    between atoms: C_26  and  C_27
REMARK                            x       y       z     vdW  Elec       q    Type
REMARK                         _______ _______ _______ _____ _____    ______ ____
ROOT
ATOM      1  C   UNL     1      51.770   8.839  10.431  0.00  0.00    +0.000 C 
ATOM      2  C   UNL     1      51.998   9.429  11.820  0.00  0.00    +0.000 C 
ATOM      3  C   UNL     1      51.338   8.587  12.936  0.00  0.00    +0.000 C 
ATOM      4  N   UNL     1      49.922   8.914  13.001  0.00  0.00    +0.000 N 
ATOM      5  C   UNL     1      48.959   7.957  13.115  0.00  0.00    +0.000 A 
ATOM      6  N   UNL     1      49.319   6.689  13.346  0.00  0.00    +0.000 NA
ATOM      7  C   UNL     1      48.334   5.781  13.505  0.00  0.00    +0.000 A 
ATOM      8  C   UNL     1      46.992   6.069  13.393  0.00  0.00    +0.000 A 
ATOM      9  C   UNL     1      46.695   7.380  13.072  0.00  0.00    +0.000 A 
ATOM     10  N   UNL     1      47.675   8.320  12.966  0.00  0.00    +0.000 NA
ATOM     11  C   UNL     1      49.627  10.323  13.211  0.00  0.00    +0.000 C 
ATOM     12  C   UNL     1      50.260  11.141  12.071  0.00  0.00    +0.000 C 
ATOM     13  C   UNL     1      49.446  11.049  10.783  0.00  0.00    +0.000 C 
ATOM     14  O   UNL     1      51.652  10.828  11.867  0.00  0.00    +0.000 OA
ENDROOT
BRANCH   8  15
ATOM     15  C   UNL     1      46.021   5.075  13.711  0.00  0.00    +0.000 C 
ATOM     16  N   UNL     1      45.242   4.233  13.898  0.00  0.00    +0.000 NA
ENDBRANCH   8  15
BRANCH   9  17
ATOM     17  C   UNL     1      45.280   7.876  12.814  0.00  0.00    +0.000 C 
BRANCH  17  18
ATOM     18  N   UNL     1      44.894   7.830  11.386  0.00  0.00    +0.000 N 
ATOM     19  C   UNL     1      43.802   8.723  10.959  0.00  0.00    +0.000 C 
BRANCH  18  20
ATOM     20  C   UNL     1      44.821   6.564  10.774  0.00  0.00    +0.000 A 
ATOM     21  C   UNL     1      45.841   6.138   9.909  0.00  0.00    +0.000 A 
ATOM     22  C   UNL     1      45.814   4.859   9.343  0.00  0.00    +0.000 A 
ATOM     23  C   UNL     1      44.748   4.029   9.650  0.00  0.00    +0.000 A 
ATOM     24  N   UNL     1      43.708   4.403  10.442  0.00  0.00    +0.000 NA
ATOM     25  C   UNL     1      43.779   5.649  10.972  0.00  0.00    +0.000 A 
BRANCH  23  26
ATOM     26  C   UNL     1      44.713   2.623   9.138  0.00  0.00    +0.000 C 
ATOM     27  N   UNL     1      44.072   1.726   9.951  0.00  0.00    +0.000 N 
ATOM     28  O   UNL     1      45.232   2.284   8.081  0.00  0.00    +0.000 OA
ATOM     29  H   UNL     1      43.700   2.044  10.839  0.00  0.00    +0.000 HD
ATOM     30  H   UNL     1      44.060   0.746   9.709  0.00  0.00    +0.000 HD
ENDBRANCH  23  26
ENDBRANCH  18  20
ENDBRANCH  17  18
ENDBRANCH   9  17
TORSDOF 5
ENDMDL
MODEL 9
REMARK VINA RESULT:    -4.684     11.228     13.946
REMARK INTER + INTRA:          -6.574
REMARK INTER:                  -5.814
REMARK INTRA:                  -0.760
REMARK UNBOUND:                -0.522
REMARK  Name = 
REMARK  8 active torsions:
REMARK  status: ('A' for Active; 'I' for Inactive)
REMARK    1  A    between atoms: C_1  and  C_2
REMARK    2  A    between atoms: C_8  and  C_9
REMARK    3  A    between atoms: C_11  and  C_12
REMARK    4  A    between atoms: C_12  and  N_13
REMARK    5  A    between atoms: N_13  and  C_14
REMARK    6  A    between atoms: N_13  and  C_15
REMARK    7  A    between atoms: C_18  and  C_19
REMARK    8  A    between atoms: C_26  and  C_27
REMARK                            x       y       z     vdW  Elec       q    Type
REMARK                         _______ _______ _______ _____ _____    ______ ____
ROOT
ATOM      1  C   UNL     1      41.146  -2.587  12.114  0.00  0.00    +0.000 C 
ATOM      2  C   UNL     1      39.811  -3.320  12.202  0.00  0.00    +0.000 C 
ATOM      3  C   UNL     1      39.041  -2.993  13.503  0.00  0.00    +0.000 C 
ATOM      4  N   UNL     1      39.584  -3.794  14.589  0.00  0.00    +0.000 N 
ATOM      5  C   UNL     1      39.847  -3.270  15.819  0.00  0.00    +0.000 A 
ATOM      6  N   UNL     1      39.441  -2.026  16.102  0.00  0.00    +0.000 NA
ATOM      7  C   UNL     1      39.674  -1.563  17.347  0.00  0.00    +0.000 A 
ATOM      8  C   UNL     1      40.346  -2.269  18.321  0.00  0.00    +0.000 A 
ATOM      9  C   UNL     1      40.808  -3.513  17.935  0.00  0.00    +0.000 A 
ATOM     10  N   UNL     1      40.530  -4.017  16.700  0.00  0.00    +0.000 NA
ATOM     11  C   UNL     1      39.567  -5.231  14.359  0.00  0.00    +0.000 C 
ATOM     12  C   UNL     1      40.368  -5.541  13.082  0.00  0.00    +0.000 C 
ATOM     13  C   UNL     1      41.874  -5.486  13.326  0.00  0.00    +0.000 C 
ATOM     14  O   UNL     1      39.962  -4.734  11.959  0.00  0.00    +0.000 OA
ENDROOT
BRANCH   8  15
ATOM     15  C   UNL     1      40.425  -1.753  19.647  0.00  0.00    +0.000 C 
ATOM     16  N   UNL     1      40.548  -1.284  20.703  0.00  0.00    +0.000 NA
ENDBRANCH   8  15
BRANCH   9  17
ATOM     17  C   UNL     1      41.649  -4.406  18.834  0.00  0.00    +0.000 C 
BRANCH  17  18
ATOM     18  N   UNL     1      42.077  -5.662  18.178  0.00  0.00    +0.000 N 
ATOM     19  C   UNL     1      41.444  -6.909  18.643  0.00  0.00    +0.000 C 
BRANCH  18  20
ATOM     20  C   UNL     1      43.451  -5.823  17.919  0.00  0.00    +0.000 A 
ATOM     21  C   UNL     1      44.390  -4.985  18.541  0.00  0.00    +0.000 A 
ATOM     22  C   UNL     1      45.762  -5.172  18.343  0.00  0.00    +0.000 A 
ATOM     23  C   UNL     1      46.168  -6.199  17.507  0.00  0.00    +0.000 A 
ATOM     24  N   UNL     1      45.306  -7.012  16.839  0.00  0.00    +0.000 NA
ATOM     25  C   UNL     1      43.987  -6.796  17.066  0.00  0.00    +0.000 A 
BRANCH  23  26
ATOM     26  C   UNL     1      47.625  -6.495  17.326  0.00  0.00    +0.000 C 
ATOM     27  N   UNL     1      48.285  -6.869  18.467  0.00  0.00    +0.000 N 
ATOM     28  O   UNL     1      48.198  -6.396  16.249  0.00  0.00    +0.000 OA
ATOM     29  H   UNL     1      47.779  -6.889  19.345  0.00  0.00    +0.000 HD
ATOM     30  H   UNL     1      49.283  -7.023  18.444  0.00  0.00    +0.000 HD
ENDBRANCH  23  26
ENDBRANCH  18  20
ENDBRANCH  17  18
ENDBRANCH   9  17
TORSDOF 5
ENDMDL
