MODEL 1
REMARK VINA RESULT:    -8.277      0.000      0.000
REMARK INTER + INTRA:          -9.908
REMARK INTER:                  -9.970
REMARK INTRA:                   0.062
REMARK UNBOUND:                 0.062
REMARK  Name = 
REMARK  5 active torsions:
REMARK  status: ('A' for Active; 'I' for Inactive)
REMARK    1  A    between atoms: C_1  and  C_2
REMARK    2  A    between atoms: C_4  and  C_5
REMARK    3  A    between atoms: C_10  and  C_11
REMARK    4  A    between atoms: C_11  and  C_12
REMARK    5  A    between atoms: C_15  and  O_16
REMARK                            x       y       z     vdW  Elec       q    Type
REMARK                         _______ _______ _______ _____ _____    ______ ____
ROOT
ATOM      1  C   UNL     1      45.499   6.771  11.273  0.00  0.00    +0.000 C 
ATOM      2  C   UNL     1      45.900   5.667  12.212  0.00  0.00    +0.000 A 
ATOM      3  C   UNL     1      46.702   5.986  13.324  0.00  0.00    +0.000 A 
ATOM      4  C   UNL     1      47.091   4.966  14.181  0.00  0.00    +0.000 A 
ATOM      5  N   UNL     1      46.772   3.660  13.991  0.00  0.00    +0.000 NA
ATOM      6  C   UNL     1      45.985   3.392  12.925  0.00  0.00    +0.000 A 
ATOM      7  C   UNL     1      45.476   4.333  12.019  0.00  0.00    +0.000 A 
ENDROOT
BRANCH   4   8
ATOM      8  C   UNL     1      47.882   5.265  15.417  0.00  0.00    +0.000 C 
ATOM      9  N   UNL     1      47.317   4.799  16.575  0.00  0.00    +0.000 N 
ATOM     10  O   UNL     1      48.936   5.888  15.403  0.00  0.00    +0.000 OA
ATOM     11  H   UNL     1      46.434   4.312  16.529  0.00  0.00    +0.000 HD
ATOM     12  H   UNL     1      47.764   4.982  17.467  0.00  0.00    +0.000 HD
ENDBRANCH   4   8
BRANCH   7  13
ATOM     13  C   UNL     1      44.448   3.890  10.973  0.00  0.00    +0.000 C 
ATOM     14  C   UNL     1      43.031   4.448  11.117  0.00  0.00    +0.000 C 
ATOM     15  C   UNL     1      43.267   3.023  11.468  0.00  0.00    +0.000 C 
BRANCH  13  16
ATOM     16  C   UNL     1      44.928   3.421   9.595  0.00  0.00    +0.000 A 
ATOM     17  C   UNL     1      45.451   4.359   8.680  0.00  0.00    +0.000 A 
ATOM     18  C   UNL     1      46.312   3.971   7.653  0.00  0.00    +0.000 A 
ATOM     19  C   UNL     1      46.619   2.626   7.500  0.00  0.00    +0.000 A 
ATOM     20  C   UNL     1      45.973   1.672   8.281  0.00  0.00    +0.000 A 
ATOM     21  F   UNL     1      46.250   0.369   8.127  0.00  0.00    +0.000 F 
ATOM     22  C   UNL     1      45.120   2.059   9.309  0.00  0.00    +0.000 A 
BRANCH  19  23
ATOM     23  O   UNL     1      47.595   2.236   6.629  0.00  0.00    +0.000 OA
ATOM     24  H   UNL     1      48.340   1.885   7.146  0.00  0.00    +0.000 HD
ENDBRANCH  19  23
ENDBRANCH  13  16
ENDBRANCH   7  13
TORSDOF 4
ENDMDL
MODEL 2
REMARK VINA RESULT:    -7.431      3.153      6.237
REMARK INTER + INTRA:          -8.889
REMARK INTER:                  -8.936
REMARK INTRA:                   0.047
REMARK UNBOUND:                 0.062
REMARK  Name = 
REMARK  5 active torsions:
REMARK  status: ('A' for Active; 'I' for Inactive)
REMARK    1  A    between atoms: C_1  and  C_2
REMARK    2  A    between atoms: C_4  and  C_5
REMARK    3  A    between atoms: C_10  and  C_11
REMARK    4  A    between atoms: C_11  and  C_12
REMARK    5  A    between atoms: C_15  and  O_16
REMARK                            x       y       z     vdW  Elec       q    Type
REMARK                         _______ _______ _______ _____ _____    ______ ____
ROOT
ATOM      1  C   UNL     1      45.512   5.855   9.506  0.00  0.00    +0.000 C 
ATOM      2  C   UNL     1      45.634   4.406   9.125  0.00  0.00    +0.000 A 
ATOM      3  C   UNL     1      46.363   4.073   7.967  0.00  0.00    +0.000 A 
ATOM      4  C   UNL     1      46.460   2.738   7.602  0.00  0.00    +0.000 A 
ATOM      5  N   UNL     1      45.859   1.725   8.278  0.00  0.00    +0.000 NA
ATOM      6  C   UNL     1      45.183   2.079   9.394  0.00  0.00    +0.000 A 
ATOM      7  C   UNL     1      45.059   3.379   9.906  0.00  0.00    +0.000 A 
ENDROOT
BRANCH   4   8
ATOM      8  C   UNL     1      47.285   2.326   6.422  0.00  0.00    +0.000 C 
ATOM      9  N   UNL     1      47.187   3.164   5.343  0.00  0.00    +0.000 N 
ATOM     10  O   UNL     1      47.978   1.316   6.409  0.00  0.00    +0.000 OA
ATOM     11  H   UNL     1      46.582   3.970   5.402  0.00  0.00    +0.000 HD
ATOM     12  H   UNL     1      47.685   2.949   4.485  0.00  0.00    +0.000 HD
ENDBRANCH   4   8
BRANCH   7  13
ATOM     13  C   UNL     1      44.416   3.587  11.281  0.00  0.00    +0.000 C 
ATOM     14  C   UNL     1      43.227   2.690  11.630  0.00  0.00    +0.000 C 
ATOM     15  C   UNL     1      42.964   4.117  11.308  0.00  0.00    +0.000 C 
BRANCH  13  16
ATOM     16  C   UNL     1      45.243   4.204  12.414  0.00  0.00    +0.000 A 
ATOM     17  C   UNL     1      46.195   3.415  13.095  0.00  0.00    +0.000 A 
ATOM     18  C   UNL     1      47.271   3.994  13.769  0.00  0.00    +0.000 A 
ATOM     19  C   UNL     1      47.376   5.378  13.810  0.00  0.00    +0.000 A 
ATOM     20  C   UNL     1      46.353   6.170  13.298  0.00  0.00    +0.000 A 
ATOM     21  F   UNL     1      46.439   7.507  13.351  0.00  0.00    +0.000 F 
ATOM     22  C   UNL     1      45.283   5.592  12.621  0.00  0.00    +0.000 A 
BRANCH  19  23
ATOM     23  O   UNL     1      48.506   5.968  14.298  0.00  0.00    +0.000 OA
ATOM     24  H   UNL     1      49.186   5.940  13.604  0.00  0.00    +0.000 HD
ENDBRANCH  19  23
ENDBRANCH  13  16
ENDBRANCH   7  13
TORSDOF 4
ENDMDL
MODEL 3
REMARK VINA RESULT:    -7.406      1.701      2.154
REMARK INTER + INTRA:          -8.859
REMARK INTER:                  -8.955
REMARK INTRA:                   0.096
REMARK UNBOUND:                 0.062
REMARK  Name = 
REMARK  5 active torsions:
REMARK  status: ('A' for Active; 'I' for Inactive)
REMARK    1  A    between atoms: C_1  and  C_2
REMARK    2  A    between atoms: C_4  and  C_5
REMARK    3  A    between atoms: C_10  and  C_11
REMARK    4  A    between atoms: C_11  and  C_12
REMARK    5  A    between atoms: C_15  and  O_16
REMARK                            x       y       z     vdW  Elec       q    Type
REMARK                         _______ _______ _______ _____ _____    ______ ____
ROOT
ATOM      1  C   UNL     1      46.384   3.323  13.006  0.00  0.00    +0.000 C 
ATOM      2  C   UNL     1      46.179   4.798  12.795  0.00  0.00    +0.000 A 
ATOM      3  C   UNL     1      47.078   5.696  13.402  0.00  0.00    +0.000 A 
ATOM      4  C   UNL     1      46.879   7.058  13.226  0.00  0.00    +0.000 A 
ATOM      5  N   UNL     1      45.841   7.585  12.527  0.00  0.00    +0.000 NA
ATOM      6  C   UNL     1      45.009   6.693  11.942  0.00  0.00    +0.000 A 
ATOM      7  C   UNL     1      45.130   5.297  11.992  0.00  0.00    +0.000 A 
ENDROOT
BRANCH   4   8
ATOM      8  C   UNL     1      47.848   8.052  13.788  0.00  0.00    +0.000 C 
ATOM      9  N   UNL     1      47.291   8.958  14.652  0.00  0.00    +0.000 N 
ATOM     10  O   UNL     1      49.036   8.070  13.491  0.00  0.00    +0.000 OA
ATOM     11  H   UNL     1      46.301   8.909  14.842  0.00  0.00    +0.000 HD
ATOM     12  H   UNL     1      47.863   9.690  15.058  0.00  0.00    +0.000 HD
ENDBRANCH   4   8
BRANCH   7  13
ATOM     13  C   UNL     1      44.213   4.432  11.122  0.00  0.00    +0.000 C 
ATOM     14  C   UNL     1      42.705   4.621  11.308  0.00  0.00    +0.000 C 
ATOM     15  C   UNL     1      43.334   3.386  11.847  0.00  0.00    +0.000 C 
BRANCH  13  16
ATOM     16  C   UNL     1      44.735   3.877   9.793  0.00  0.00    +0.000 A 
ATOM     17  C   UNL     1      45.433   4.725   8.907  0.00  0.00    +0.000 A 
ATOM     18  C   UNL     1      46.317   4.214   7.956  0.00  0.00    +0.000 A 
ATOM     19  C   UNL     1      46.473   2.839   7.848  0.00  0.00    +0.000 A 
ATOM     20  C   UNL     1      45.662   1.986   8.591  0.00  0.00    +0.000 A 
ATOM     21  F   UNL     1      45.793   0.656   8.479  0.00  0.00    +0.000 F 
ATOM     22  C   UNL     1      44.785   2.496   9.544  0.00  0.00    +0.000 A 
BRANCH  19  23
ATOM     23  O   UNL     1      47.459   2.316   7.061  0.00  0.00    +0.000 OA
ATOM     24  H   UNL     1      47.949   3.054   6.661  0.00  0.00    +0.000 HD
ENDBRANCH  19  23
ENDBRANCH  13  16
ENDBRANCH   7  13
TORSDOF 4
ENDMDL
MODEL 4
REMARK VINA RESULT:    -6.608      3.212      6.557
REMARK INTER + INTRA:          -7.898
REMARK INTER:                  -7.942
REMARK INTRA:                   0.044
REMARK UNBOUND:                 0.062
REMARK  Name = 
REMARK  5 active torsions:
REMARK  status: ('A' for Active; 'I' for Inactive)
REMARK    1  A    between atoms: C_1  and  C_2
REMARK    2  A    between atoms: C_4  and  C_5
REMARK    3  A    between atoms: C_10  and  C_11
REMARK    4  A    between atoms: C_11  and  C_12
REMARK    5  A    between atoms: C_15  and  O_16
REMARK                            x       y       z     vdW  Elec       q    Type
REMARK                         _______ _______ _______ _____ _____    ______ ____
ROOT
ATOM      1  C   UNL     1      44.127   2.153  10.698  0.00  0.00    +0.000 C 
ATOM      2  C   UNL     1      44.888   3.064   9.774  0.00  0.00    +0.000 A 
ATOM      3  C   UNL     1      45.381   2.536   8.565  0.00  0.00    +0.000 A 
ATOM      4  C   UNL     1      46.102   3.368   7.720  0.00  0.00    +0.000 A 
ATOM      5  N   UNL     1      46.395   4.663   8.006  0.00  0.00    +0.000 NA
ATOM      6  C   UNL     1      45.889   5.141   9.166  0.00  0.00    +0.000 A 
ATOM      7  C   UNL     1      45.098   4.427  10.077  0.00  0.00    +0.000 A 
ENDROOT
BRANCH   4   8
ATOM      8  C   UNL     1      46.584   2.876   6.390  0.00  0.00    +0.000 C 
ATOM      9  N   UNL     1      46.775   3.862   5.458  0.00  0.00    +0.000 N 
ATOM     10  O   UNL     1      46.775   1.692   6.144  0.00  0.00    +0.000 OA
ATOM     11  H   UNL     1      46.579   4.820   5.711  0.00  0.00    +0.000 HD
ATOM     12  H   UNL     1      47.070   3.622   4.518  0.00  0.00    +0.000 HD
ENDBRANCH   4   8
BRANCH   7  13
ATOM     13  C   UNL     1      44.451   5.167  11.251  0.00  0.00    +0.000 C 
ATOM     14  C   UNL     1      42.947   4.965  11.451  0.00  0.00    +0.000 C 
ATOM     15  C   UNL     1      43.419   6.267  10.909  0.00  0.00    +0.000 C 
BRANCH  13  16
ATOM     16  C   UNL     1      45.312   5.582  12.449  0.00  0.00    +0.000 A 
ATOM     17  C   UNL     1      45.586   4.648  13.471  0.00  0.00    +0.000 A 
ATOM     18  C   UNL     1      46.699   4.784  14.301  0.00  0.00    +0.000 A 
ATOM     19  C   UNL     1      47.524   5.891  14.150  0.00  0.00    +0.000 A 
ATOM     20  C   UNL     1      47.169   6.908  13.269  0.00  0.00    +0.000 A 
ATOM     21  F   UNL     1      47.950   7.989  13.131  0.00  0.00    +0.000 F 
ATOM     22  C   UNL     1      46.063   6.769  12.437  0.00  0.00    +0.000 A 
BRANCH  19  23
ATOM     23  O   UNL     1      48.713   5.960  14.816  0.00  0.00    +0.000 OA
ATOM     24  H   UNL     1      48.770   5.197  15.415  0.00  0.00    +0.000 HD
ENDBRANCH  19  23
ENDBRANCH  13  16
ENDBRANCH   7  13
TORSDOF 4
ENDMDL
MODEL 5
REMARK VINA RESULT:    -6.306      3.215      6.295
REMARK INTER + INTRA:          -7.533
REMARK INTER:                  -8.075
REMARK INTRA:                   0.542
REMARK UNBOUND:                 0.062
REMARK  Name = 
REMARK  5 active torsions:
REMARK  status: ('A' for Active; 'I' for Inactive)
REMARK    1  A    between atoms: C_1  and  C_2
REMARK    2  A    between atoms: C_4  and  C_5
REMARK    3  A    between atoms: C_10  and  C_11
REMARK    4  A    between atoms: C_11  and  C_12
REMARK    5  A    between atoms: C_15  and  O_16
REMARK                            x       y       z     vdW  Elec       q    Type
REMARK                         _______ _______ _______ _____ _____    ______ ____
ROOT
ATOM      1  C   UNL     1      46.271   5.606   8.732  0.00  0.00    +0.000 C 
ATOM      2  C   UNL     1      45.900   4.157   8.883  0.00  0.00    +0.000 A 
ATOM      3  C   UNL     1      46.471   3.220   8.000  0.00  0.00    +0.000 A 
ATOM      4  C   UNL     1      46.115   1.885   8.123  0.00  0.00    +0.000 A 
ATOM      5  N   UNL     1      45.212   1.426   9.028  0.00  0.00    +0.000 NA
ATOM      6  C   UNL     1      44.698   2.350   9.871  0.00  0.00    +0.000 A 
ATOM      7  C   UNL     1      45.018   3.715   9.893  0.00  0.00    +0.000 A 
ENDROOT
BRANCH   4   8
ATOM      8  C   UNL     1      46.750   0.840   7.259  0.00  0.00    +0.000 C 
ATOM      9  N   UNL     1      46.644  -0.436   7.745  0.00  0.00    +0.000 N 
ATOM     10  O   UNL     1      47.332   1.100   6.213  0.00  0.00    +0.000 OA
ATOM     11  H   UNL     1      46.172  -0.589   8.624  0.00  0.00    +0.000 HD
ATOM     12  H   UNL     1      47.072  -1.208   7.244  0.00  0.00    +0.000 HD
ENDBRANCH   4   8
BRANCH   7  13
ATOM     13  C   UNL     1      44.487   4.593  11.031  0.00  0.00    +0.000 C 
ATOM     14  C   UNL     1      43.419   3.977  11.938  0.00  0.00    +0.000 C 
ATOM     15  C   UNL     1      43.002   5.017  10.961  0.00  0.00    +0.000 C 
BRANCH  13  16
ATOM     16  C   UNL     1      45.355   5.734  11.570  0.00  0.00    +0.000 A 
ATOM     17  C   UNL     1      44.928   7.071  11.416  0.00  0.00    +0.000 A 
ATOM     18  C   UNL     1      45.388   8.083  12.259  0.00  0.00    +0.000 A 
ATOM     19  C   UNL     1      46.324   7.774  13.238  0.00  0.00    +0.000 A 
ATOM     20  C   UNL     1      46.886   6.502  13.287  0.00  0.00    +0.000 A 
ATOM     21  F   UNL     1      47.805   6.202  14.216  0.00  0.00    +0.000 F 
ATOM     22  C   UNL     1      46.423   5.491  12.450  0.00  0.00    +0.000 A 
BRANCH  19  23
ATOM     23  O   UNL     1      46.654   8.694  14.190  0.00  0.00    +0.000 OA
ATOM     24  H   UNL     1      46.122   8.513  14.983  0.00  0.00    +0.000 HD
ENDBRANCH  19  23
ENDBRANCH  13  16
ENDBRANCH   7  13
TORSDOF 4
ENDMDL
MODEL 6
REMARK VINA RESULT:    -6.246      3.727      6.378
REMARK INTER + INTRA:          -7.461
REMARK INTER:                  -7.173
REMARK INTRA:                  -0.288
REMARK UNBOUND:                 0.062
REMARK  Name = 
REMARK  5 active torsions:
REMARK  status: ('A' for Active; 'I' for Inactive)
REMARK    1  A    between atoms: C_1  and  C_2
REMARK    2  A    between atoms: C_4  and  C_5
REMARK    3  A    between atoms: C_10  and  C_11
REMARK    4  A    between atoms: C_11  and  C_12
REMARK    5  A    between atoms: C_15  and  O_16
REMARK                            x       y       z     vdW  Elec       q    Type
REMARK                         _______ _______ _______ _____ _____    ______ ____
ROOT
ATOM      1  C   UNL     1      47.081   5.448  14.072  0.00  0.00    +0.000 C 
ATOM      2  C   UNL     1      46.266   5.397  12.809  0.00  0.00    +0.000 A 
ATOM      3  C   UNL     1      45.648   4.182  12.456  0.00  0.00    +0.000 A 
ATOM      4  C   UNL     1      44.913   4.126  11.280  0.00  0.00    +0.000 A 
ATOM      5  N   UNL     1      44.781   5.170  10.422  0.00  0.00    +0.000 NA
ATOM      6  C   UNL     1      45.372   6.326  10.802  0.00  0.00    +0.000 A 
ATOM      7  C   UNL     1      46.091   6.533  11.989  0.00  0.00    +0.000 A 
ENDROOT
BRANCH   4   8
ATOM      8  C   UNL     1      44.176   2.880  10.898  0.00  0.00    +0.000 C 
ATOM      9  N   UNL     1      44.763   2.163   9.889  0.00  0.00    +0.000 N 
ATOM     10  O   UNL     1      43.127   2.534  11.425  0.00  0.00    +0.000 OA
ATOM     11  H   UNL     1      45.617   2.508   9.475  0.00  0.00    +0.000 HD
ATOM     12  H   UNL     1      44.319   1.320   9.539  0.00  0.00    +0.000 HD
ENDBRANCH   4   8
BRANCH   7  13
ATOM     13  C   UNL     1      46.539   7.951  12.358  0.00  0.00    +0.000 C 
ATOM     14  C   UNL     1      45.595   8.763  13.247  0.00  0.00    +0.000 C 
ATOM     15  C   UNL     1      45.693   9.123  11.808  0.00  0.00    +0.000 C 
BRANCH  13  16
ATOM     16  C   UNL     1      48.031   8.299  12.339  0.00  0.00    +0.000 A 
ATOM     17  C   UNL     1      48.617   8.924  13.461  0.00  0.00    +0.000 A 
ATOM     18  C   UNL     1      49.988   8.837  13.708  0.00  0.00    +0.000 A 
ATOM     19  C   UNL     1      50.796   8.163  12.802  0.00  0.00    +0.000 A 
ATOM     20  C   UNL     1      50.261   7.697  11.604  0.00  0.00    +0.000 A 
ATOM     21  F   UNL     1      51.040   7.062  10.716  0.00  0.00    +0.000 F 
ATOM     22  C   UNL     1      48.894   7.778  11.361  0.00  0.00    +0.000 A 
BRANCH  19  23
ATOM     23  O   UNL     1      52.101   7.902  13.104  0.00  0.00    +0.000 OA
ATOM     24  H   UNL     1      52.209   7.976  14.067  0.00  0.00    +0.000 HD
ENDBRANCH  19  23
ENDBRANCH  13  16
ENDBRANCH   7  13
TORSDOF 4
ENDMDL
MODEL 7
REMARK VINA RESULT:    -5.670      3.040      3.798
REMARK INTER + INTRA:          -6.768
REMARK INTER:                  -6.841
REMARK INTRA:                   0.074
REMARK UNBOUND:                 0.062
REMARK  Name = 
REMARK  5 active torsions:
REMARK  status: ('A' for Active; 'I' for Inactive)
REMARK    1  A    between atoms: C_1  and  C_2
REMARK    2  A    between atoms: C_4  and  C_5
REMARK    3  A    between atoms: C_10  and  C_11
REMARK    4  A    between atoms: C_11  and  C_12
REMARK    5  A    between atoms: C_15  and  O_16
REMARK                            x       y       z     vdW  Elec       q    Type
REMARK                         _______ _______ _______ _____ _____    ______ ____
ROOT
ATOM      1  C   UNL     1      46.589   5.442  13.523  0.00  0.00    +0.000 C 
ATOM      2  C   UNL     1      46.274   6.781  12.915  0.00  0.00    +0.000 A 
ATOM      3  C   UNL     1      47.181   7.840  13.113  0.00  0.00    +0.000 A 
ATOM      4  C   UNL     1      46.882   9.082  12.571  0.00  0.00    +0.000 A 
ATOM      5  N   UNL     1      45.741   9.352  11.887  0.00  0.00    +0.000 NA
ATOM      6  C   UNL     1      44.902   8.308  11.700  0.00  0.00    +0.000 A 
ATOM      7  C   UNL     1      45.112   6.993  12.141  0.00  0.00    +0.000 A 
ENDROOT
BRANCH   4   8
ATOM      8  C   UNL     1      47.848  10.220  12.690  0.00  0.00    +0.000 C 
ATOM      9  N   UNL     1      48.245  10.493  13.973  0.00  0.00    +0.000 N 
ATOM     10  O   UNL     1      48.240  10.869  11.728  0.00  0.00    +0.000 OA
ATOM     11  H   UNL     1      47.872   9.940  14.730  0.00  0.00    +0.000 HD
ATOM     12  H   UNL     1      48.874  11.268  14.156  0.00  0.00    +0.000 HD
ENDBRANCH   4   8
BRANCH   7  13
ATOM     13  C   UNL     1      44.154   5.887  11.688  0.00  0.00    +0.000 C 
ATOM     14  C   UNL     1      42.683   6.275  11.515  0.00  0.00    +0.000 C 
ATOM     15  C   UNL     1      43.062   5.445  12.689  0.00  0.00    +0.000 C 
BRANCH  13  16
ATOM     16  C   UNL     1      44.703   4.684  10.914  0.00  0.00    +0.000 A 
ATOM     17  C   UNL     1      44.489   3.379  11.407  0.00  0.00    +0.000 A 
ATOM     18  C   UNL     1      44.526   2.268  10.563  0.00  0.00    +0.000 A 
ATOM     19  C   UNL     1      44.830   2.449   9.220  0.00  0.00    +0.000 A 
ATOM     20  C   UNL     1      45.217   3.703   8.757  0.00  0.00    +0.000 A 
ATOM     21  F   UNL     1      45.531   3.881   7.466  0.00  0.00    +0.000 F 
ATOM     22  C   UNL     1      45.174   4.811   9.597  0.00  0.00    +0.000 A 
BRANCH  19  23
ATOM     23  O   UNL     1      44.694   1.416   8.338  0.00  0.00    +0.000 OA
ATOM     24  H   UNL     1      45.464   0.831   8.436  0.00  0.00    +0.000 HD
ENDBRANCH  19  23
ENDBRANCH  13  16
ENDBRANCH   7  13
TORSDOF 4
ENDMDL
MODEL 8
REMARK VINA RESULT:    -5.613      4.611      5.765
REMARK INTER + INTRA:          -6.699
REMARK INTER:                  -6.566
REMARK INTRA:                  -0.133
REMARK UNBOUND:                 0.062
REMARK  Name = 
REMARK  5 active torsions:
REMARK  status: ('A' for Active; 'I' for Inactive)
REMARK    1  A    between atoms: C_1  and  C_2
REMARK    2  A    between atoms: C_4  and  C_5
REMARK    3  A    between atoms: C_10  and  C_11
REMARK    4  A    between atoms: C_11  and  C_12
REMARK    5  A    between atoms: C_15  and  O_16
REMARK                            x       y       z     vdW  Elec       q    Type
REMARK                         _______ _______ _______ _____ _____    ______ ____
ROOT
ATOM      1  C   UNL     1      48.889   7.914  15.188  0.00  0.00    +0.000 C 
ATOM      2  C   UNL     1      48.216   6.585  14.981  0.00  0.00    +0.000 A 
ATOM      3  C   UNL     1      48.312   5.616  15.998  0.00  0.00    +0.000 A 
ATOM      4  C   UNL     1      47.710   4.381  15.801  0.00  0.00    +0.000 A 
ATOM      5  N   UNL     1      47.058   4.033  14.662  0.00  0.00    +0.000 NA
ATOM      6  C   UNL     1      46.969   4.994  13.714  0.00  0.00    +0.000 A 
ATOM      7  C   UNL     1      47.479   6.297  13.811  0.00  0.00    +0.000 A 
ENDROOT
BRANCH   4   8
ATOM      8  C   UNL     1      47.720   3.344  16.881  0.00  0.00    +0.000 C 
ATOM      9  N   UNL     1      48.965   2.860  17.188  0.00  0.00    +0.000 N 
ATOM     10  O   UNL     1      46.704   2.944  17.434  0.00  0.00    +0.000 OA
ATOM     11  H   UNL     1      49.766   3.210  16.683  0.00  0.00    +0.000 HD
ATOM     12  H   UNL     1      49.069   2.130  17.885  0.00  0.00    +0.000 HD
ENDBRANCH   4   8
BRANCH   7  13
ATOM     13  C   UNL     1      47.132   7.322  12.727  0.00  0.00    +0.000 C 
ATOM     14  C   UNL     1      45.785   8.036  12.856  0.00  0.00    +0.000 C 
ATOM     15  C   UNL     1      45.935   6.996  11.805  0.00  0.00    +0.000 C 
BRANCH  13  16
ATOM     16  C   UNL     1      48.260   7.995  11.937  0.00  0.00    +0.000 A 
ATOM     17  C   UNL     1      48.274   9.400  11.799  0.00  0.00    +0.000 A 
ATOM     18  C   UNL     1      49.456  10.092  11.531  0.00  0.00    +0.000 A 
ATOM     19  C   UNL     1      50.632   9.376  11.347  0.00  0.00    +0.000 A 
ATOM     20  C   UNL     1      50.600   7.985  11.304  0.00  0.00    +0.000 A 
ATOM     21  F   UNL     1      51.728   7.288  11.107  0.00  0.00    +0.000 F 
ATOM     22  C   UNL     1      49.423   7.296  11.577  0.00  0.00    +0.000 A 
BRANCH  19  23
ATOM     23  O   UNL     1      51.829  10.026  11.268  0.00  0.00    +0.000 OA
ATOM     24  H   UNL     1      51.657  10.945  11.001  0.00  0.00    +0.000 HD
ENDBRANCH  19  23
ENDBRANCH  13  16
ENDBRANCH   7  13
TORSDOF 4
ENDMDL
MODEL 9
REMARK VINA RESULT:    -5.510      2.837      4.139
REMARK INTER + INTRA:          -6.575
REMARK INTER:                  -6.964
REMARK INTRA:                   0.389
REMARK UNBOUND:                 0.062
REMARK  Name = 
REMARK  5 active torsions:
REMARK  status: ('A' for Active; 'I' for Inactive)
REMARK    1  A    between atoms: C_1  and  C_2
REMARK    2  A    between atoms: C_4  and  C_5
REMARK    3  A    between atoms: C_10  and  C_11
REMARK    4  A    between atoms: C_11  and  C_12
REMARK    5  A    between atoms: C_15  and  O_16
REMARK                            x       y       z     vdW  Elec       q    Type
REMARK                         _______ _______ _______ _____ _____    ______ ____
ROOT
ATOM      1  C   UNL     1      49.137   8.057  11.404  0.00  0.00    +0.000 C 
ATOM      2  C   UNL     1      48.985   7.483  12.785  0.00  0.00    +0.000 A 
ATOM      3  C   UNL     1      50.053   7.622  13.693  0.00  0.00    +0.000 A 
ATOM      4  C   UNL     1      49.925   7.076  14.962  0.00  0.00    +0.000 A 
ATOM      5  N   UNL     1      48.836   6.377  15.375  0.00  0.00    +0.000 NA
ATOM      6  C   UNL     1      47.823   6.280  14.485  0.00  0.00    +0.000 A 
ATOM      7  C   UNL     1      47.800   6.835  13.197  0.00  0.00    +0.000 A 
ENDROOT
BRANCH   4   8
ATOM      8  C   UNL     1      51.001   7.260  15.987  0.00  0.00    +0.000 C 
ATOM      9  N   UNL     1      50.544   7.347  17.276  0.00  0.00    +0.000 N 
ATOM     10  O   UNL     1      52.188   7.346  15.702  0.00  0.00    +0.000 OA
ATOM     11  H   UNL     1      49.551   7.292  17.449  0.00  0.00    +0.000 HD
ATOM     12  H   UNL     1      51.197   7.505  18.036  0.00  0.00    +0.000 HD
ENDBRANCH   4   8
BRANCH   7  13
ATOM     13  C   UNL     1      46.503   6.792  12.383  0.00  0.00    +0.000 C 
ATOM     14  C   UNL     1      46.066   8.096  11.711  0.00  0.00    +0.000 C 
ATOM     15  C   UNL     1      45.314   7.631  12.906  0.00  0.00    +0.000 C 
BRANCH  13  16
ATOM     16  C   UNL     1      46.017   5.457  11.808  0.00  0.00    +0.000 A 
ATOM     17  C   UNL     1      45.979   4.312  12.632  0.00  0.00    +0.000 A 
ATOM     18  C   UNL     1      45.139   3.237  12.344  0.00  0.00    +0.000 A 
ATOM     19  C   UNL     1      44.362   3.275  11.194  0.00  0.00    +0.000 A 
ATOM     20  C   UNL     1      44.520   4.314  10.281  0.00  0.00    +0.000 A 
ATOM     21  F   UNL     1      43.787   4.349   9.159  0.00  0.00    +0.000 F 
ATOM     22  C   UNL     1      45.354   5.390  10.572  0.00  0.00    +0.000 A 
BRANCH  19  23
ATOM     23  O   UNL     1      43.400   2.331  10.980  0.00  0.00    +0.000 OA
ATOM     24  H   UNL     1      42.804   2.658  10.285  0.00  0.00    +0.000 HD
ENDBRANCH  19  23
ENDBRANCH  13  16
ENDBRANCH   7  13
TORSDOF 4
ENDMDL
