MODEL 1
REMARK VINA RESULT:    -7.875      0.000      0.000
REMARK INTER + INTRA:         -11.507
REMARK INTER:                 -10.637
REMARK INTRA:                  -0.870
REMARK UNBOUND:                -0.870
REMARK  Name = 
REMARK  7 active torsions:
REMARK  status: ('A' for Active; 'I' for Inactive)
REMARK    1  A    between atoms: C_1  and  C_2
REMARK    2  A    between atoms: C_2  and  C_3
REMARK    3  A    between atoms: C_2  and  C_14
REMARK    4  A    between atoms: C_3  and  N_4
REMARK    5  A    between atoms: C_8  and  C_9
REMARK    6  A    between atoms: C_18  and  O_19
REMARK    7  A    between atoms: O_19  and  C_20
REMARK                            x       y       z     vdW  Elec       q    Type
REMARK                         _______ _______ _______ _____ _____    ______ ____
ROOT
ATOM      1  C   UNL     1      43.718   4.566  10.649  0.00  0.00    +0.000 C 
ENDROOT
BRANCH   1   2
ATOM      2  N   UNL     1      44.034   3.156  10.407  0.00  0.00    +0.000 N 
ATOM      3  C   UNL     1      44.925   2.983   9.325  0.00  0.00    +0.000 A 
ATOM      4  C   UNL     1      45.324   1.696   8.926  0.00  0.00    +0.000 A 
ATOM      5  N   UNL     1      46.177   1.438   7.892  0.00  0.00    +0.000 NA
ATOM      6  C   UNL     1      46.642   2.551   7.261  0.00  0.00    +0.000 A 
ATOM      7  C   UNL     1      46.272   3.826   7.649  0.00  0.00    +0.000 A 
ATOM      8  N   UNL     1      45.420   4.061   8.680  0.00  0.00    +0.000 NA
ATOM      9  H   UNL     1      43.201   2.606  10.219  0.00  0.00    +0.000 HD
BRANCH   6  10
ATOM     10  C   UNL     1      47.574   2.387   6.110  0.00  0.00    +0.000 C 
ATOM     11  N   UNL     1      47.470   3.306   5.108  0.00  0.00    +0.000 N 
ATOM     12  O   UNL     1      48.399   1.481   6.064  0.00  0.00    +0.000 OA
ATOM     13  H   UNL     1      46.783   4.054   5.163  0.00  0.00    +0.000 HD
ATOM     14  H   UNL     1      48.086   3.238   4.308  0.00  0.00    +0.000 HD
ENDBRANCH   6  10
ENDBRANCH   1   2
BRANCH   1  16
ATOM     15  C   UNL     1      42.610   5.474  12.815  0.00  0.00    +0.000 C 
ATOM     16  C   UNL     1      43.808   4.900  12.118  0.00  0.00    +0.000 C 
BRANCH  16  17
ATOM     17  C   UNL     1      45.146   5.174  12.698  0.00  0.00    +0.000 A 
ATOM     18  C   UNL     1      45.803   6.380  12.440  0.00  0.00    +0.000 A 
ATOM     19  C   UNL     1      47.098   6.602  12.920  0.00  0.00    +0.000 A 
ATOM     20  C   UNL     1      47.745   5.636  13.693  0.00  0.00    +0.000 A 
ATOM     21  C   UNL     1      47.076   4.471  14.045  0.00  0.00    +0.000 A 
ATOM     22  C   UNL     1      45.799   4.230  13.510  0.00  0.00    +0.000 A 
BRANCH  21  23
ATOM     23  O   UNL     1      47.561   3.476  14.838  0.00  0.00    +0.000 OA
BRANCH  23  24
ATOM     24  C   UNL     1      47.706   3.689  16.237  0.00  0.00    +0.000 C 
ATOM     25  F   UNL     1      48.604   4.637  16.574  0.00  0.00    +0.000 F 
ATOM     26  F   UNL     1      46.508   4.064  16.741  0.00  0.00    +0.000 F 
ATOM     27  F   UNL     1      48.061   2.527  16.828  0.00  0.00    +0.000 F 
ENDBRANCH  23  24
ENDBRANCH  21  23
ENDBRANCH  16  17
ENDBRANCH   1  16
TORSDOF 6
ENDMDL
MODEL 2
REMARK VINA RESULT:    -7.620      1.334      1.631
REMARK INTER + INTRA:         -11.163
REMARK INTER:                 -10.337
REMARK INTRA:                  -0.827
REMARK UNBOUND:                -0.870
REMARK  Name = 
REMARK  7 active torsions:
REMARK  status: ('A' for Active; 'I' for Inactive)
REMARK    1  A    between atoms: C_1  and  C_2
REMARK    2  A    between atoms: C_2  and  C_3
REMARK    3  A    between atoms: C_2  and  C_14
REMARK    4  A    between atoms: C_3  and  N_4
REMARK    5  A    between atoms: C_8  and  C_9
REMARK    6  A    between atoms: C_18  and  O_19
REMARK    7  A    between atoms: O_19  and  C_20
REMARK                            x       y       z     vdW  Elec       q    Type
REMARK                         _______ _______ _______ _____ _____    ______ ____
ROOT
ATOM      1  C   UNL     1      43.619   4.536  10.755  0.00  0.00    +0.000 C 
ENDROOT
BRANCH   1   2
ATOM      2  N   UNL     1      43.909   3.124  10.488  0.00  0.00    +0.000 N 
ATOM      3  C   UNL     1      44.818   2.954   9.421  0.00  0.00    +0.000 A 
ATOM      4  C   UNL     1      45.197   1.668   9.003  0.00  0.00    +0.000 A 
ATOM      5  N   UNL     1      46.065   1.412   7.981  0.00  0.00    +0.000 NA
ATOM      6  C   UNL     1      46.568   2.528   7.384  0.00  0.00    +0.000 A 
ATOM      7  C   UNL     1      46.219   3.802   7.792  0.00  0.00    +0.000 A 
ATOM      8  N   UNL     1      45.351   4.034   8.810  0.00  0.00    +0.000 NA
ATOM      9  H   UNL     1      43.067   2.598  10.271  0.00  0.00    +0.000 HD
BRANCH   6  10
ATOM     10  C   UNL     1      47.520   2.367   6.249  0.00  0.00    +0.000 C 
ATOM     11  N   UNL     1      47.436   3.292   5.250  0.00  0.00    +0.000 N 
ATOM     12  O   UNL     1      48.344   1.460   6.214  0.00  0.00    +0.000 OA
ATOM     13  H   UNL     1      46.751   4.041   5.297  0.00  0.00    +0.000 HD
ATOM     14  H   UNL     1      48.066   3.226   4.461  0.00  0.00    +0.000 HD
ENDBRANCH   6  10
ENDBRANCH   1   2
BRANCH   1  16
ATOM     15  C   UNL     1      43.020   5.196  13.193  0.00  0.00    +0.000 C 
ATOM     16  C   UNL     1      44.058   4.930  12.143  0.00  0.00    +0.000 C 
BRANCH  16  17
ATOM     17  C   UNL     1      45.391   5.559  12.310  0.00  0.00    +0.000 A 
ATOM     18  C   UNL     1      45.882   6.456  11.356  0.00  0.00    +0.000 A 
ATOM     19  C   UNL     1      47.172   6.984  11.473  0.00  0.00    +0.000 A 
ATOM     20  C   UNL     1      47.980   6.650  12.561  0.00  0.00    +0.000 A 
ATOM     21  C   UNL     1      47.480   5.839  13.572  0.00  0.00    +0.000 A 
ATOM     22  C   UNL     1      46.206   5.267  13.418  0.00  0.00    +0.000 A 
BRANCH  21  23
ATOM     23  O   UNL     1      48.133   5.484  14.712  0.00  0.00    +0.000 OA
BRANCH  23  24
ATOM     24  C   UNL     1      48.623   6.488  15.593  0.00  0.00    +0.000 C 
ATOM     25  F   UNL     1      48.150   7.728  15.355  0.00  0.00    +0.000 F 
ATOM     26  F   UNL     1      48.277   6.156  16.858  0.00  0.00    +0.000 F 
ATOM     27  F   UNL     1      49.972   6.518  15.524  0.00  0.00    +0.000 F 
ENDBRANCH  23  24
ENDBRANCH  21  23
ENDBRANCH  16  17
ENDBRANCH   1  16
TORSDOF 6
ENDMDL
MODEL 3
REMARK VINA RESULT:    -7.469      5.018      8.165
REMARK INTER + INTRA:         -10.960
REMARK INTER:                 -10.468
REMARK INTRA:                  -0.491
REMARK UNBOUND:                -0.870
REMARK  Name = 
REMARK  7 active torsions:
REMARK  status: ('A' for Active; 'I' for Inactive)
REMARK    1  A    between atoms: C_1  and  C_2
REMARK    2  A    between atoms: C_2  and  C_3
REMARK    3  A    between atoms: C_2  and  C_14
REMARK    4  A    between atoms: C_3  and  N_4
REMARK    5  A    between atoms: C_8  and  C_9
REMARK    6  A    between atoms: C_18  and  O_19
REMARK    7  A    between atoms: O_19  and  C_20
REMARK                            x       y       z     vdW  Elec       q    Type
REMARK                         _______ _______ _______ _____ _____    ______ ____
ROOT
ATOM      1  C   UNL     1      45.599   5.472  13.144  0.00  0.00    +0.000 C 
ENDROOT
BRANCH   1   2
ATOM      2  N   UNL     1      46.781   6.175  13.654  0.00  0.00    +0.000 N 
ATOM      3  C   UNL     1      47.371   5.508  14.749  0.00  0.00    +0.000 A 
ATOM      4  C   UNL     1      48.501   6.045  15.389  0.00  0.00    +0.000 A 
ATOM      5  N   UNL     1      49.132   5.471  16.454  0.00  0.00    +0.000 NA
ATOM      6  C   UNL     1      48.581   4.293  16.859  0.00  0.00    +0.000 A 
ATOM      7  C   UNL     1      47.479   3.741  16.233  0.00  0.00    +0.000 A 
ATOM      8  N   UNL     1      46.864   4.331  15.175  0.00  0.00    +0.000 NA
ATOM      9  H   UNL     1      46.563   7.124  13.943  0.00  0.00    +0.000 HD
BRANCH   6  10
ATOM     10  C   UNL     1      49.184   3.581  18.021  0.00  0.00    +0.000 C 
ATOM     11  N   UNL     1      48.315   3.088  18.950  0.00  0.00    +0.000 N 
ATOM     12  O   UNL     1      50.396   3.435  18.138  0.00  0.00    +0.000 OA
ATOM     13  H   UNL     1      47.313   3.213  18.836  0.00  0.00    +0.000 HD
ATOM     14  H   UNL     1      48.679   2.593  19.754  0.00  0.00    +0.000 HD
ENDBRANCH   6  10
ENDBRANCH   1   2
BRANCH   1  16
ATOM     15  C   UNL     1      44.789   7.214  11.397  0.00  0.00    +0.000 C 
ATOM     16  C   UNL     1      45.320   5.846  11.709  0.00  0.00    +0.000 C 
BRANCH  16  17
ATOM     17  C   UNL     1      45.051   4.759  10.736  0.00  0.00    +0.000 A 
ATOM     18  C   UNL     1      44.345   3.615  11.121  0.00  0.00    +0.000 A 
ATOM     19  C   UNL     1      44.165   2.555  10.227  0.00  0.00    +0.000 A 
ATOM     20  C   UNL     1      44.658   2.634   8.923  0.00  0.00    +0.000 A 
ATOM     21  C   UNL     1      45.276   3.799   8.487  0.00  0.00    +0.000 A 
ATOM     22  C   UNL     1      45.506   4.835   9.408  0.00  0.00    +0.000 A 
BRANCH  21  23
ATOM     23  O   UNL     1      45.749   4.035   7.232  0.00  0.00    +0.000 OA
BRANCH  23  24
ATOM     24  C   UNL     1      46.702   3.150   6.654  0.00  0.00    +0.000 C 
ATOM     25  F   UNL     1      46.399   1.841   6.766  0.00  0.00    +0.000 F 
ATOM     26  F   UNL     1      46.807   3.434   5.335  0.00  0.00    +0.000 F 
ATOM     27  F   UNL     1      47.908   3.365   7.224  0.00  0.00    +0.000 F 
ENDBRANCH  23  24
ENDBRANCH  21  23
ENDBRANCH  16  17
ENDBRANCH   1  16
TORSDOF 6
ENDMDL
MODEL 4
REMARK VINA RESULT:    -7.260      2.642      3.210
REMARK INTER + INTRA:         -10.676
REMARK INTER:                  -9.726
REMARK INTRA:                  -0.951
REMARK UNBOUND:                -0.870
REMARK  Name = 
REMARK  7 active torsions:
REMARK  status: ('A' for Active; 'I' for Inactive)
REMARK    1  A    between atoms: C_1  and  C_2
REMARK    2  A    between atoms: C_2  and  C_3
REMARK    3  A    between atoms: C_2  and  C_14
REMARK    4  A    between atoms: C_3  and  N_4
REMARK    5  A    between atoms: C_8  and  C_9
REMARK    6  A    between atoms: C_18  and  O_19
REMARK    7  A    between atoms: O_19  and  C_20
REMARK                            x       y       z     vdW  Elec       q    Type
REMARK                         _______ _______ _______ _____ _____    ______ ____
ROOT
ATOM      1  C   UNL     1      43.616   4.684  10.662  0.00  0.00    +0.000 C 
ENDROOT
BRANCH   1   2
ATOM      2  N   UNL     1      43.877   3.264  10.413  0.00  0.00    +0.000 N 
ATOM      3  C   UNL     1      44.807   3.063   9.370  0.00  0.00    +0.000 A 
ATOM      4  C   UNL     1      45.165   1.764   8.970  0.00  0.00    +0.000 A 
ATOM      5  N   UNL     1      46.050   1.480   7.972  0.00  0.00    +0.000 NA
ATOM      6  C   UNL     1      46.594   2.578   7.379  0.00  0.00    +0.000 A 
ATOM      7  C   UNL     1      46.267   3.864   7.769  0.00  0.00    +0.000 A 
ATOM      8  N   UNL     1      45.381   4.125   8.764  0.00  0.00    +0.000 NA
ATOM      9  H   UNL     1      43.028   2.756  10.179  0.00  0.00    +0.000 HD
BRANCH   6  10
ATOM     10  C   UNL     1      47.570   2.385   6.269  0.00  0.00    +0.000 C 
ATOM     11  N   UNL     1      47.423   3.198   5.183  0.00  0.00    +0.000 N 
ATOM     12  O   UNL     1      48.464   1.548   6.325  0.00  0.00    +0.000 OA
ATOM     13  H   UNL     1      46.679   3.890   5.154  0.00  0.00    +0.000 HD
ATOM     14  H   UNL     1      48.066   3.107   4.407  0.00  0.00    +0.000 HD
ENDBRANCH   6  10
ENDBRANCH   1   2
BRANCH   1  16
ATOM     15  C   UNL     1      42.548   5.581  12.852  0.00  0.00    +0.000 C 
ATOM     16  C   UNL     1      43.733   5.011  12.130  0.00  0.00    +0.000 C 
BRANCH  16  17
ATOM     17  C   UNL     1      45.081   5.281  12.687  0.00  0.00    +0.000 A 
ATOM     18  C   UNL     1      45.829   4.256  13.275  0.00  0.00    +0.000 A 
ATOM     19  C   UNL     1      47.063   4.528  13.874  0.00  0.00    +0.000 A 
ATOM     20  C   UNL     1      47.586   5.823  13.865  0.00  0.00    +0.000 A 
ATOM     21  C   UNL     1      46.909   6.838  13.202  0.00  0.00    +0.000 A 
ATOM     22  C   UNL     1      45.643   6.569  12.655  0.00  0.00    +0.000 A 
BRANCH  21  23
ATOM     23  O   UNL     1      47.330   8.125  13.064  0.00  0.00    +0.000 OA
BRANCH  23  24
ATOM     24  C   UNL     1      48.279   8.460  12.057  0.00  0.00    +0.000 C 
ATOM     25  F   UNL     1      49.516   8.737  12.517  0.00  0.00    +0.000 F 
ATOM     26  F   UNL     1      48.385   7.416  11.204  0.00  0.00    +0.000 F 
ATOM     27  F   UNL     1      47.827   9.525  11.360  0.00  0.00    +0.000 F 
ENDBRANCH  23  24
ENDBRANCH  21  23
ENDBRANCH  16  17
ENDBRANCH   1  16
TORSDOF 6
ENDMDL
MODEL 5
REMARK VINA RESULT:    -7.241      4.559      7.611
REMARK INTER + INTRA:         -10.651
REMARK INTER:                  -9.780
REMARK INTRA:                  -0.871
REMARK UNBOUND:                -0.870
REMARK  Name = 
REMARK  7 active torsions:
REMARK  status: ('A' for Active; 'I' for Inactive)
REMARK    1  A    between atoms: C_1  and  C_2
REMARK    2  A    between atoms: C_2  and  C_3
REMARK    3  A    between atoms: C_2  and  C_14
REMARK    4  A    between atoms: C_3  and  N_4
REMARK    5  A    between atoms: C_8  and  C_9
REMARK    6  A    between atoms: C_18  and  O_19
REMARK    7  A    between atoms: O_19  and  C_20
REMARK                            x       y       z     vdW  Elec       q    Type
REMARK                         _______ _______ _______ _____ _____    ______ ____
ROOT
ATOM      1  C   UNL     1      47.662   6.630  12.370  0.00  0.00    +0.000 C 
ENDROOT
BRANCH   1   2
ATOM      2  N   UNL     1      48.269   7.035  13.641  0.00  0.00    +0.000 N 
ATOM      3  C   UNL     1      48.084   6.072  14.657  0.00  0.00    +0.000 A 
ATOM      4  C   UNL     1      48.576   6.296  15.954  0.00  0.00    +0.000 A 
ATOM      5  N   UNL     1      48.438   5.423  16.994  0.00  0.00    +0.000 NA
ATOM      6  C   UNL     1      47.783   4.274  16.674  0.00  0.00    +0.000 A 
ATOM      7  C   UNL     1      47.305   4.028  15.399  0.00  0.00    +0.000 A 
ATOM      8  N   UNL     1      47.450   4.912  14.379  0.00  0.00    +0.000 NA
ATOM      9  H   UNL     1      47.898   7.920  13.975  0.00  0.00    +0.000 HD
BRANCH   6  10
ATOM     10  C   UNL     1      47.568   3.251  17.736  0.00  0.00    +0.000 C 
ATOM     11  N   UNL     1      48.485   3.220  18.745  0.00  0.00    +0.000 N 
ATOM     12  O   UNL     1      46.614   2.481  17.715  0.00  0.00    +0.000 OA
ATOM     13  H   UNL     1      49.268   3.868  18.750  0.00  0.00    +0.000 HD
ATOM     14  H   UNL     1      48.378   2.545  19.491  0.00  0.00    +0.000 HD
ENDBRANCH   6  10
ENDBRANCH   1   2
BRANCH   1  16
ATOM     15  C   UNL     1      45.896   8.454  12.915  0.00  0.00    +0.000 C 
ATOM     16  C   UNL     1      46.255   7.161  12.245  0.00  0.00    +0.000 C 
BRANCH  16  17
ATOM     17  C   UNL     1      45.162   6.200  11.959  0.00  0.00    +0.000 A 
ATOM     18  C   UNL     1      44.166   5.949  12.908  0.00  0.00    +0.000 A 
ATOM     19  C   UNL     1      43.183   4.983  12.671  0.00  0.00    +0.000 A 
ATOM     20  C   UNL     1      43.159   4.275  11.468  0.00  0.00    +0.000 A 
ATOM     21  C   UNL     1      44.078   4.575  10.470  0.00  0.00    +0.000 A 
ATOM     22  C   UNL     1      45.097   5.504  10.739  0.00  0.00    +0.000 A 
BRANCH  21  23
ATOM     23  O   UNL     1      44.133   4.008   9.233  0.00  0.00    +0.000 OA
BRANCH  23  24
ATOM     24  C   UNL     1      44.807   2.769   9.048  0.00  0.00    +0.000 C 
ATOM     25  F   UNL     1      44.000   1.719   8.794  0.00  0.00    +0.000 F 
ATOM     26  F   UNL     1      45.656   2.894   8.002  0.00  0.00    +0.000 F 
ATOM     27  F   UNL     1      45.540   2.495  10.150  0.00  0.00    +0.000 F 
ENDBRANCH  23  24
ENDBRANCH  21  23
ENDBRANCH  16  17
ENDBRANCH   1  16
TORSDOF 6
ENDMDL
MODEL 6
REMARK VINA RESULT:    -6.808      2.948      3.371
REMARK INTER + INTRA:         -10.066
REMARK INTER:                  -9.312
REMARK INTRA:                  -0.755
REMARK UNBOUND:                -0.870
REMARK  Name = 
REMARK  7 active torsions:
REMARK  status: ('A' for Active; 'I' for Inactive)
REMARK    1  A    between atoms: C_1  and  C_2
REMARK    2  A    between atoms: C_2  and  C_3
REMARK    3  A    between atoms: C_2  and  C_14
REMARK    4  A    between atoms: C_3  and  N_4
REMARK    5  A    between atoms: C_8  and  C_9
REMARK    6  A    between atoms: C_18  and  O_19
REMARK    7  A    between atoms: O_19  and  C_20
REMARK                            x       y       z     vdW  Elec       q    Type
REMARK                         _______ _______ _______ _____ _____    ______ ____
ROOT
ATOM      1  C   UNL     1      43.568   4.598  10.790  0.00  0.00    +0.000 C 
ENDROOT
BRANCH   1   2
ATOM      2  N   UNL     1      44.389   5.211   9.742  0.00  0.00    +0.000 N 
ATOM      3  C   UNL     1      45.145   4.258   9.025  0.00  0.00    +0.000 A 
ATOM      4  C   UNL     1      46.014   4.660   7.997  0.00  0.00    +0.000 A 
ATOM      5  N   UNL     1      46.783   3.809   7.258  0.00  0.00    +0.000 NA
ATOM      6  C   UNL     1      46.635   2.496   7.587  0.00  0.00    +0.000 A 
ATOM      7  C   UNL     1      45.775   2.080   8.586  0.00  0.00    +0.000 A 
ATOM      8  N   UNL     1      45.020   2.944   9.311  0.00  0.00    +0.000 NA
ATOM      9  H   UNL     1      45.030   5.904  10.117  0.00  0.00    +0.000 HD
BRANCH   6  10
ATOM     10  C   UNL     1      47.435   1.477   6.849  0.00  0.00    +0.000 C 
ATOM     11  N   UNL     1      48.509   1.939   6.148  0.00  0.00    +0.000 N 
ATOM     12  O   UNL     1      47.152   0.285   6.875  0.00  0.00    +0.000 OA
ATOM     13  H   UNL     1      48.733   2.931   6.140  0.00  0.00    +0.000 HD
ATOM     14  H   UNL     1      49.085   1.283   5.635  0.00  0.00    +0.000 HD
ENDBRANCH   6  10
ENDBRANCH   1   2
BRANCH   1  16
ATOM     15  C   UNL     1      43.660   3.949  13.302  0.00  0.00    +0.000 C 
ATOM     16  C   UNL     1      44.243   4.690  12.135  0.00  0.00    +0.000 C 
BRANCH  16  17
ATOM     17  C   UNL     1      45.093   5.872  12.419  0.00  0.00    +0.000 A 
ATOM     18  C   UNL     1      44.517   7.118  12.685  0.00  0.00    +0.000 A 
ATOM     19  C   UNL     1      45.319   8.249  12.870  0.00  0.00    +0.000 A 
ATOM     20  C   UNL     1      46.711   8.147  12.825  0.00  0.00    +0.000 A 
ATOM     21  C   UNL     1      47.309   6.904  12.660  0.00  0.00    +0.000 A 
ATOM     22  C   UNL     1      46.496   5.784  12.417  0.00  0.00    +0.000 A 
BRANCH  21  23
ATOM     23  O   UNL     1      48.647   6.652  12.657  0.00  0.00    +0.000 OA
BRANCH  23  24
ATOM     24  C   UNL     1      49.536   7.543  11.994  0.00  0.00    +0.000 C 
ATOM     25  F   UNL     1      49.922   8.606  12.729  0.00  0.00    +0.000 F 
ATOM     26  F   UNL     1      50.651   6.860  11.649  0.00  0.00    +0.000 F 
ATOM     27  F   UNL     1      48.953   7.989  10.860  0.00  0.00    +0.000 F 
ENDBRANCH  23  24
ENDBRANCH  21  23
ENDBRANCH  16  17
ENDBRANCH   1  16
TORSDOF 6
ENDMDL
MODEL 7
REMARK VINA RESULT:    -6.773      4.327      5.134
REMARK INTER + INTRA:         -10.019
REMARK INTER:                  -9.708
REMARK INTRA:                  -0.311
REMARK UNBOUND:                -0.870
REMARK  Name = 
REMARK  7 active torsions:
REMARK  status: ('A' for Active; 'I' for Inactive)
REMARK    1  A    between atoms: C_1  and  C_2
REMARK    2  A    between atoms: C_2  and  C_3
REMARK    3  A    between atoms: C_2  and  C_14
REMARK    4  A    between atoms: C_3  and  N_4
REMARK    5  A    between atoms: C_8  and  C_9
REMARK    6  A    between atoms: C_18  and  O_19
REMARK    7  A    between atoms: O_19  and  C_20
REMARK                            x       y       z     vdW  Elec       q    Type
REMARK                         _______ _______ _______ _____ _____    ______ ____
ROOT
ATOM      1  C   UNL     1      43.559   4.440  10.864  0.00  0.00    +0.000 C 
ENDROOT
BRANCH   1   2
ATOM      2  N   UNL     1      44.333   5.049   9.777  0.00  0.00    +0.000 N 
ATOM      3  C   UNL     1      45.086   4.098   9.055  0.00  0.00    +0.000 A 
ATOM      4  C   UNL     1      45.912   4.498   7.991  0.00  0.00    +0.000 A 
ATOM      5  N   UNL     1      46.675   3.649   7.244  0.00  0.00    +0.000 NA
ATOM      6  C   UNL     1      46.566   2.340   7.603  0.00  0.00    +0.000 A 
ATOM      7  C   UNL     1      45.747   1.925   8.637  0.00  0.00    +0.000 A 
ATOM      8  N   UNL     1      44.998   2.788   9.370  0.00  0.00    +0.000 NA
ATOM      9  H   UNL     1      44.970   5.763  10.118  0.00  0.00    +0.000 HD
BRANCH   6  10
ATOM     10  C   UNL     1      47.363   1.324   6.859  0.00  0.00    +0.000 C 
ATOM     11  N   UNL     1      48.416   1.792   6.129  0.00  0.00    +0.000 N 
ATOM     12  O   UNL     1      47.097   0.127   6.904  0.00  0.00    +0.000 OA
ATOM     13  H   UNL     1      48.626   2.786   6.106  0.00  0.00    +0.000 HD
ATOM     14  H   UNL     1      48.989   1.138   5.611  0.00  0.00    +0.000 HD
ENDBRANCH   6  10
ENDBRANCH   1   2
BRANCH   1  16
ATOM     15  C   UNL     1      42.954   4.807  13.362  0.00  0.00    +0.000 C 
ATOM     16  C   UNL     1      43.794   5.158  12.169  0.00  0.00    +0.000 C 
BRANCH  16  17
ATOM     17  C   UNL     1      44.420   6.503  12.132  0.00  0.00    +0.000 A 
ATOM     18  C   UNL     1      45.533   6.794  12.927  0.00  0.00    +0.000 A 
ATOM     19  C   UNL     1      46.070   8.086  12.954  0.00  0.00    +0.000 A 
ATOM     20  C   UNL     1      45.525   9.098  12.161  0.00  0.00    +0.000 A 
ATOM     21  C   UNL     1      44.483   8.809  11.290  0.00  0.00    +0.000 A 
ATOM     22  C   UNL     1      43.911   7.525  11.313  0.00  0.00    +0.000 A 
BRANCH  21  23
ATOM     23  O   UNL     1      43.899   9.680  10.421  0.00  0.00    +0.000 OA
BRANCH  23  24
ATOM     24  C   UNL     1      42.639  10.262  10.738  0.00  0.00    +0.000 C 
ATOM     25  F   UNL     1      41.620   9.384  10.836  0.00  0.00    +0.000 F 
ATOM     26  F   UNL     1      42.746  10.897  11.927  0.00  0.00    +0.000 F 
ATOM     27  F   UNL     1      42.329  11.183   9.799  0.00  0.00    +0.000 F 
ENDBRANCH  23  24
ENDBRANCH  21  23
ENDBRANCH  16  17
ENDBRANCH   1  16
TORSDOF 6
ENDMDL
MODEL 8
REMARK VINA RESULT:    -6.707      4.841      7.085
REMARK INTER + INTRA:          -9.930
REMARK INTER:                  -9.331
REMARK INTRA:                  -0.599
REMARK UNBOUND:                -0.870
REMARK  Name = 
REMARK  7 active torsions:
REMARK  status: ('A' for Active; 'I' for Inactive)
REMARK    1  A    between atoms: C_1  and  C_2
REMARK    2  A    between atoms: C_2  and  C_3
REMARK    3  A    between atoms: C_2  and  C_14
REMARK    4  A    between atoms: C_3  and  N_4
REMARK    5  A    between atoms: C_8  and  C_9
REMARK    6  A    between atoms: C_18  and  O_19
REMARK    7  A    between atoms: O_19  and  C_20
REMARK                            x       y       z     vdW  Elec       q    Type
REMARK                         _______ _______ _______ _____ _____    ______ ____
ROOT
ATOM      1  C   UNL     1      45.246   4.768  12.903  0.00  0.00    +0.000 C 
ENDROOT
BRANCH   1   2
ATOM      2  N   UNL     1      44.833   6.172  12.990  0.00  0.00    +0.000 N 
ATOM      3  C   UNL     1      45.877   7.062  12.652  0.00  0.00    +0.000 A 
ATOM      4  C   UNL     1      45.677   8.451  12.702  0.00  0.00    +0.000 A 
ATOM      5  N   UNL     1      46.628   9.381  12.397  0.00  0.00    +0.000 NA
ATOM      6  C   UNL     1      47.822   8.850  12.013  0.00  0.00    +0.000 A 
ATOM      7  C   UNL     1      48.034   7.485  11.944  0.00  0.00    +0.000 A 
ATOM      8  N   UNL     1      47.073   6.578  12.254  0.00  0.00    +0.000 NA
ATOM      9  H   UNL     1      44.502   6.414  13.919  0.00  0.00    +0.000 HD
BRANCH   6  10
ATOM     10  C   UNL     1      48.939   9.774  11.665  0.00  0.00    +0.000 C 
ATOM     11  N   UNL     1      48.595  10.927  11.023  0.00  0.00    +0.000 N 
ATOM     12  O   UNL     1      50.105   9.521  11.945  0.00  0.00    +0.000 OA
ATOM     13  H   UNL     1      47.623  11.125  10.802  0.00  0.00    +0.000 HD
ATOM     14  H   UNL     1      49.320  11.588  10.771  0.00  0.00    +0.000 HD
ENDBRANCH   6  10
ENDBRANCH   1   2
BRANCH   1  16
ATOM     15  C   UNL     1      43.368   3.055  12.379  0.00  0.00    +0.000 C 
ATOM     16  C   UNL     1      44.413   4.017  11.896  0.00  0.00    +0.000 C 
BRANCH  16  17
ATOM     17  C   UNL     1      44.964   3.815  10.533  0.00  0.00    +0.000 A 
ATOM     18  C   UNL     1      45.284   4.909   9.724  0.00  0.00    +0.000 A 
ATOM     19  C   UNL     1      45.725   4.718   8.410  0.00  0.00    +0.000 A 
ATOM     20  C   UNL     1      45.886   3.430   7.895  0.00  0.00    +0.000 A 
ATOM     21  C   UNL     1      45.669   2.327   8.711  0.00  0.00    +0.000 A 
ATOM     22  C   UNL     1      45.170   2.527  10.009  0.00  0.00    +0.000 A 
BRANCH  21  23
ATOM     23  O   UNL     1      45.843   1.023   8.359  0.00  0.00    +0.000 OA
BRANCH  23  24
ATOM     24  C   UNL     1      46.771   0.681   7.336  0.00  0.00    +0.000 C 
ATOM     25  F   UNL     1      46.522   1.244   6.137  0.00  0.00    +0.000 F 
ATOM     26  F   UNL     1      48.005   1.077   7.725  0.00  0.00    +0.000 F 
ATOM     27  F   UNL     1      46.792  -0.662   7.188  0.00  0.00    +0.000 F 
ENDBRANCH  23  24
ENDBRANCH  21  23
ENDBRANCH  16  17
ENDBRANCH   1  16
TORSDOF 6
ENDMDL
MODEL 9
REMARK VINA RESULT:    -6.294      3.115      4.751
REMARK INTER + INTRA:          -9.371
REMARK INTER:                  -8.522
REMARK INTRA:                  -0.850
REMARK UNBOUND:                -0.870
REMARK  Name = 
REMARK  7 active torsions:
REMARK  status: ('A' for Active; 'I' for Inactive)
REMARK    1  A    between atoms: C_1  and  C_2
REMARK    2  A    between atoms: C_2  and  C_3
REMARK    3  A    between atoms: C_2  and  C_14
REMARK    4  A    between atoms: C_3  and  N_4
REMARK    5  A    between atoms: C_8  and  C_9
REMARK    6  A    between atoms: C_18  and  O_19
REMARK    7  A    between atoms: O_19  and  C_20
REMARK                            x       y       z     vdW  Elec       q    Type
REMARK                         _______ _______ _______ _____ _____    ______ ____
ROOT
ATOM      1  C   UNL     1      46.914   8.524  12.222  0.00  0.00    +0.000 C 
ENDROOT
BRANCH   1   2
ATOM      2  N   UNL     1      45.889   7.878  13.048  0.00  0.00    +0.000 N 
ATOM      3  C   UNL     1      45.406   6.684  12.469  0.00  0.00    +0.000 A 
ATOM      4  C   UNL     1      44.400   5.938  13.104  0.00  0.00    +0.000 A 
ATOM      5  N   UNL     1      43.873   4.778  12.616  0.00  0.00    +0.000 NA
ATOM      6  C   UNL     1      44.420   4.371  11.437  0.00  0.00    +0.000 A 
ATOM      7  C   UNL     1      45.422   5.084  10.804  0.00  0.00    +0.000 A 
ATOM      8  N   UNL     1      45.930   6.238  11.307  0.00  0.00    +0.000 NA
ATOM      9  H   UNL     1      45.096   8.490  13.216  0.00  0.00    +0.000 HD
BRANCH   6  10
ATOM     10  C   UNL     1      43.914   3.119  10.806  0.00  0.00    +0.000 C 
ATOM     11  N   UNL     1      43.305   2.224  11.635  0.00  0.00    +0.000 N 
ATOM     12  O   UNL     1      44.029   2.903   9.604  0.00  0.00    +0.000 OA
ATOM     13  H   UNL     1      43.214   2.419  12.628  0.00  0.00    +0.000 HD
ATOM     14  H   UNL     1      42.941   1.361  11.250  0.00  0.00    +0.000 HD
ENDBRANCH   6  10
ENDBRANCH   1   2
BRANCH   1  16
ATOM     15  C   UNL     1      49.388   7.837  11.831  0.00  0.00    +0.000 C 
ATOM     16  C   UNL     1      48.296   8.264  12.768  0.00  0.00    +0.000 C 
BRANCH  16  17
ATOM     17  C   UNL     1      48.434   7.906  14.201  0.00  0.00    +0.000 A 
ATOM     18  C   UNL     1      48.504   8.901  15.181  0.00  0.00    +0.000 A 
ATOM     19  C   UNL     1      48.717   8.565  16.522  0.00  0.00    +0.000 A 
ATOM     20  C   UNL     1      48.829   7.228  16.911  0.00  0.00    +0.000 A 
ATOM     21  C   UNL     1      48.664   6.219  15.970  0.00  0.00    +0.000 A 
ATOM     22  C   UNL     1      48.510   6.566  14.618  0.00  0.00    +0.000 A 
BRANCH  21  23
ATOM     23  O   UNL     1      48.689   4.880  16.219  0.00  0.00    +0.000 OA
BRANCH  23  24
ATOM     24  C   UNL     1      47.476   4.182  16.473  0.00  0.00    +0.000 C 
ATOM     25  F   UNL     1      47.618   2.854  16.660  0.00  0.00    +0.000 F 
ATOM     26  F   UNL     1      46.912   4.693  17.592  0.00  0.00    +0.000 F 
ATOM     27  F   UNL     1      46.623   4.386  15.446  0.00  0.00    +0.000 F 
ENDBRANCH  23  24
ENDBRANCH  21  23
ENDBRANCH  16  17
ENDBRANCH   1  16
TORSDOF 6
ENDMDL
