MODEL 1
REMARK VINA RESULT:    -6.835      0.000      0.000
REMARK INTER + INTRA:          -9.182
REMARK INTER:                  -8.633
REMARK INTRA:                  -0.549
REMARK UNBOUND:                -0.549
REMARK  Name = 
REMARK  7 active torsions:
REMARK  status: ('A' for Active; 'I' for Inactive)
REMARK    1  A    between atoms: C_1  and  O_2
REMARK    2  A    between atoms: O_2  and  C_3
REMARK    3  A    between atoms: C_7  and  C_8
REMARK    4  A    between atoms: C_8  and  N_9
REMARK    5  A    between atoms: C_15  and  C_16
REMARK    6  A    between atoms: C_16  and  O_18
REMARK    7  A    between atoms: C_21  and  C_22
REMARK                            x       y       z     vdW  Elec       q    Type
REMARK                         _______ _______ _______ _____ _____    ______ ____
ROOT
ATOM      1  N   UNL     1      45.685   6.705  12.404  0.00  0.00    +0.000 N 
ATOM      2  C   UNL     1      46.093   7.952  11.984  0.00  0.00    +0.000 A 
ATOM      3  C   UNL     1      47.208   8.306  12.705  0.00  0.00    +0.000 A 
ATOM      4  C   UNL     1      47.489   7.249  13.608  0.00  0.00    +0.000 A 
ATOM      5  C   UNL     1      48.443   7.082  14.632  0.00  0.00    +0.000 A 
ATOM      6  C   UNL     1      48.429   5.917  15.408  0.00  0.00    +0.000 A 
ATOM      7  C   UNL     1      47.508   4.898  15.146  0.00  0.00    +0.000 A 
ATOM      8  C   UNL     1      46.552   5.048  14.126  0.00  0.00    +0.000 A 
ATOM      9  C   UNL     1      46.546   6.240  13.382  0.00  0.00    +0.000 A 
ENDROOT
BRANCH   7  10
ATOM     10  C   UNL     1      47.442   3.659  15.970  0.00  0.00    +0.000 C 
ATOM     11  O   UNL     1      46.695   3.539  16.926  0.00  0.00    +0.000 OA
BRANCH  10  12
ATOM     12  O   UNL     1      48.261   2.667  15.559  0.00  0.00    +0.000 OA
ATOM     13  H   UNL     1      48.564   2.062  16.257  0.00  0.00    +0.000 HD
ENDBRANCH  10  12
ENDBRANCH   7  10
BRANCH   1  14
ATOM     14  C   UNL     1      44.367   6.158  12.081  0.00  0.00    +0.000 C 
BRANCH  14  19
ATOM     15  C   UNL     1      44.432   3.122   9.851  0.00  0.00    +0.000 A 
ATOM     16  N   UNL     1      43.692   2.261  10.569  0.00  0.00    +0.000 NA
ATOM     17  C   UNL     1      43.316   2.694  11.772  0.00  0.00    +0.000 A 
ATOM     18  N   UNL     1      43.570   3.905  12.277  0.00  0.00    +0.000 NA
ATOM     19  C   UNL     1      44.325   4.756  11.535  0.00  0.00    +0.000 A 
ATOM     20  C   UNL     1      44.839   4.376  10.300  0.00  0.00    +0.000 A 
ATOM     21  C   UNL     1      45.701   5.238   9.432  0.00  0.00    +0.000 C 
BRANCH  15  23
ATOM     22  C   UNL     1      45.756   1.750   8.475  0.00  0.00    +0.000 C 
ATOM     23  O   UNL     1      44.767   2.775   8.554  0.00  0.00    +0.000 OA
ENDBRANCH  15  23
ENDBRANCH  14  19
ENDBRANCH   1  14
TORSDOF 5
ENDMDL
MODEL 2
REMARK VINA RESULT:    -6.810      3.193      4.724
REMARK INTER + INTRA:          -9.151
REMARK INTER:                  -8.548
REMARK INTRA:                  -0.603
REMARK UNBOUND:                -0.549
REMARK  Name = 
REMARK  7 active torsions:
REMARK  status: ('A' for Active; 'I' for Inactive)
REMARK    1  A    between atoms: C_1  and  O_2
REMARK    2  A    between atoms: O_2  and  C_3
REMARK    3  A    between atoms: C_7  and  C_8
REMARK    4  A    between atoms: C_8  and  N_9
REMARK    5  A    between atoms: C_15  and  C_16
REMARK    6  A    between atoms: C_16  and  O_18
REMARK    7  A    between atoms: C_21  and  C_22
REMARK                            x       y       z     vdW  Elec       q    Type
REMARK                         _______ _______ _______ _____ _____    ______ ____
ROOT
ATOM      1  N   UNL     1      44.812   5.255  11.484  0.00  0.00    +0.000 N 
ATOM      2  C   UNL     1      45.572   4.368  12.214  0.00  0.00    +0.000 A 
ATOM      3  C   UNL     1      46.375   5.086  13.066  0.00  0.00    +0.000 A 
ATOM      4  C   UNL     1      46.112   6.463  12.845  0.00  0.00    +0.000 A 
ATOM      5  C   UNL     1      46.676   7.648  13.358  0.00  0.00    +0.000 A 
ATOM      6  C   UNL     1      46.229   8.888  12.887  0.00  0.00    +0.000 A 
ATOM      7  C   UNL     1      45.194   8.962  11.949  0.00  0.00    +0.000 A 
ATOM      8  C   UNL     1      44.618   7.789  11.430  0.00  0.00    +0.000 A 
ATOM      9  C   UNL     1      45.106   6.549  11.876  0.00  0.00    +0.000 A 
ENDROOT
BRANCH   7  10
ATOM     10  C   UNL     1      44.712  10.262  11.402  0.00  0.00    +0.000 C 
ATOM     11  O   UNL     1      44.048  10.345  10.384  0.00  0.00    +0.000 OA
BRANCH  10  12
ATOM     12  O   UNL     1      45.052  11.341  12.139  0.00  0.00    +0.000 OA
ATOM     13  H   UNL     1      45.697  11.174  12.847  0.00  0.00    +0.000 HD
ENDBRANCH  10  12
ENDBRANCH   7  10
BRANCH   1  14
ATOM     14  C   UNL     1      44.084   4.861  10.279  0.00  0.00    +0.000 C 
BRANCH  14  19
ATOM     15  C   UNL     1      45.910   2.229   8.295  0.00  0.00    +0.000 A 
ATOM     16  N   UNL     1      46.717   2.991   7.539  0.00  0.00    +0.000 NA
ATOM     17  C   UNL     1      46.534   4.306   7.653  0.00  0.00    +0.000 A 
ATOM     18  N   UNL     1      45.668   4.902   8.479  0.00  0.00    +0.000 NA
ATOM     19  C   UNL     1      44.858   4.110   9.228  0.00  0.00    +0.000 A 
ATOM     20  C   UNL     1      44.908   2.724   9.127  0.00  0.00    +0.000 A 
ATOM     21  C   UNL     1      44.035   1.780   9.891  0.00  0.00    +0.000 C 
BRANCH  15  23
ATOM     22  C   UNL     1      47.046   0.419   7.314  0.00  0.00    +0.000 C 
ATOM     23  O   UNL     1      46.117   0.860   8.302  0.00  0.00    +0.000 OA
ENDBRANCH  15  23
ENDBRANCH  14  19
ENDBRANCH   1  14
TORSDOF 5
ENDMDL
MODEL 3
REMARK VINA RESULT:    -6.633      3.242      6.746
REMARK INTER + INTRA:          -8.928
REMARK INTER:                  -8.417
REMARK INTRA:                  -0.511
REMARK UNBOUND:                -0.549
REMARK  Name = 
REMARK  7 active torsions:
REMARK  status: ('A' for Active; 'I' for Inactive)
REMARK    1  A    between atoms: C_1  and  O_2
REMARK    2  A    between atoms: O_2  and  C_3
REMARK    3  A    between atoms: C_7  and  C_8
REMARK    4  A    between atoms: C_8  and  N_9
REMARK    5  A    between atoms: C_15  and  C_16
REMARK    6  A    between atoms: C_16  and  O_18
REMARK    7  A    between atoms: C_21  and  C_22
REMARK                            x       y       z     vdW  Elec       q    Type
REMARK                         _______ _______ _______ _____ _____    ______ ____
ROOT
ATOM      1  N   UNL     1      44.357   5.318  11.486  0.00  0.00    +0.000 N 
ATOM      2  C   UNL     1      43.558   4.707  12.428  0.00  0.00    +0.000 A 
ATOM      3  C   UNL     1      43.362   3.402  12.048  0.00  0.00    +0.000 A 
ATOM      4  C   UNL     1      44.051   3.204  10.824  0.00  0.00    +0.000 A 
ATOM      5  C   UNL     1      44.146   2.114   9.935  0.00  0.00    +0.000 A 
ATOM      6  C   UNL     1      44.876   2.249   8.748  0.00  0.00    +0.000 A 
ATOM      7  C   UNL     1      45.551   3.440   8.460  0.00  0.00    +0.000 A 
ATOM      8  C   UNL     1      45.469   4.535   9.338  0.00  0.00    +0.000 A 
ATOM      9  C   UNL     1      44.696   4.404  10.504  0.00  0.00    +0.000 A 
ENDROOT
BRANCH   7  10
ATOM     10  C   UNL     1      46.311   3.633   7.193  0.00  0.00    +0.000 C 
ATOM     11  O   UNL     1      46.165   2.916   6.218  0.00  0.00    +0.000 OA
BRANCH  10  12
ATOM     12  O   UNL     1      47.160   4.682   7.203  0.00  0.00    +0.000 OA
ATOM     13  H   UNL     1      47.939   4.592   6.628  0.00  0.00    +0.000 HD
ENDBRANCH  10  12
ENDBRANCH   7  10
BRANCH   1  14
ATOM     14  C   UNL     1      44.509   6.770  11.404  0.00  0.00    +0.000 C 
BRANCH  14  19
ATOM     15  C   UNL     1      47.310   9.074  12.425  0.00  0.00    +0.000 A 
ATOM     16  N   UNL     1      48.317   8.199  12.584  0.00  0.00    +0.000 NA
ATOM     17  C   UNL     1      47.986   6.915  12.450  0.00  0.00    +0.000 A 
ATOM     18  N   UNL     1      46.773   6.454  12.129  0.00  0.00    +0.000 NA
ATOM     19  C   UNL     1      45.770   7.358  11.980  0.00  0.00    +0.000 A 
ATOM     20  C   UNL     1      45.986   8.717  12.177  0.00  0.00    +0.000 A 
ATOM     21  C   UNL     1      44.935   9.775  12.063  0.00  0.00    +0.000 C 
BRANCH  15  23
ATOM     22  C   UNL     1      48.486  10.835  11.401  0.00  0.00    +0.000 C 
ATOM     23  O   UNL     1      47.606  10.426  12.447  0.00  0.00    +0.000 OA
ENDBRANCH  15  23
ENDBRANCH  14  19
ENDBRANCH   1  14
TORSDOF 5
ENDMDL
MODEL 4
REMARK VINA RESULT:    -6.312      1.758      6.725
REMARK INTER + INTRA:          -8.522
REMARK INTER:                  -8.284
REMARK INTRA:                  -0.238
REMARK UNBOUND:                -0.549
REMARK  Name = 
REMARK  7 active torsions:
REMARK  status: ('A' for Active; 'I' for Inactive)
REMARK    1  A    between atoms: C_1  and  O_2
REMARK    2  A    between atoms: O_2  and  C_3
REMARK    3  A    between atoms: C_7  and  C_8
REMARK    4  A    between atoms: C_8  and  N_9
REMARK    5  A    between atoms: C_15  and  C_16
REMARK    6  A    between atoms: C_16  and  O_18
REMARK    7  A    between atoms: C_21  and  C_22
REMARK                            x       y       z     vdW  Elec       q    Type
REMARK                         _______ _______ _______ _____ _____    ______ ____
ROOT
ATOM      1  N   UNL     1      44.435   4.646  11.651  0.00  0.00    +0.000 N 
ATOM      2  C   UNL     1      43.572   3.897  12.421  0.00  0.00    +0.000 A 
ATOM      3  C   UNL     1      43.337   2.708  11.773  0.00  0.00    +0.000 A 
ATOM      4  C   UNL     1      44.067   2.731  10.557  0.00  0.00    +0.000 A 
ATOM      5  C   UNL     1      44.152   1.843   9.466  0.00  0.00    +0.000 A 
ATOM      6  C   UNL     1      44.935   2.181   8.357  0.00  0.00    +0.000 A 
ATOM      7  C   UNL     1      45.672   3.370   8.342  0.00  0.00    +0.000 A 
ATOM      8  C   UNL     1      45.600   4.266   9.424  0.00  0.00    +0.000 A 
ATOM      9  C   UNL     1      44.775   3.936  10.513  0.00  0.00    +0.000 A 
ENDROOT
BRANCH   7  10
ATOM     10  C   UNL     1      46.491   3.780   7.167  0.00  0.00    +0.000 C 
ATOM     11  O   UNL     1      46.461   3.189   6.101  0.00  0.00    +0.000 OA
BRANCH  10  12
ATOM     12  O   UNL     1      47.254   4.875   7.370  0.00  0.00    +0.000 OA
ATOM     13  H   UNL     1      47.252   5.523   6.645  0.00  0.00    +0.000 HD
ENDBRANCH  10  12
ENDBRANCH   7  10
BRANCH   1  14
ATOM     14  C   UNL     1      44.652   6.074  11.876  0.00  0.00    +0.000 C 
BRANCH  14  19
ATOM     15  C   UNL     1      47.912   6.594  13.693  0.00  0.00    +0.000 A 
ATOM     16  N   UNL     1      48.323   7.754  13.155  0.00  0.00    +0.000 NA
ATOM     17  C   UNL     1      47.564   8.229  12.168  0.00  0.00    +0.000 A 
ATOM     18  N   UNL     1      46.431   7.675  11.724  0.00  0.00    +0.000 NA
ATOM     19  C   UNL     1      46.040   6.499  12.278  0.00  0.00    +0.000 A 
ATOM     20  C   UNL     1      46.801   5.874  13.259  0.00  0.00    +0.000 A 
ATOM     21  C   UNL     1      46.460   4.566  13.902  0.00  0.00    +0.000 C 
BRANCH  15  23
ATOM     22  C   UNL     1      48.959   7.106  15.735  0.00  0.00    +0.000 C 
ATOM     23  O   UNL     1      48.596   6.101  14.790  0.00  0.00    +0.000 OA
ENDBRANCH  15  23
ENDBRANCH  14  19
ENDBRANCH   1  14
TORSDOF 5
ENDMDL
MODEL 5
REMARK VINA RESULT:    -6.182      3.061      6.875
REMARK INTER + INTRA:          -8.358
REMARK INTER:                  -7.972
REMARK INTRA:                  -0.385
REMARK UNBOUND:                -0.549
REMARK  Name = 
REMARK  7 active torsions:
REMARK  status: ('A' for Active; 'I' for Inactive)
REMARK    1  A    between atoms: C_1  and  O_2
REMARK    2  A    between atoms: O_2  and  C_3
REMARK    3  A    between atoms: C_7  and  C_8
REMARK    4  A    between atoms: C_8  and  N_9
REMARK    5  A    between atoms: C_15  and  C_16
REMARK    6  A    between atoms: C_16  and  O_18
REMARK    7  A    between atoms: C_21  and  C_22
REMARK                            x       y       z     vdW  Elec       q    Type
REMARK                         _______ _______ _______ _____ _____    ______ ____
ROOT
ATOM      1  N   UNL     1      46.943   4.993  14.575  0.00  0.00    +0.000 N 
ATOM      2  C   UNL     1      48.046   5.805  14.722  0.00  0.00    +0.000 A 
ATOM      3  C   UNL     1      48.176   6.568  13.587  0.00  0.00    +0.000 A 
ATOM      4  C   UNL     1      47.126   6.205  12.705  0.00  0.00    +0.000 A 
ATOM      5  C   UNL     1      46.798   6.584  11.387  0.00  0.00    +0.000 A 
ATOM      6  C   UNL     1      45.704   5.990  10.748  0.00  0.00    +0.000 A 
ATOM      7  C   UNL     1      44.905   5.060  11.421  0.00  0.00    +0.000 A 
ATOM      8  C   UNL     1      45.217   4.674  12.737  0.00  0.00    +0.000 A 
ATOM      9  C   UNL     1      46.344   5.243  13.353  0.00  0.00    +0.000 A 
ENDROOT
BRANCH   7  10
ATOM     10  C   UNL     1      43.752   4.384  10.763  0.00  0.00    +0.000 C 
ATOM     11  O   UNL     1      43.012   3.616  11.353  0.00  0.00    +0.000 OA
BRANCH  10  12
ATOM     12  O   UNL     1      43.578   4.707   9.464  0.00  0.00    +0.000 OA
ATOM     13  H   UNL     1      43.001   4.108   8.960  0.00  0.00    +0.000 HD
ENDBRANCH  10  12
ENDBRANCH   7  10
BRANCH   1  14
ATOM     14  C   UNL     1      46.691   3.844  15.443  0.00  0.00    +0.000 C 
BRANCH  14  19
ATOM     15  C   UNL     1      49.288   3.789  18.172  0.00  0.00    +0.000 A 
ATOM     16  N   UNL     1      50.133   2.856  17.703  0.00  0.00    +0.000 NA
ATOM     17  C   UNL     1      49.743   2.239  16.588  0.00  0.00    +0.000 A 
ATOM     18  N   UNL     1      48.631   2.510  15.898  0.00  0.00    +0.000 NA
ATOM     19  C   UNL     1      47.790   3.453  16.395  0.00  0.00    +0.000 A 
ATOM     20  C   UNL     1      48.059   4.101  17.595  0.00  0.00    +0.000 A 
ATOM     21  C   UNL     1      47.174   5.128  18.229  0.00  0.00    +0.000 C 
BRANCH  15  23
ATOM     22  C   UNL     1      51.076   4.837  19.283  0.00  0.00    +0.000 C 
ATOM     23  O   UNL     1      49.681   4.540  19.267  0.00  0.00    +0.000 OA
ENDBRANCH  15  23
ENDBRANCH  14  19
ENDBRANCH   1  14
TORSDOF 5
ENDMDL
MODEL 6
REMARK VINA RESULT:    -6.088      2.498      6.357
REMARK INTER + INTRA:          -8.239
REMARK INTER:                  -7.604
REMARK INTRA:                  -0.636
REMARK UNBOUND:                -0.549
REMARK  Name = 
REMARK  7 active torsions:
REMARK  status: ('A' for Active; 'I' for Inactive)
REMARK    1  A    between atoms: C_1  and  O_2
REMARK    2  A    between atoms: O_2  and  C_3
REMARK    3  A    between atoms: C_7  and  C_8
REMARK    4  A    between atoms: C_8  and  N_9
REMARK    5  A    between atoms: C_15  and  C_16
REMARK    6  A    between atoms: C_16  and  O_18
REMARK    7  A    between atoms: C_21  and  C_22
REMARK                            x       y       z     vdW  Elec       q    Type
REMARK                         _______ _______ _______ _____ _____    ______ ____
ROOT
ATOM      1  N   UNL     1      46.616   6.447  13.343  0.00  0.00    +0.000 N 
ATOM      2  C   UNL     1      46.547   7.819  13.244  0.00  0.00    +0.000 A 
ATOM      3  C   UNL     1      45.424   8.144  12.523  0.00  0.00    +0.000 A 
ATOM      4  C   UNL     1      44.786   6.932  12.153  0.00  0.00    +0.000 A 
ATOM      5  C   UNL     1      43.661   6.638  11.357  0.00  0.00    +0.000 A 
ATOM      6  C   UNL     1      43.306   5.304  11.125  0.00  0.00    +0.000 A 
ATOM      7  C   UNL     1      44.030   4.262  11.715  0.00  0.00    +0.000 A 
ATOM      8  C   UNL     1      45.154   4.540  12.514  0.00  0.00    +0.000 A 
ATOM      9  C   UNL     1      45.527   5.881  12.704  0.00  0.00    +0.000 A 
ENDROOT
BRANCH   7  10
ATOM     10  C   UNL     1      43.703   2.830  11.467  0.00  0.00    +0.000 C 
ATOM     11  O   UNL     1      43.692   2.338  10.351  0.00  0.00    +0.000 OA
BRANCH  10  12
ATOM     12  O   UNL     1      43.442   2.113  12.580  0.00  0.00    +0.000 OA
ATOM     13  H   UNL     1      42.735   2.468  13.147  0.00  0.00    +0.000 HD
ENDBRANCH  10  12
ENDBRANCH   7  10
BRANCH   1  14
ATOM     14  C   UNL     1      47.829   5.748  13.766  0.00  0.00    +0.000 C 
BRANCH  14  19
ATOM     15  C   UNL     1      48.656   5.103  17.385  0.00  0.00    +0.000 A 
ATOM     16  N   UNL     1      48.197   3.850  17.534  0.00  0.00    +0.000 NA
ATOM     17  C   UNL     1      47.558   3.345  16.478  0.00  0.00    +0.000 A 
ATOM     18  N   UNL     1      47.393   3.960  15.303  0.00  0.00    +0.000 NA
ATOM     19  C   UNL     1      47.861   5.229  15.179  0.00  0.00    +0.000 A 
ATOM     20  C   UNL     1      48.470   5.882  16.244  0.00  0.00    +0.000 A 
ATOM     21  C   UNL     1      48.987   7.285  16.204  0.00  0.00    +0.000 C 
BRANCH  15  23
ATOM     22  C   UNL     1      49.105   5.124  19.693  0.00  0.00    +0.000 C 
ATOM     23  O   UNL     1      49.418   5.649  18.404  0.00  0.00    +0.000 OA
ENDBRANCH  15  23
ENDBRANCH  14  19
ENDBRANCH   1  14
TORSDOF 5
ENDMDL
MODEL 7
REMARK VINA RESULT:    -5.857      2.291      3.458
REMARK INTER + INTRA:          -7.947
REMARK INTER:                  -7.193
REMARK INTRA:                  -0.755
REMARK UNBOUND:                -0.549
REMARK  Name = 
REMARK  7 active torsions:
REMARK  status: ('A' for Active; 'I' for Inactive)
REMARK    1  A    between atoms: C_1  and  O_2
REMARK    2  A    between atoms: O_2  and  C_3
REMARK    3  A    between atoms: C_7  and  C_8
REMARK    4  A    between atoms: C_8  and  N_9
REMARK    5  A    between atoms: C_15  and  C_16
REMARK    6  A    between atoms: C_16  and  O_18
REMARK    7  A    between atoms: C_21  and  C_22
REMARK                            x       y       z     vdW  Elec       q    Type
REMARK                         _______ _______ _______ _____ _____    ______ ____
ROOT
ATOM      1  N   UNL     1      48.609   7.165  14.035  0.00  0.00    +0.000 N 
ATOM      2  C   UNL     1      48.848   8.505  13.824  0.00  0.00    +0.000 A 
ATOM      3  C   UNL     1      48.995   9.116  15.045  0.00  0.00    +0.000 A 
ATOM      4  C   UNL     1      48.828   8.123  16.044  0.00  0.00    +0.000 A 
ATOM      5  C   UNL     1      48.792   8.167  17.452  0.00  0.00    +0.000 A 
ATOM      6  C   UNL     1      48.545   6.994  18.176  0.00  0.00    +0.000 A 
ATOM      7  C   UNL     1      48.381   5.771  17.516  0.00  0.00    +0.000 A 
ATOM      8  C   UNL     1      48.417   5.711  16.111  0.00  0.00    +0.000 A 
ATOM      9  C   UNL     1      48.621   6.901  15.393  0.00  0.00    +0.000 A 
ENDROOT
BRANCH   7  10
ATOM     10  C   UNL     1      48.085   4.509  18.249  0.00  0.00    +0.000 C 
ATOM     11  O   UNL     1      48.935   3.885  18.861  0.00  0.00    +0.000 OA
BRANCH  10  12
ATOM     12  O   UNL     1      46.793   4.122  18.201  0.00  0.00    +0.000 OA
ATOM     13  H   UNL     1      46.246   4.405  18.955  0.00  0.00    +0.000 HD
ENDBRANCH  10  12
ENDBRANCH   7  10
BRANCH   1  14
ATOM     14  C   UNL     1      48.099   6.282  12.988  0.00  0.00    +0.000 C 
BRANCH  14  19
ATOM     15  C   UNL     1      44.742   4.572  12.909  0.00  0.00    +0.000 A 
ATOM     16  N   UNL     1      43.947   5.587  12.532  0.00  0.00    +0.000 NA
ATOM     17  C   UNL     1      44.542   6.775  12.434  0.00  0.00    +0.000 A 
ATOM     18  N   UNL     1      45.843   7.011  12.627  0.00  0.00    +0.000 NA
ATOM     19  C   UNL     1      46.626   5.971  13.014  0.00  0.00    +0.000 A 
ATOM     20  C   UNL     1      46.093   4.705  13.226  0.00  0.00    +0.000 A 
ATOM     21  C   UNL     1      46.875   3.512  13.678  0.00  0.00    +0.000 C 
BRANCH  15  23
ATOM     22  C   UNL     1      43.405   2.994  11.791  0.00  0.00    +0.000 C 
ATOM     23  O   UNL     1      44.210   3.294  12.929  0.00  0.00    +0.000 OA
ENDBRANCH  15  23
ENDBRANCH  14  19
ENDBRANCH   1  14
TORSDOF 5
ENDMDL
MODEL 8
REMARK VINA RESULT:    -5.791      2.556      6.524
REMARK INTER + INTRA:          -7.864
REMARK INTER:                  -7.168
REMARK INTRA:                  -0.696
REMARK UNBOUND:                -0.549
REMARK  Name = 
REMARK  7 active torsions:
REMARK  status: ('A' for Active; 'I' for Inactive)
REMARK    1  A    between atoms: C_1  and  O_2
REMARK    2  A    between atoms: O_2  and  C_3
REMARK    3  A    between atoms: C_7  and  C_8
REMARK    4  A    between atoms: C_8  and  N_9
REMARK    5  A    between atoms: C_15  and  C_16
REMARK    6  A    between atoms: C_16  and  O_18
REMARK    7  A    between atoms: C_21  and  C_22
REMARK                            x       y       z     vdW  Elec       q    Type
REMARK                         _______ _______ _______ _____ _____    ______ ____
ROOT
ATOM      1  N   UNL     1      47.121   7.143  13.467  0.00  0.00    +0.000 N 
ATOM      2  C   UNL     1      47.005   8.505  13.296  0.00  0.00    +0.000 A 
ATOM      3  C   UNL     1      45.858   8.755  12.583  0.00  0.00    +0.000 A 
ATOM      4  C   UNL     1      45.253   7.505  12.293  0.00  0.00    +0.000 A 
ATOM      5  C   UNL     1      44.122   7.132  11.538  0.00  0.00    +0.000 A 
ATOM      6  C   UNL     1      43.807   5.777  11.386  0.00  0.00    +0.000 A 
ATOM      7  C   UNL     1      44.576   4.792  12.015  0.00  0.00    +0.000 A 
ATOM      8  C   UNL     1      45.706   5.148  12.774  0.00  0.00    +0.000 A 
ATOM      9  C   UNL     1      46.039   6.509  12.883  0.00  0.00    +0.000 A 
ENDROOT
BRANCH   7  10
ATOM     10  C   UNL     1      44.291   3.340  11.851  0.00  0.00    +0.000 C 
ATOM     11  O   UNL     1      43.378   2.918  11.162  0.00  0.00    +0.000 OA
BRANCH  10  12
ATOM     12  O   UNL     1      45.142   2.523  12.508  0.00  0.00    +0.000 OA
ATOM     13  H   UNL     1      44.925   2.362  13.443  0.00  0.00    +0.000 HD
ENDBRANCH  10  12
ENDBRANCH   7  10
BRANCH   1  14
ATOM     14  C   UNL     1      48.364   6.507  13.901  0.00  0.00    +0.000 C 
BRANCH  14  19
ATOM     15  C   UNL     1      48.294   5.900  17.619  0.00  0.00    +0.000 A 
ATOM     16  N   UNL     1      48.913   7.003  18.070  0.00  0.00    +0.000 NA
ATOM     17  C   UNL     1      49.402   7.811  17.130  0.00  0.00    +0.000 A 
ATOM     18  N   UNL     1      49.277   7.633  15.811  0.00  0.00    +0.000 NA
ATOM     19  C   UNL     1      48.652   6.508  15.379  0.00  0.00    +0.000 A 
ATOM     20  C   UNL     1      48.177   5.556  16.273  0.00  0.00    +0.000 A 
ATOM     21  C   UNL     1      47.504   4.277  15.884  0.00  0.00    +0.000 C 
BRANCH  15  23
ATOM     22  C   UNL     1      48.532   4.655  19.599  0.00  0.00    +0.000 C 
ATOM     23  O   UNL     1      47.674   5.072  18.539  0.00  0.00    +0.000 OA
ENDBRANCH  15  23
ENDBRANCH  14  19
ENDBRANCH   1  14
TORSDOF 5
ENDMDL
MODEL 9
REMARK VINA RESULT:    -5.671      2.863      4.041
REMARK INTER + INTRA:          -7.713
REMARK INTER:                  -7.089
REMARK INTRA:                  -0.623
REMARK UNBOUND:                -0.549
REMARK  Name = 
REMARK  7 active torsions:
REMARK  status: ('A' for Active; 'I' for Inactive)
REMARK    1  A    between atoms: C_1  and  O_2
REMARK    2  A    between atoms: O_2  and  C_3
REMARK    3  A    between atoms: C_7  and  C_8
REMARK    4  A    between atoms: C_8  and  N_9
REMARK    5  A    between atoms: C_15  and  C_16
REMARK    6  A    between atoms: C_16  and  O_18
REMARK    7  A    between atoms: C_21  and  C_22
REMARK                            x       y       z     vdW  Elec       q    Type
REMARK                         _______ _______ _______ _____ _____    ______ ____
ROOT
ATOM      1  N   UNL     1      48.687   7.725  14.695  0.00  0.00    +0.000 N 
ATOM      2  C   UNL     1      48.253   9.019  14.879  0.00  0.00    +0.000 A 
ATOM      3  C   UNL     1      48.206   9.271  16.229  0.00  0.00    +0.000 A 
ATOM      4  C   UNL     1      48.611   8.089  16.900  0.00  0.00    +0.000 A 
ATOM      5  C   UNL     1      48.685   7.729  18.261  0.00  0.00    +0.000 A 
ATOM      6  C   UNL     1      49.080   6.433  18.614  0.00  0.00    +0.000 A 
ATOM      7  C   UNL     1      49.448   5.509  17.631  0.00  0.00    +0.000 A 
ATOM      8  C   UNL     1      49.383   5.854  16.269  0.00  0.00    +0.000 A 
ATOM      9  C   UNL     1      48.942   7.143  15.924  0.00  0.00    +0.000 A 
ENDROOT
BRANCH   7  10
ATOM     10  C   UNL     1      49.843   4.112  17.966  0.00  0.00    +0.000 C 
ATOM     11  O   UNL     1      50.524   3.422  17.227  0.00  0.00    +0.000 OA
BRANCH  10  12
ATOM     12  O   UNL     1      49.405   3.677  19.167  0.00  0.00    +0.000 OA
ATOM     13  H   UNL     1      49.758   2.817  19.451  0.00  0.00    +0.000 HD
ENDBRANCH  10  12
ENDBRANCH   7  10
BRANCH   1  14
ATOM     14  C   UNL     1      48.558   7.025  13.418  0.00  0.00    +0.000 C 
BRANCH  14  19
ATOM     15  C   UNL     1      45.157   5.407  13.293  0.00  0.00    +0.000 A 
ATOM     16  N   UNL     1      45.472   4.129  13.558  0.00  0.00    +0.000 NA
ATOM     17  C   UNL     1      46.775   3.868  13.653  0.00  0.00    +0.000 A 
ATOM     18  N   UNL     1      47.758   4.769  13.557  0.00  0.00    +0.000 NA
ATOM     19  C   UNL     1      47.415   6.054  13.283  0.00  0.00    +0.000 A 
ATOM     20  C   UNL     1      46.089   6.422  13.084  0.00  0.00    +0.000 A 
ATOM     21  C   UNL     1      45.627   7.805  12.750  0.00  0.00    +0.000 C 
BRANCH  15  23
ATOM     22  C   UNL     1      43.006   4.913  12.484  0.00  0.00    +0.000 C 
ATOM     23  O   UNL     1      43.820   5.766  13.285  0.00  0.00    +0.000 OA
ENDBRANCH  15  23
ENDBRANCH  14  19
ENDBRANCH   1  14
TORSDOF 5
ENDMDL
