MODEL 1
REMARK VINA RESULT:    -6.732      0.000      0.000
REMARK INTER + INTRA:         -12.256
REMARK INTER:                 -10.471
REMARK INTRA:                  -1.785
REMARK UNBOUND:                -1.785
REMARK  Name = 
REMARK  11 active torsions:
REMARK  status: ('A' for Active; 'I' for Inactive)
REMARK    1  A    between atoms: N_1  and  C_2
REMARK    2  A    between atoms: C_2  and  C_3
REMARK    3  A    between atoms: C_2  and  C_14
REMARK    4  A    between atoms: C_3  and  N_4
REMARK    5  A    between atoms: C_7  and  C_8
REMARK    6  A    between atoms: C_8  and  O_9
REMARK    7  A    between atoms: C_10  and  C_11
REMARK    8  A    between atoms: C_11  and  O_12
REMARK    9  A    between atoms: C_17  and  C_18
REMARK   10  A    between atoms: C_18  and  N_19
REMARK   11  A    between atoms: C_20  and  C_22
REMARK                            x       y       z     vdW  Elec       q    Type
REMARK                         _______ _______ _______ _____ _____    ______ ____
ROOT
ATOM      1  C   UNL     1      50.034   8.035  14.258  0.00  0.00    +0.000 A 
ATOM      2  C   UNL     1      48.994   8.886  14.633  0.00  0.00    +0.000 A 
ATOM      3  C   UNL     1      47.845   8.966  13.859  0.00  0.00    +0.000 A 
ATOM      4  C   UNL     1      47.728   8.157  12.737  0.00  0.00    +0.000 A 
ATOM      5  C   UNL     1      48.828   7.389  12.384  0.00  0.00    +0.000 A 
ATOM      6  N   UNL     1      49.968   7.321  13.103  0.00  0.00    +0.000 NA
ENDROOT
BRANCH   1   7
ATOM      7  C   UNL     1      51.234   7.779  15.182  0.00  0.00    +0.000 C 
BRANCH   7   8
ATOM      8  N   UNL     1      52.115   8.968  15.279  0.00  0.00    +0.000 NA
ATOM      9  H   UNL     1      51.638   9.755  15.707  0.00  0.00    +0.000 HD
ATOM     10  H   UNL     1      52.404   9.226  14.337  0.00  0.00    +0.000 HD
ENDBRANCH   7   8
BRANCH   7  11
ATOM     11  C   UNL     1      50.838   7.289  16.615  0.00  0.00    +0.000 C 
BRANCH  11  12
ATOM     12  N   UNL     1      50.124   5.995  16.717  0.00  0.00    +0.000 NA
ATOM     13  C   UNL     1      50.876   4.994  17.492  0.00  0.00    +0.000 C 
ATOM     14  C   UNL     1      50.144   3.650  17.527  0.00  0.00    +0.000 C 
ATOM     15  C   UNL     1      48.706   3.789  18.046  0.00  0.00    +0.000 C 
ATOM     16  C   UNL     1      47.947   4.884  17.257  0.00  0.00    +0.000 C 
ATOM     17  C   UNL     1      48.761   6.191  17.223  0.00  0.00    +0.000 C 
BRANCH  15  18
ATOM     18  C   UNL     1      48.692   4.111  19.552  0.00  0.00    +0.000 C 
BRANCH  18  19
ATOM     19  O   UNL     1      48.275   2.989  20.313  0.00  0.00    +0.000 OA
ATOM     20  H   UNL     1      47.926   2.325  19.692  0.00  0.00    +0.000 HD
ENDBRANCH  18  19
ENDBRANCH  15  18
BRANCH  16  21
ATOM     21  C   UNL     1      47.561   4.443  15.833  0.00  0.00    +0.000 C 
BRANCH  21  22
ATOM     22  O   UNL     1      47.954   5.432  14.885  0.00  0.00    +0.000 OA
ATOM     23  H   UNL     1      48.264   6.209  15.382  0.00  0.00    +0.000 HD
ENDBRANCH  21  22
ENDBRANCH  16  21
ENDBRANCH  11  12
ENDBRANCH   7  11
ENDBRANCH   1   7
BRANCH   4  24
ATOM     24  C   UNL     1      46.478   8.131  11.925  0.00  0.00    +0.000 C 
BRANCH  24  25
ATOM     25  N   UNL     1      46.071   6.781  11.661  0.00  0.00    +0.000 N 
ATOM     26  C   UNL     1      44.759   6.483  11.418  0.00  0.00    +0.000 C 
ATOM     27  O   UNL     1      43.890   7.351  11.372  0.00  0.00    +0.000 OA
ATOM     28  H   UNL     1      46.721   6.040  11.901  0.00  0.00    +0.000 HD
BRANCH  26  29
ATOM     29  C   UNL     1      44.455   5.075  11.150  0.00  0.00    +0.000 A 
ATOM     30  C   UNL     1      43.663   4.371  12.044  0.00  0.00    +0.000 A 
ATOM     31  S   UNL     1      43.366   2.762  11.566  0.00  0.00    +0.000 S 
ATOM     32  C   UNL     1      44.327   2.939  10.172  0.00  0.00    +0.000 A 
ATOM     33  N   UNL     1      44.515   1.900   9.319  0.00  0.00    +0.000 NA
ATOM     34  C   UNL     1      45.285   2.165   8.315  0.00  0.00    +0.000 A 
ATOM     35  N   UNL     1      45.881   3.379   8.088  0.00  0.00    +0.000 N 
ATOM     36  C   UNL     1      45.697   4.467   8.906  0.00  0.00    +0.000 A 
ATOM     37  O   UNL     1      46.195   5.552   8.646  0.00  0.00    +0.000 OA
ATOM     38  C   UNL     1      44.850   4.215  10.062  0.00  0.00    +0.000 A 
ATOM     39  H   UNL     1      46.458   3.525   7.272  0.00  0.00    +0.000 HD
ENDBRANCH  26  29
ENDBRANCH  24  25
ENDBRANCH   4  24
TORSDOF 11
ENDMDL
MODEL 2
REMARK VINA RESULT:    -6.517      1.414      1.972
REMARK INTER + INTRA:         -11.921
REMARK INTER:                 -10.614
REMARK INTRA:                  -1.307
REMARK UNBOUND:                -1.785
REMARK  Name = 
REMARK  11 active torsions:
REMARK  status: ('A' for Active; 'I' for Inactive)
REMARK    1  A    between atoms: N_1  and  C_2
REMARK    2  A    between atoms: C_2  and  C_3
REMARK    3  A    between atoms: C_2  and  C_14
REMARK    4  A    between atoms: C_3  and  N_4
REMARK    5  A    between atoms: C_7  and  C_8
REMARK    6  A    between atoms: C_8  and  O_9
REMARK    7  A    between atoms: C_10  and  C_11
REMARK    8  A    between atoms: C_11  and  O_12
REMARK    9  A    between atoms: C_17  and  C_18
REMARK   10  A    between atoms: C_18  and  N_19
REMARK   11  A    between atoms: C_20  and  C_22
REMARK                            x       y       z     vdW  Elec       q    Type
REMARK                         _______ _______ _______ _____ _____    ______ ____
ROOT
ATOM      1  C   UNL     1      49.681   8.340  15.357  0.00  0.00    +0.000 A 
ATOM      2  C   UNL     1      48.392   8.858  15.223  0.00  0.00    +0.000 A 
ATOM      3  C   UNL     1      47.748   8.815  13.994  0.00  0.00    +0.000 A 
ATOM      4  C   UNL     1      48.385   8.212  12.917  0.00  0.00    +0.000 A 
ATOM      5  C   UNL     1      49.691   7.782  13.105  0.00  0.00    +0.000 A 
ATOM      6  N   UNL     1      50.348   7.845  14.282  0.00  0.00    +0.000 NA
ENDROOT
BRANCH   1   7
ATOM      7  C   UNL     1      50.348   8.198  16.734  0.00  0.00    +0.000 C 
BRANCH   7   8
ATOM      8  N   UNL     1      50.990   9.465  17.164  0.00  0.00    +0.000 NA
ATOM      9  H   UNL     1      50.536  10.275  16.754  0.00  0.00    +0.000 HD
ATOM     10  H   UNL     1      51.964   9.443  16.866  0.00  0.00    +0.000 HD
ENDBRANCH   7   8
BRANCH   7  11
ATOM     11  C   UNL     1      49.388   7.679  17.854  0.00  0.00    +0.000 C 
BRANCH  11  12
ATOM     12  N   UNL     1      49.479   6.244  18.216  0.00  0.00    +0.000 NA
ATOM     13  C   UNL     1      48.260   5.750  18.876  0.00  0.00    +0.000 C 
ATOM     14  C   UNL     1      48.407   4.285  19.295  0.00  0.00    +0.000 C 
ATOM     15  C   UNL     1      48.805   3.384  18.117  0.00  0.00    +0.000 C 
ATOM     16  C   UNL     1      50.057   3.950  17.400  0.00  0.00    +0.000 C 
ATOM     17  C   UNL     1      49.856   5.437  17.051  0.00  0.00    +0.000 C 
BRANCH  15  18
ATOM     18  C   UNL     1      47.642   3.235  17.119  0.00  0.00    +0.000 C 
BRANCH  18  19
ATOM     19  O   UNL     1      46.486   2.711  17.753  0.00  0.00    +0.000 OA
ATOM     20  H   UNL     1      46.727   2.495  18.672  0.00  0.00    +0.000 HD
ENDBRANCH  18  19
ENDBRANCH  15  18
BRANCH  16  21
ATOM     21  C   UNL     1      51.354   3.747  18.202  0.00  0.00    +0.000 C 
BRANCH  21  22
ATOM     22  O   UNL     1      51.715   2.368  18.220  0.00  0.00    +0.000 OA
ATOM     23  H   UNL     1      51.697   2.047  17.302  0.00  0.00    +0.000 HD
ENDBRANCH  21  22
ENDBRANCH  16  21
ENDBRANCH  11  12
ENDBRANCH   7  11
ENDBRANCH   1   7
BRANCH   4  24
ATOM     24  C   UNL     1      47.703   8.052  11.602  0.00  0.00    +0.000 C 
BRANCH  24  25
ATOM     25  N   UNL     1      47.005   6.799  11.540  0.00  0.00    +0.000 N 
ATOM     26  C   UNL     1      45.650   6.746  11.717  0.00  0.00    +0.000 C 
ATOM     27  O   UNL     1      44.975   7.759  11.892  0.00  0.00    +0.000 OA
ATOM     28  H   UNL     1      47.557   5.951  11.609  0.00  0.00    +0.000 HD
BRANCH  26  29
ATOM     29  C   UNL     1      45.038   5.419  11.624  0.00  0.00    +0.000 A 
ATOM     30  C   UNL     1      44.386   4.894  12.729  0.00  0.00    +0.000 A 
ATOM     31  S   UNL     1      43.689   3.365  12.443  0.00  0.00    +0.000 S 
ATOM     32  C   UNL     1      44.278   3.332  10.847  0.00  0.00    +0.000 A 
ATOM     33  N   UNL     1      44.050   2.263  10.041  0.00  0.00    +0.000 NA
ATOM     34  C   UNL     1      44.574   2.360   8.864  0.00  0.00    +0.000 A 
ATOM     35  N   UNL     1      45.302   3.433   8.419  0.00  0.00    +0.000 N 
ATOM     36  C   UNL     1      45.534   4.549   9.186  0.00  0.00    +0.000 A 
ATOM     37  O   UNL     1      46.137   5.514   8.742  0.00  0.00    +0.000 OA
ATOM     38  C   UNL     1      44.979   4.482  10.529  0.00  0.00    +0.000 A 
ATOM     39  H   UNL     1      45.667   3.454   7.478  0.00  0.00    +0.000 HD
ENDBRANCH  26  29
ENDBRANCH  24  25
ENDBRANCH   4  24
TORSDOF 11
ENDMDL
MODEL 3
REMARK VINA RESULT:    -6.170      2.967      7.649
REMARK INTER + INTRA:         -11.381
REMARK INTER:                  -9.129
REMARK INTRA:                  -2.252
REMARK UNBOUND:                -1.785
REMARK  Name = 
REMARK  11 active torsions:
REMARK  status: ('A' for Active; 'I' for Inactive)
REMARK    1  A    between atoms: N_1  and  C_2
REMARK    2  A    between atoms: C_2  and  C_3
REMARK    3  A    between atoms: C_2  and  C_14
REMARK    4  A    between atoms: C_3  and  N_4
REMARK    5  A    between atoms: C_7  and  C_8
REMARK    6  A    between atoms: C_8  and  O_9
REMARK    7  A    between atoms: C_10  and  C_11
REMARK    8  A    between atoms: C_11  and  O_12
REMARK    9  A    between atoms: C_17  and  C_18
REMARK   10  A    between atoms: C_18  and  N_19
REMARK   11  A    between atoms: C_20  and  C_22
REMARK                            x       y       z     vdW  Elec       q    Type
REMARK                         _______ _______ _______ _____ _____    ______ ____
ROOT
ATOM      1  C   UNL     1      46.697   9.038  12.821  0.00  0.00    +0.000 A 
ATOM      2  C   UNL     1      47.660   8.795  11.841  0.00  0.00    +0.000 A 
ATOM      3  C   UNL     1      48.994   8.647  12.195  0.00  0.00    +0.000 A 
ATOM      4  C   UNL     1      49.347   8.698  13.537  0.00  0.00    +0.000 A 
ATOM      5  C   UNL     1      48.350   9.013  14.450  0.00  0.00    +0.000 A 
ATOM      6  N   UNL     1      47.053   9.195  14.124  0.00  0.00    +0.000 NA
ENDROOT
BRANCH   1   7
ATOM      7  C   UNL     1      45.196   9.018  12.493  0.00  0.00    +0.000 C 
BRANCH   7   8
ATOM      8  N   UNL     1      44.713  10.354  12.063  0.00  0.00    +0.000 NA
ATOM      9  H   UNL     1      45.480  11.001  11.913  0.00  0.00    +0.000 HD
ATOM     10  H   UNL     1      44.106  10.721  12.794  0.00  0.00    +0.000 HD
ENDBRANCH   7   8
BRANCH   7  11
ATOM     11  C   UNL     1      44.791   7.938  11.437  0.00  0.00    +0.000 C 
BRANCH  11  12
ATOM     12  N   UNL     1      44.601   6.550  11.922  0.00  0.00    +0.000 NA
ATOM     13  C   UNL     1      43.289   5.997  11.551  0.00  0.00    +0.000 C 
ATOM     14  C   UNL     1      43.096   4.588  12.120  0.00  0.00    +0.000 C 
ATOM     15  C   UNL     1      44.235   3.641  11.714  0.00  0.00    +0.000 C 
ATOM     16  C   UNL     1      45.610   4.264  12.061  0.00  0.00    +0.000 C 
ATOM     17  C   UNL     1      45.714   5.694  11.499  0.00  0.00    +0.000 C 
BRANCH  15  18
ATOM     18  C   UNL     1      44.165   3.307  10.212  0.00  0.00    +0.000 C 
BRANCH  18  19
ATOM     19  O   UNL     1      45.049   2.248   9.880  0.00  0.00    +0.000 OA
ATOM     20  H   UNL     1      44.543   1.595   9.362  0.00  0.00    +0.000 HD
ENDBRANCH  18  19
ENDBRANCH  15  18
BRANCH  16  21
ATOM     21  C   UNL     1      45.916   4.245  13.570  0.00  0.00    +0.000 C 
BRANCH  21  22
ATOM     22  O   UNL     1      46.180   5.565  14.038  0.00  0.00    +0.000 OA
ATOM     23  H   UNL     1      45.758   6.186  13.418  0.00  0.00    +0.000 HD
ENDBRANCH  21  22
ENDBRANCH  16  21
ENDBRANCH  11  12
ENDBRANCH   7  11
ENDBRANCH   1   7
BRANCH   4  24
ATOM     24  C   UNL     1      50.748   8.450  13.982  0.00  0.00    +0.000 C 
BRANCH  24  25
ATOM     25  N   UNL     1      50.831   7.238  14.747  0.00  0.00    +0.000 N 
ATOM     26  C   UNL     1      51.142   7.274  16.077  0.00  0.00    +0.000 C 
ATOM     27  O   UNL     1      51.319   8.332  16.678  0.00  0.00    +0.000 OA
ATOM     28  H   UNL     1      50.899   6.365  14.235  0.00  0.00    +0.000 HD
BRANCH  26  29
ATOM     29  C   UNL     1      51.191   5.981  16.764  0.00  0.00    +0.000 A 
ATOM     30  C   UNL     1      52.387   5.551  17.315  0.00  0.00    +0.000 A 
ATOM     31  S   UNL     1      52.266   4.051  18.117  0.00  0.00    +0.000 S 
ATOM     32  C   UNL     1      50.620   3.904  17.711  0.00  0.00    +0.000 A 
ATOM     33  N   UNL     1      49.905   2.811  18.081  0.00  0.00    +0.000 NA
ATOM     34  C   UNL     1      48.675   2.817  17.687  0.00  0.00    +0.000 A 
ATOM     35  N   UNL     1      48.093   3.823  16.958  0.00  0.00    +0.000 N 
ATOM     36  C   UNL     1      48.767   4.961  16.586  0.00  0.00    +0.000 A 
ATOM     37  O   UNL     1      48.206   5.866  15.986  0.00  0.00    +0.000 OA
ATOM     38  C   UNL     1      50.163   4.994  16.992  0.00  0.00    +0.000 A 
ATOM     39  H   UNL     1      47.119   3.774  16.698  0.00  0.00    +0.000 HD
ENDBRANCH  26  29
ENDBRANCH  24  25
ENDBRANCH   4  24
TORSDOF 11
ENDMDL
MODEL 4
REMARK VINA RESULT:    -6.037      3.254      8.299
REMARK INTER + INTRA:         -11.175
REMARK INTER:                  -9.764
REMARK INTRA:                  -1.411
REMARK UNBOUND:                -1.785
REMARK  Name = 
REMARK  11 active torsions:
REMARK  status: ('A' for Active; 'I' for Inactive)
REMARK    1  A    between atoms: N_1  and  C_2
REMARK    2  A    between atoms: C_2  and  C_3
REMARK    3  A    between atoms: C_2  and  C_14
REMARK    4  A    between atoms: C_3  and  N_4
REMARK    5  A    between atoms: C_7  and  C_8
REMARK    6  A    between atoms: C_8  and  O_9
REMARK    7  A    between atoms: C_10  and  C_11
REMARK    8  A    between atoms: C_11  and  O_12
REMARK    9  A    between atoms: C_17  and  C_18
REMARK   10  A    between atoms: C_18  and  N_19
REMARK   11  A    between atoms: C_20  and  C_22
REMARK                            x       y       z     vdW  Elec       q    Type
REMARK                         _______ _______ _______ _____ _____    ______ ____
ROOT
ATOM      1  C   UNL     1      48.084   7.907  14.444  0.00  0.00    +0.000 A 
ATOM      2  C   UNL     1      48.219   8.974  15.333  0.00  0.00    +0.000 A 
ATOM      3  C   UNL     1      49.339   9.066  16.148  0.00  0.00    +0.000 A 
ATOM      4  C   UNL     1      50.338   8.109  16.033  0.00  0.00    +0.000 A 
ATOM      5  C   UNL     1      50.106   7.039  15.180  0.00  0.00    +0.000 A 
ATOM      6  N   UNL     1      49.009   6.912  14.404  0.00  0.00    +0.000 NA
ENDROOT
BRANCH   1   7
ATOM      7  C   UNL     1      46.958   7.872  13.399  0.00  0.00    +0.000 C 
BRANCH   7   8
ATOM      8  N   UNL     1      46.523   9.238  13.017  0.00  0.00    +0.000 NA
ATOM      9  H   UNL     1      47.296   9.896  13.030  0.00  0.00    +0.000 HD
ATOM     10  H   UNL     1      45.815   9.543  13.682  0.00  0.00    +0.000 HD
ENDBRANCH   7   8
BRANCH   7  11
ATOM     11  C   UNL     1      47.307   7.045  12.118  0.00  0.00    +0.000 C 
BRANCH  11  12
ATOM     12  N   UNL     1      46.438   5.887  11.799  0.00  0.00    +0.000 NA
ATOM     13  C   UNL     1      46.324   4.940  12.920  0.00  0.00    +0.000 C 
ATOM     14  C   UNL     1      45.474   3.725  12.540  0.00  0.00    +0.000 C 
ATOM     15  C   UNL     1      44.089   4.131  12.013  0.00  0.00    +0.000 C 
ATOM     16  C   UNL     1      44.226   5.170  10.872  0.00  0.00    +0.000 C 
ATOM     17  C   UNL     1      45.131   6.338  11.308  0.00  0.00    +0.000 C 
BRANCH  15  18
ATOM     18  C   UNL     1      43.212   4.696  13.146  0.00  0.00    +0.000 C 
BRANCH  18  19
ATOM     19  O   UNL     1      42.240   5.597  12.641  0.00  0.00    +0.000 OA
ATOM     20  H   UNL     1      41.573   5.072  12.163  0.00  0.00    +0.000 HD
ENDBRANCH  18  19
ENDBRANCH  15  18
BRANCH  16  21
ATOM     21  C   UNL     1      44.725   4.553   9.553  0.00  0.00    +0.000 C 
BRANCH  21  22
ATOM     22  O   UNL     1      45.706   5.395   8.952  0.00  0.00    +0.000 OA
ATOM     23  H   UNL     1      45.565   5.371   7.990  0.00  0.00    +0.000 HD
ENDBRANCH  21  22
ENDBRANCH  16  21
ENDBRANCH  11  12
ENDBRANCH   7  11
ENDBRANCH   1   7
BRANCH   4  24
ATOM     24  C   UNL     1      51.605   8.211  16.812  0.00  0.00    +0.000 C 
BRANCH  24  25
ATOM     25  N   UNL     1      52.152   6.909  17.066  0.00  0.00    +0.000 N 
ATOM     26  C   UNL     1      51.902   6.265  18.245  0.00  0.00    +0.000 C 
ATOM     27  O   UNL     1      51.173   6.747  19.110  0.00  0.00    +0.000 OA
ATOM     28  H   UNL     1      52.912   6.596  16.470  0.00  0.00    +0.000 HD
BRANCH  26  29
ATOM     29  C   UNL     1      52.501   4.937  18.396  0.00  0.00    +0.000 A 
ATOM     30  C   UNL     1      53.753   4.820  18.980  0.00  0.00    +0.000 A 
ATOM     31  S   UNL     1      54.287   3.208  19.123  0.00  0.00    +0.000 S 
ATOM     32  C   UNL     1      52.884   2.615  18.364  0.00  0.00    +0.000 A 
ATOM     33  N   UNL     1      52.718   1.286  18.146  0.00  0.00    +0.000 NA
ATOM     34  C   UNL     1      51.619   0.977  17.540  0.00  0.00    +0.000 A 
ATOM     35  N   UNL     1      50.670   1.880  17.135  0.00  0.00    +0.000 N 
ATOM     36  C   UNL     1      50.780   3.231  17.359  0.00  0.00    +0.000 A 
ATOM     37  O   UNL     1      49.891   4.005  17.038  0.00  0.00    +0.000 OA
ATOM     38  C   UNL     1      52.009   3.633  18.025  0.00  0.00    +0.000 A 
ATOM     39  H   UNL     1      49.822   1.569  16.683  0.00  0.00    +0.000 HD
ENDBRANCH  26  29
ENDBRANCH  24  25
ENDBRANCH   4  24
TORSDOF 11
ENDMDL
MODEL 5
REMARK VINA RESULT:    -5.880      1.769      2.229
REMARK INTER + INTRA:         -10.930
REMARK INTER:                  -9.878
REMARK INTRA:                  -1.052
REMARK UNBOUND:                -1.785
REMARK  Name = 
REMARK  11 active torsions:
REMARK  status: ('A' for Active; 'I' for Inactive)
REMARK    1  A    between atoms: N_1  and  C_2
REMARK    2  A    between atoms: C_2  and  C_3
REMARK    3  A    between atoms: C_2  and  C_14
REMARK    4  A    between atoms: C_3  and  N_4
REMARK    5  A    between atoms: C_7  and  C_8
REMARK    6  A    between atoms: C_8  and  O_9
REMARK    7  A    between atoms: C_10  and  C_11
REMARK    8  A    between atoms: C_11  and  O_12
REMARK    9  A    between atoms: C_17  and  C_18
REMARK   10  A    between atoms: C_18  and  N_19
REMARK   11  A    between atoms: C_20  and  C_22
REMARK                            x       y       z     vdW  Elec       q    Type
REMARK                         _______ _______ _______ _____ _____    ______ ____
ROOT
ATOM      1  C   UNL     1      48.394   7.557  14.248  0.00  0.00    +0.000 A 
ATOM      2  C   UNL     1      48.255   6.241  13.805  0.00  0.00    +0.000 A 
ATOM      3  C   UNL     1      47.171   5.882  13.017  0.00  0.00    +0.000 A 
ATOM      4  C   UNL     1      46.256   6.856  12.640  0.00  0.00    +0.000 A 
ATOM      5  C   UNL     1      46.417   8.126  13.173  0.00  0.00    +0.000 A 
ATOM      6  N   UNL     1      47.445   8.490  13.969  0.00  0.00    +0.000 NA
ENDROOT
BRANCH   1   7
ATOM      7  C   UNL     1      49.670   8.034  14.958  0.00  0.00    +0.000 C 
BRANCH   7   8
ATOM      8  N   UNL     1      49.924   9.476  14.719  0.00  0.00    +0.000 NA
ATOM      9  H   UNL     1      49.439   9.810  13.892  0.00  0.00    +0.000 HD
ATOM     10  H   UNL     1      50.926   9.604  14.591  0.00  0.00    +0.000 HD
ENDBRANCH   7   8
BRANCH   7  11
ATOM     11  C   UNL     1      49.691   7.735  16.493  0.00  0.00    +0.000 C 
BRANCH  11  12
ATOM     12  N   UNL     1      49.412   6.343  16.919  0.00  0.00    +0.000 NA
ATOM     13  C   UNL     1      50.604   5.665  17.452  0.00  0.00    +0.000 C 
ATOM     14  C   UNL     1      50.301   4.211  17.823  0.00  0.00    +0.000 C 
ATOM     15  C   UNL     1      49.117   4.098  18.794  0.00  0.00    +0.000 C 
ATOM     16  C   UNL     1      47.888   4.864  18.244  0.00  0.00    +0.000 C 
ATOM     17  C   UNL     1      48.278   6.301  17.848  0.00  0.00    +0.000 C 
BRANCH  15  18
ATOM     18  C   UNL     1      49.495   4.630  20.189  0.00  0.00    +0.000 C 
BRANCH  18  19
ATOM     19  O   UNL     1      50.884   4.484  20.435  0.00  0.00    +0.000 OA
ATOM     20  H   UNL     1      50.992   4.229  21.369  0.00  0.00    +0.000 HD
ENDBRANCH  18  19
ENDBRANCH  15  18
BRANCH  16  21
ATOM     21  C   UNL     1      47.203   4.140  17.071  0.00  0.00    +0.000 C 
BRANCH  21  22
ATOM     22  O   UNL     1      46.546   2.961  17.531  0.00  0.00    +0.000 OA
ATOM     23  H   UNL     1      47.153   2.506  18.140  0.00  0.00    +0.000 HD
ENDBRANCH  21  22
ENDBRANCH  16  21
ENDBRANCH  11  12
ENDBRANCH   7  11
ENDBRANCH   1   7
BRANCH   4  24
ATOM     24  C   UNL     1      45.127   6.546  11.716  0.00  0.00    +0.000 C 
BRANCH  24  25
ATOM     25  N   UNL     1      45.406   5.364  10.952  0.00  0.00    +0.000 N 
ATOM     26  C   UNL     1      44.405   4.710  10.289  0.00  0.00    +0.000 C 
ATOM     27  O   UNL     1      43.247   5.123  10.284  0.00  0.00    +0.000 OA
ATOM     28  H   UNL     1      46.292   4.897  11.116  0.00  0.00    +0.000 HD
BRANCH  26  29
ATOM     29  C   UNL     1      44.801   3.521   9.531  0.00  0.00    +0.000 A 
ATOM     30  C   UNL     1      44.184   2.309   9.799  0.00  0.00    +0.000 A 
ATOM     31  S   UNL     1      44.723   1.036   8.802  0.00  0.00    +0.000 S 
ATOM     32  C   UNL     1      45.836   2.053   8.011  0.00  0.00    +0.000 A 
ATOM     33  N   UNL     1      46.653   1.570   7.040  0.00  0.00    +0.000 NA
ATOM     34  C   UNL     1      47.464   2.444   6.541  0.00  0.00    +0.000 A 
ATOM     35  N   UNL     1      47.529   3.758   6.925  0.00  0.00    +0.000 N 
ATOM     36  C   UNL     1      46.704   4.299   7.882  0.00  0.00    +0.000 A 
ATOM     37  O   UNL     1      46.746   5.488   8.162  0.00  0.00    +0.000 OA
ATOM     38  C   UNL     1      45.782   3.351   8.487  0.00  0.00    +0.000 A 
ATOM     39  H   UNL     1      48.175   4.394   6.480  0.00  0.00    +0.000 HD
ENDBRANCH  26  29
ENDBRANCH  24  25
ENDBRANCH   4  24
TORSDOF 11
ENDMDL
MODEL 6
REMARK VINA RESULT:    -5.877      3.608      9.124
REMARK INTER + INTRA:         -10.926
REMARK INTER:                 -10.468
REMARK INTRA:                  -0.458
REMARK UNBOUND:                -1.785
REMARK  Name = 
REMARK  11 active torsions:
REMARK  status: ('A' for Active; 'I' for Inactive)
REMARK    1  A    between atoms: N_1  and  C_2
REMARK    2  A    between atoms: C_2  and  C_3
REMARK    3  A    between atoms: C_2  and  C_14
REMARK    4  A    between atoms: C_3  and  N_4
REMARK    5  A    between atoms: C_7  and  C_8
REMARK    6  A    between atoms: C_8  and  O_9
REMARK    7  A    between atoms: C_10  and  C_11
REMARK    8  A    between atoms: C_11  and  O_12
REMARK    9  A    between atoms: C_17  and  C_18
REMARK   10  A    between atoms: C_18  and  N_19
REMARK   11  A    between atoms: C_20  and  C_22
REMARK                            x       y       z     vdW  Elec       q    Type
REMARK                         _______ _______ _______ _____ _____    ______ ____
ROOT
ATOM      1  C   UNL     1      47.923   5.848  15.103  0.00  0.00    +0.000 A 
ATOM      2  C   UNL     1      48.736   6.250  16.163  0.00  0.00    +0.000 A 
ATOM      3  C   UNL     1      48.983   5.385  17.221  0.00  0.00    +0.000 A 
ATOM      4  C   UNL     1      48.447   4.105  17.185  0.00  0.00    +0.000 A 
ATOM      5  C   UNL     1      47.592   3.797  16.137  0.00  0.00    +0.000 A 
ATOM      6  N   UNL     1      47.311   4.634  15.116  0.00  0.00    +0.000 NA
ENDROOT
BRANCH   1   7
ATOM      7  C   UNL     1      47.781   6.701  13.833  0.00  0.00    +0.000 C 
BRANCH   7   8
ATOM      8  N   UNL     1      49.007   7.493  13.566  0.00  0.00    +0.000 NA
ATOM      9  H   UNL     1      48.790   8.462  13.356  0.00  0.00    +0.000 HD
ATOM     10  H   UNL     1      49.485   7.078  12.769  0.00  0.00    +0.000 HD
ENDBRANCH   7   8
BRANCH   7  11
ATOM     11  C   UNL     1      47.386   5.883  12.560  0.00  0.00    +0.000 C 
BRANCH  11  12
ATOM     12  N   UNL     1      45.941   5.655  12.320  0.00  0.00    +0.000 NA
ATOM     13  C   UNL     1      45.474   6.265  11.065  0.00  0.00    +0.000 C 
ATOM     14  C   UNL     1      43.967   6.069  10.875  0.00  0.00    +0.000 C 
ATOM     15  C   UNL     1      43.563   4.590  10.959  0.00  0.00    +0.000 C 
ATOM     16  C   UNL     1      44.110   3.950  12.260  0.00  0.00    +0.000 C 
ATOM     17  C   UNL     1      45.618   4.227  12.407  0.00  0.00    +0.000 C 
BRANCH  15  18
ATOM     18  C   UNL     1      44.064   3.811   9.730  0.00  0.00    +0.000 C 
BRANCH  18  19
ATOM     19  O   UNL     1      43.778   4.507   8.528  0.00  0.00    +0.000 OA
ATOM     20  H   UNL     1      43.332   5.339   8.769  0.00  0.00    +0.000 HD
ENDBRANCH  18  19
ENDBRANCH  15  18
BRANCH  16  21
ATOM     21  C   UNL     1      43.345   4.397  13.519  0.00  0.00    +0.000 C 
BRANCH  21  22
ATOM     22  O   UNL     1      42.769   5.685  13.317  0.00  0.00    +0.000 OA
ATOM     23  H   UNL     1      42.626   5.797  12.361  0.00  0.00    +0.000 HD
ENDBRANCH  21  22
ENDBRANCH  16  21
ENDBRANCH  11  12
ENDBRANCH   7  11
ENDBRANCH   1   7
BRANCH   4  24
ATOM     24  C   UNL     1      48.758   3.103  18.245  0.00  0.00    +0.000 C 
BRANCH  24  25
ATOM     25  N   UNL     1      50.174   2.887  18.340  0.00  0.00    +0.000 N 
ATOM     26  C   UNL     1      50.829   2.139  17.402  0.00  0.00    +0.000 C 
ATOM     27  O   UNL     1      50.252   1.663  16.427  0.00  0.00    +0.000 OA
ATOM     28  H   UNL     1      50.619   3.086  19.230  0.00  0.00    +0.000 HD
BRANCH  26  29
ATOM     29  C   UNL     1      52.274   1.990  17.590  0.00  0.00    +0.000 A 
ATOM     30  C   UNL     1      52.819   0.719  17.682  0.00  0.00    +0.000 A 
ATOM     31  S   UNL     1      54.515   0.716  17.851  0.00  0.00    +0.000 S 
ATOM     32  C   UNL     1      54.573   2.417  17.857  0.00  0.00    +0.000 A 
ATOM     33  N   UNL     1      55.752   3.074  18.000  0.00  0.00    +0.000 NA
ATOM     34  C   UNL     1      55.649   4.362  18.011  0.00  0.00    +0.000 A 
ATOM     35  N   UNL     1      54.471   5.052  17.888  0.00  0.00    +0.000 N 
ATOM     36  C   UNL     1      53.257   4.433  17.713  0.00  0.00    +0.000 A 
ATOM     37  O   UNL     1      52.231   5.076  17.548  0.00  0.00    +0.000 OA
ATOM     38  C   UNL     1      53.317   2.980  17.710  0.00  0.00    +0.000 A 
ATOM     39  H   UNL     1      54.462   6.062  17.886  0.00  0.00    +0.000 HD
ENDBRANCH  26  29
ENDBRANCH  24  25
ENDBRANCH   4  24
TORSDOF 11
ENDMDL
MODEL 7
REMARK VINA RESULT:    -5.668      2.462      3.496
REMARK INTER + INTRA:         -10.601
REMARK INTER:                  -8.439
REMARK INTRA:                  -2.163
REMARK UNBOUND:                -1.785
REMARK  Name = 
REMARK  11 active torsions:
REMARK  status: ('A' for Active; 'I' for Inactive)
REMARK    1  A    between atoms: N_1  and  C_2
REMARK    2  A    between atoms: C_2  and  C_3
REMARK    3  A    between atoms: C_2  and  C_14
REMARK    4  A    between atoms: C_3  and  N_4
REMARK    5  A    between atoms: C_7  and  C_8
REMARK    6  A    between atoms: C_8  and  O_9
REMARK    7  A    between atoms: C_10  and  C_11
REMARK    8  A    between atoms: C_11  and  O_12
REMARK    9  A    between atoms: C_17  and  C_18
REMARK   10  A    between atoms: C_18  and  N_19
REMARK   11  A    between atoms: C_20  and  C_22
REMARK                            x       y       z     vdW  Elec       q    Type
REMARK                         _______ _______ _______ _____ _____    ______ ____
ROOT
ATOM      1  C   UNL     1      50.987   7.476  16.761  0.00  0.00    +0.000 A 
ATOM      2  C   UNL     1      49.912   8.039  17.449  0.00  0.00    +0.000 A 
ATOM      3  C   UNL     1      48.944   8.760  16.763  0.00  0.00    +0.000 A 
ATOM      4  C   UNL     1      49.037   8.872  15.383  0.00  0.00    +0.000 A 
ATOM      5  C   UNL     1      50.168   8.349  14.772  0.00  0.00    +0.000 A 
ATOM      6  N   UNL     1      51.138   7.674  15.424  0.00  0.00    +0.000 NA
ENDROOT
BRANCH   1   7
ATOM      7  C   UNL     1      51.969   6.519  17.452  0.00  0.00    +0.000 C 
BRANCH   7   8
ATOM      8  N   UNL     1      53.298   7.148  17.652  0.00  0.00    +0.000 NA
ATOM      9  H   UNL     1      53.266   8.150  17.495  0.00  0.00    +0.000 HD
ATOM     10  H   UNL     1      53.950   6.728  16.993  0.00  0.00    +0.000 HD
ENDBRANCH   7   8
BRANCH   7  11
ATOM     11  C   UNL     1      51.443   5.938  18.806  0.00  0.00    +0.000 C 
BRANCH  11  12
ATOM     12  N   UNL     1      50.655   4.684  18.748  0.00  0.00    +0.000 NA
ATOM     13  C   UNL     1      49.406   4.765  19.522  0.00  0.00    +0.000 C 
ATOM     14  C   UNL     1      48.646   3.436  19.496  0.00  0.00    +0.000 C 
ATOM     15  C   UNL     1      48.381   2.951  18.063  0.00  0.00    +0.000 C 
ATOM     16  C   UNL     1      49.697   2.925  17.246  0.00  0.00    +0.000 C 
ATOM     17  C   UNL     1      50.430   4.276  17.357  0.00  0.00    +0.000 C 
BRANCH  15  18
ATOM     18  C   UNL     1      47.337   3.840  17.364  0.00  0.00    +0.000 C 
BRANCH  18  19
ATOM     19  O   UNL     1      47.114   3.417  16.028  0.00  0.00    +0.000 OA
ATOM     20  H   UNL     1      47.005   4.216  15.481  0.00  0.00    +0.000 HD
ENDBRANCH  18  19
ENDBRANCH  15  18
BRANCH  16  21
ATOM     21  C   UNL     1      50.628   1.764  17.640  0.00  0.00    +0.000 C 
BRANCH  21  22
ATOM     22  O   UNL     1      51.893   2.265  18.065  0.00  0.00    +0.000 OA
ATOM     23  H   UNL     1      51.853   3.236  18.022  0.00  0.00    +0.000 HD
ENDBRANCH  21  22
ENDBRANCH  16  21
ENDBRANCH  11  12
ENDBRANCH   7  11
ENDBRANCH   1   7
BRANCH   4  24
ATOM     24  C   UNL     1      47.976   9.551  14.585  0.00  0.00    +0.000 C 
BRANCH  24  25
ATOM     25  N   UNL     1      47.023   8.598  14.091  0.00  0.00    +0.000 N 
ATOM     26  C   UNL     1      46.917   8.349  12.751  0.00  0.00    +0.000 C 
ATOM     27  O   UNL     1      47.652   8.890  11.927  0.00  0.00    +0.000 OA
ATOM     28  H   UNL     1      46.281   8.309  14.719  0.00  0.00    +0.000 HD
BRANCH  26  29
ATOM     29  C   UNL     1      45.921   7.352  12.357  0.00  0.00    +0.000 A 
ATOM     30  C   UNL     1      44.791   7.759  11.663  0.00  0.00    +0.000 A 
ATOM     31  S   UNL     1      43.755   6.474  11.238  0.00  0.00    +0.000 S 
ATOM     32  C   UNL     1      44.757   5.336  12.011  0.00  0.00    +0.000 A 
ATOM     33  N   UNL     1      44.424   4.020  12.040  0.00  0.00    +0.000 NA
ATOM     34  C   UNL     1      45.261   3.271  12.679  0.00  0.00    +0.000 A 
ATOM     35  N   UNL     1      46.403   3.720  13.289  0.00  0.00    +0.000 N 
ATOM     36  C   UNL     1      46.797   5.036  13.261  0.00  0.00    +0.000 A 
ATOM     37  O   UNL     1      47.851   5.398  13.764  0.00  0.00    +0.000 OA
ATOM     38  C   UNL     1      45.879   5.925  12.567  0.00  0.00    +0.000 A 
ATOM     39  H   UNL     1      47.026   3.077  13.757  0.00  0.00    +0.000 HD
ENDBRANCH  26  29
ENDBRANCH  24  25
ENDBRANCH   4  24
TORSDOF 11
ENDMDL
MODEL 8
REMARK VINA RESULT:    -5.651      5.097      7.881
REMARK INTER + INTRA:         -10.574
REMARK INTER:                  -9.331
REMARK INTRA:                  -1.243
REMARK UNBOUND:                -1.785
REMARK  Name = 
REMARK  11 active torsions:
REMARK  status: ('A' for Active; 'I' for Inactive)
REMARK    1  A    between atoms: N_1  and  C_2
REMARK    2  A    between atoms: C_2  and  C_3
REMARK    3  A    between atoms: C_2  and  C_14
REMARK    4  A    between atoms: C_3  and  N_4
REMARK    5  A    between atoms: C_7  and  C_8
REMARK    6  A    between atoms: C_8  and  O_9
REMARK    7  A    between atoms: C_10  and  C_11
REMARK    8  A    between atoms: C_11  and  O_12
REMARK    9  A    between atoms: C_17  and  C_18
REMARK   10  A    between atoms: C_18  and  N_19
REMARK   11  A    between atoms: C_20  and  C_22
REMARK                            x       y       z     vdW  Elec       q    Type
REMARK                         _______ _______ _______ _____ _____    ______ ____
ROOT
ATOM      1  C   UNL     1      48.050   8.582  12.833  0.00  0.00    +0.000 A 
ATOM      2  C   UNL     1      48.450   9.491  11.853  0.00  0.00    +0.000 A 
ATOM      3  C   UNL     1      49.792   9.610  11.518  0.00  0.00    +0.000 A 
ATOM      4  C   UNL     1      50.719   8.783  12.138  0.00  0.00    +0.000 A 
ATOM      5  C   UNL     1      50.261   7.953  13.151  0.00  0.00    +0.000 A 
ATOM      6  N   UNL     1      48.966   7.847  13.516  0.00  0.00    +0.000 NA
ENDROOT
BRANCH   1   7
ATOM      7  C   UNL     1      46.565   8.289  13.095  0.00  0.00    +0.000 C 
BRANCH   7   8
ATOM      8  N   UNL     1      45.693   8.924  12.076  0.00  0.00    +0.000 NA
ATOM      9  H   UNL     1      46.168   9.023  11.185  0.00  0.00    +0.000 HD
ATOM     10  H   UNL     1      45.428   9.847  12.417  0.00  0.00    +0.000 HD
ENDBRANCH   7   8
BRANCH   7  11
ATOM     11  C   UNL     1      46.230   6.765  13.209  0.00  0.00    +0.000 C 
BRANCH  11  12
ATOM     12  N   UNL     1      45.215   6.220  12.276  0.00  0.00    +0.000 NA
ATOM     13  C   UNL     1      45.802   5.334  11.258  0.00  0.00    +0.000 C 
ATOM     14  C   UNL     1      44.742   4.839  10.271  0.00  0.00    +0.000 C 
ATOM     15  C   UNL     1      43.562   4.162  10.983  0.00  0.00    +0.000 C 
ATOM     16  C   UNL     1      42.992   5.086  12.088  0.00  0.00    +0.000 C 
ATOM     17  C   UNL     1      44.119   5.583  13.013  0.00  0.00    +0.000 C 
BRANCH  15  18
ATOM     18  C   UNL     1      43.983   2.809  11.585  0.00  0.00    +0.000 C 
BRANCH  18  19
ATOM     19  O   UNL     1      42.882   1.919  11.671  0.00  0.00    +0.000 OA
ATOM     20  H   UNL     1      43.238   1.024  11.822  0.00  0.00    +0.000 HD
ENDBRANCH  18  19
ENDBRANCH  15  18
BRANCH  16  21
ATOM     21  C   UNL     1      42.183   6.269  11.526  0.00  0.00    +0.000 C 
BRANCH  21  22
ATOM     22  O   UNL     1      43.031   7.396  11.323  0.00  0.00    +0.000 OA
ATOM     23  H   UNL     1      42.811   7.776  10.454  0.00  0.00    +0.000 HD
ENDBRANCH  21  22
ENDBRANCH  16  21
ENDBRANCH  11  12
ENDBRANCH   7  11
ENDBRANCH   1   7
BRANCH   4  24
ATOM     24  C   UNL     1      52.158   8.800  11.748  0.00  0.00    +0.000 C 
BRANCH  24  25
ATOM     25  N   UNL     1      52.330   8.298  10.415  0.00  0.00    +0.000 N 
ATOM     26  C   UNL     1      53.355   8.745   9.628  0.00  0.00    +0.000 C 
ATOM     27  O   UNL     1      54.188   9.551  10.038  0.00  0.00    +0.000 OA
ATOM     28  H   UNL     1      51.548   7.806   9.994  0.00  0.00    +0.000 HD
BRANCH  26  29
ATOM     29  C   UNL     1      53.444   8.160   8.289  0.00  0.00    +0.000 A 
ATOM     30  C   UNL     1      53.379   8.990   7.181  0.00  0.00    +0.000 A 
ATOM     31  S   UNL     1      53.544   8.161   5.700  0.00  0.00    +0.000 S 
ATOM     32  C   UNL     1      53.658   6.658   6.490  0.00  0.00    +0.000 A 
ATOM     33  N   UNL     1      53.790   5.507   5.782  0.00  0.00    +0.000 NA
ATOM     34  C   UNL     1      53.841   4.437   6.506  0.00  0.00    +0.000 A 
ATOM     35  N   UNL     1      53.776   4.417   7.875  0.00  0.00    +0.000 N 
ATOM     36  C   UNL     1      53.671   5.557   8.635  0.00  0.00    +0.000 A 
ATOM     37  O   UNL     1      53.673   5.511   9.856  0.00  0.00    +0.000 OA
ATOM     38  C   UNL     1      53.593   6.789   7.866  0.00  0.00    +0.000 A 
ATOM     39  H   UNL     1      53.841   3.546   8.382  0.00  0.00    +0.000 HD
ENDBRANCH  26  29
ENDBRANCH  24  25
ENDBRANCH   4  24
TORSDOF 11
ENDMDL
MODEL 9
REMARK VINA RESULT:    -5.516      3.711      8.079
REMARK INTER + INTRA:         -10.365
REMARK INTER:                  -8.712
REMARK INTRA:                  -1.653
REMARK UNBOUND:                -1.785
REMARK  Name = 
REMARK  11 active torsions:
REMARK  status: ('A' for Active; 'I' for Inactive)
REMARK    1  A    between atoms: N_1  and  C_2
REMARK    2  A    between atoms: C_2  and  C_3
REMARK    3  A    between atoms: C_2  and  C_14
REMARK    4  A    between atoms: C_3  and  N_4
REMARK    5  A    between atoms: C_7  and  C_8
REMARK    6  A    between atoms: C_8  and  O_9
REMARK    7  A    between atoms: C_10  and  C_11
REMARK    8  A    between atoms: C_11  and  O_12
REMARK    9  A    between atoms: C_17  and  C_18
REMARK   10  A    between atoms: C_18  and  N_19
REMARK   11  A    between atoms: C_20  and  C_22
REMARK                            x       y       z     vdW  Elec       q    Type
REMARK                         _______ _______ _______ _____ _____    ______ ____
ROOT
ATOM      1  C   UNL     1      46.972   9.012  12.620  0.00  0.00    +0.000 A 
ATOM      2  C   UNL     1      47.511  10.076  11.895  0.00  0.00    +0.000 A 
ATOM      3  C   UNL     1      48.872  10.117  11.625  0.00  0.00    +0.000 A 
ATOM      4  C   UNL     1      49.677   9.067  12.045  0.00  0.00    +0.000 A 
ATOM      5  C   UNL     1      49.087   8.078  12.820  0.00  0.00    +0.000 A 
ATOM      6  N   UNL     1      47.773   8.036  13.124  0.00  0.00    +0.000 NA
ENDROOT
BRANCH   1   7
ATOM      7  C   UNL     1      45.454   8.835  12.775  0.00  0.00    +0.000 C 
BRANCH   7   8
ATOM      8  N   UNL     1      44.724  10.094  12.486  0.00  0.00    +0.000 NA
ATOM      9  H   UNL     1      44.605  10.660  13.320  0.00  0.00    +0.000 HD
ATOM     10  H   UNL     1      43.807   9.850  12.116  0.00  0.00    +0.000 HD
ENDBRANCH   7   8
BRANCH   7  11
ATOM     11  C   UNL     1      44.861   7.665  11.923  0.00  0.00    +0.000 C 
BRANCH  11  12
ATOM     12  N   UNL     1      44.829   6.320  12.545  0.00  0.00    +0.000 NA
ATOM     13  C   UNL     1      43.529   5.650  12.375  0.00  0.00    +0.000 C 
ATOM     14  C   UNL     1      43.505   4.292  13.081  0.00  0.00    +0.000 C 
ATOM     15  C   UNL     1      44.660   3.386  12.630  0.00  0.00    +0.000 C 
ATOM     16  C   UNL     1      46.014   4.126  12.764  0.00  0.00    +0.000 C 
ATOM     17  C   UNL     1      45.950   5.502  12.072  0.00  0.00    +0.000 C 
BRANCH  15  18
ATOM     18  C   UNL     1      44.454   2.909  11.181  0.00  0.00    +0.000 C 
BRANCH  18  19
ATOM     19  O   UNL     1      43.299   2.093  11.068  0.00  0.00    +0.000 OA
ATOM     20  H   UNL     1      43.444   1.301  11.617  0.00  0.00    +0.000 HD
ENDBRANCH  18  19
ENDBRANCH  15  18
BRANCH  16  21
ATOM     21  C   UNL     1      46.482   4.269  14.223  0.00  0.00    +0.000 C 
BRANCH  21  22
ATOM     22  O   UNL     1      46.980   5.584  14.457  0.00  0.00    +0.000 OA
ATOM     23  H   UNL     1      46.555   6.178  13.814  0.00  0.00    +0.000 HD
ENDBRANCH  21  22
ENDBRANCH  16  21
ENDBRANCH  11  12
ENDBRANCH   7  11
ENDBRANCH   1   7
BRANCH   4  24
ATOM     24  C   UNL     1      51.126   9.012  11.699  0.00  0.00    +0.000 C 
BRANCH  24  25
ATOM     25  N   UNL     1      51.846   8.216  12.651  0.00  0.00    +0.000 N 
ATOM     26  C   UNL     1      52.573   8.808  13.646  0.00  0.00    +0.000 C 
ATOM     27  O   UNL     1      52.607  10.028  13.793  0.00  0.00    +0.000 OA
ATOM     28  H   UNL     1      52.002   7.239  12.424  0.00  0.00    +0.000 HD
BRANCH  26  29
ATOM     29  C   UNL     1      53.261   7.903  14.569  0.00  0.00    +0.000 A 
ATOM     30  C   UNL     1      54.640   7.779  14.496  0.00  0.00    +0.000 A 
ATOM     31  S   UNL     1      55.290   6.724  15.667  0.00  0.00    +0.000 S 
ATOM     32  C   UNL     1      53.745   6.360  16.279  0.00  0.00    +0.000 A 
ATOM     33  N   UNL     1      53.589   5.479  17.300  0.00  0.00    +0.000 NA
ATOM     34  C   UNL     1      52.361   5.277  17.650  0.00  0.00    +0.000 A 
ATOM     35  N   UNL     1      51.275   5.881  17.071  0.00  0.00    +0.000 N 
ATOM     36  C   UNL     1      51.384   6.800  16.056  0.00  0.00    +0.000 A 
ATOM     37  O   UNL     1      50.402   7.365  15.599  0.00  0.00    +0.000 OA
ATOM     38  C   UNL     1      52.747   7.050  15.613  0.00  0.00    +0.000 A 
ATOM     39  H   UNL     1      50.341   5.693  17.406  0.00  0.00    +0.000 HD
ENDBRANCH  26  29
ENDBRANCH  24  25
ENDBRANCH   4  24
TORSDOF 11
ENDMDL
