MODEL 1
REMARK VINA RESULT:    -8.651      0.000      0.000
REMARK INTER + INTRA:         -12.502
REMARK INTER:                 -11.433
REMARK INTRA:                  -1.069
REMARK UNBOUND:                -1.069
REMARK  Name = 
REMARK  6 active torsions:
REMARK  status: ('A' for Active; 'I' for Inactive)
REMARK    1  A    between atoms: C_2  and  C_4
REMARK    2  A    between atoms: C_7  and  O_8
REMARK    3  A    between atoms: O_8  and  C_9
REMARK    4  A    between atoms: C_9  and  C_10
REMARK    5  A    between atoms: C_14  and  C_15
REMARK    6  A    between atoms: C_19  and  O_20
REMARK                            x       y       z     vdW  Elec       q    Type
REMARK                         _______ _______ _______ _____ _____    ______ ____
ROOT
ATOM      1  C   UNL     1      43.779   4.873  11.325  0.00  0.00    +0.000 C 
ATOM      2  C   UNL     1      42.524   5.236  12.112  0.00  0.00    +0.000 C 
ATOM      3  C   UNL     1      42.952   6.087  10.961  0.00  0.00    +0.000 C 
ENDROOT
BRANCH   1   4
ATOM      4  C   UNL     1      45.104   5.004  12.061  0.00  0.00    +0.000 A 
ATOM      5  C   UNL     1      45.517   4.021  12.972  0.00  0.00    +0.000 A 
ATOM      6  C   UNL     1      46.738   4.119  13.637  0.00  0.00    +0.000 A 
ATOM      7  C   UNL     1      47.575   5.209  13.396  0.00  0.00    +0.000 A 
ATOM      8  C   UNL     1      47.225   6.216  12.481  0.00  0.00    +0.000 A 
ATOM      9  C   UNL     1      45.979   6.087  11.835  0.00  0.00    +0.000 A 
BRANCH   8  10
ATOM     10  C   UNL     1      48.137   7.350  12.201  0.00  0.00    +0.000 A 
ATOM     11  C   UNL     1      47.660   8.663  12.025  0.00  0.00    +0.000 A 
ATOM     12  C   UNL     1      48.532   9.730  11.769  0.00  0.00    +0.000 A 
ATOM     13  C   UNL     1      49.906   9.511  11.703  0.00  0.00    +0.000 A 
ATOM     14  C   UNL     1      50.393   8.224  11.881  0.00  0.00    +0.000 A 
ATOM     15  C   UNL     1      49.527   7.157  12.106  0.00  0.00    +0.000 A 
BRANCH  14  16
ATOM     16  O   UNL     1      51.730   7.958  11.850  0.00  0.00    +0.000 OA
ATOM     17  H   UNL     1      51.992   7.603  12.715  0.00  0.00    +0.000 HD
ENDBRANCH  14  16
ENDBRANCH   8  10
ENDBRANCH   1   4
BRANCH   1  18
ATOM     18  O   UNL     1      43.570   3.678  10.536  0.00  0.00    +0.000 OA
BRANCH  18  22
ATOM     19  C   UNL     1      46.339   2.689   7.647  0.00  0.00    +0.000 A 
ATOM     20  C   UNL     1      45.811   1.707   8.483  0.00  0.00    +0.000 A 
ATOM     21  C   UNL     1      44.875   2.071   9.446  0.00  0.00    +0.000 A 
ATOM     22  C   UNL     1      44.491   3.401   9.538  0.00  0.00    +0.000 A 
ATOM     23  N   UNL     1      44.961   4.373   8.729  0.00  0.00    +0.000 NA
ATOM     24  C   UNL     1      45.895   3.998   7.814  0.00  0.00    +0.000 A 
BRANCH  19  26
ATOM     25  N   UNL     1      47.363   3.144   5.481  0.00  0.00    +0.000 N 
ATOM     26  C   UNL     1      47.374   2.399   6.628  0.00  0.00    +0.000 C 
ATOM     27  O   UNL     1      48.226   1.538   6.809  0.00  0.00    +0.000 OA
ATOM     28  H   UNL     1      48.114   2.977   4.822  0.00  0.00    +0.000 HD
ATOM     29  H   UNL     1      46.836   4.002   5.383  0.00  0.00    +0.000 HD
ENDBRANCH  19  26
ENDBRANCH  18  22
ENDBRANCH   1  18
TORSDOF 6
ENDMDL
MODEL 2
REMARK VINA RESULT:    -8.497      2.351      3.764
REMARK INTER + INTRA:         -12.298
REMARK INTER:                 -11.817
REMARK INTRA:                  -0.482
REMARK UNBOUND:                -1.069
REMARK  Name = 
REMARK  6 active torsions:
REMARK  status: ('A' for Active; 'I' for Inactive)
REMARK    1  A    between atoms: C_2  and  C_4
REMARK    2  A    between atoms: C_7  and  O_8
REMARK    3  A    between atoms: O_8  and  C_9
REMARK    4  A    between atoms: C_9  and  C_10
REMARK    5  A    between atoms: C_14  and  C_15
REMARK    6  A    between atoms: C_19  and  O_20
REMARK                            x       y       z     vdW  Elec       q    Type
REMARK                         _______ _______ _______ _____ _____    ______ ____
ROOT
ATOM      1  C   UNL     1      44.105   4.942  11.456  0.00  0.00    +0.000 C 
ATOM      2  C   UNL     1      42.875   5.176  12.329  0.00  0.00    +0.000 C 
ATOM      3  C   UNL     1      43.022   5.912  11.037  0.00  0.00    +0.000 C 
ENDROOT
BRANCH   1   4
ATOM      4  C   UNL     1      45.435   5.425  12.014  0.00  0.00    +0.000 A 
ATOM      5  C   UNL     1      46.248   6.298  11.276  0.00  0.00    +0.000 A 
ATOM      6  C   UNL     1      47.458   6.764  11.786  0.00  0.00    +0.000 A 
ATOM      7  C   UNL     1      47.878   6.365  13.055  0.00  0.00    +0.000 A 
ATOM      8  C   UNL     1      47.099   5.507  13.850  0.00  0.00    +0.000 A 
ATOM      9  C   UNL     1      45.885   5.050  13.298  0.00  0.00    +0.000 A 
BRANCH   8  10
ATOM     10  C   UNL     1      47.532   5.120  15.213  0.00  0.00    +0.000 A 
ATOM     11  C   UNL     1      48.544   5.819  15.899  0.00  0.00    +0.000 A 
ATOM     12  C   UNL     1      48.941   5.450  17.192  0.00  0.00    +0.000 A 
ATOM     13  C   UNL     1      48.319   4.383  17.838  0.00  0.00    +0.000 A 
ATOM     14  C   UNL     1      47.316   3.688  17.178  0.00  0.00    +0.000 A 
ATOM     15  C   UNL     1      46.940   4.033  15.882  0.00  0.00    +0.000 A 
BRANCH  14  16
ATOM     16  O   UNL     1      46.659   2.651  17.771  0.00  0.00    +0.000 OA
ATOM     17  H   UNL     1      47.253   2.245  18.424  0.00  0.00    +0.000 HD
ENDBRANCH  14  16
ENDBRANCH   8  10
ENDBRANCH   1   4
BRANCH   1  18
ATOM     18  O   UNL     1      44.073   3.625  10.856  0.00  0.00    +0.000 OA
BRANCH  18  22
ATOM     19  C   UNL     1      46.354   2.872   7.507  0.00  0.00    +0.000 A 
ATOM     20  C   UNL     1      46.020   1.837   8.379  0.00  0.00    +0.000 A 
ATOM     21  C   UNL     1      45.245   2.123   9.500  0.00  0.00    +0.000 A 
ATOM     22  C   UNL     1      44.823   3.428   9.708  0.00  0.00    +0.000 A 
ATOM     23  N   UNL     1      45.106   4.448   8.871  0.00  0.00    +0.000 NA
ATOM     24  C   UNL     1      45.888   4.150   7.799  0.00  0.00    +0.000 A 
BRANCH  19  26
ATOM     25  N   UNL     1      48.485   2.203   6.527  0.00  0.00    +0.000 N 
ATOM     26  C   UNL     1      47.215   2.667   6.319  0.00  0.00    +0.000 C 
ATOM     27  O   UNL     1      46.803   2.885   5.186  0.00  0.00    +0.000 OA
ATOM     28  H   UNL     1      49.039   2.009   5.701  0.00  0.00    +0.000 HD
ATOM     29  H   UNL     1      48.790   1.799   7.402  0.00  0.00    +0.000 HD
ENDBRANCH  19  26
ENDBRANCH  18  22
ENDBRANCH   1  18
TORSDOF 6
ENDMDL
MODEL 3
REMARK VINA RESULT:    -8.188      3.356      7.212
REMARK INTER + INTRA:         -11.890
REMARK INTER:                 -11.053
REMARK INTRA:                  -0.837
REMARK UNBOUND:                -1.069
REMARK  Name = 
REMARK  6 active torsions:
REMARK  status: ('A' for Active; 'I' for Inactive)
REMARK    1  A    between atoms: C_2  and  C_4
REMARK    2  A    between atoms: C_7  and  O_8
REMARK    3  A    between atoms: O_8  and  C_9
REMARK    4  A    between atoms: C_9  and  C_10
REMARK    5  A    between atoms: C_14  and  C_15
REMARK    6  A    between atoms: C_19  and  O_20
REMARK                            x       y       z     vdW  Elec       q    Type
REMARK                         _______ _______ _______ _____ _____    ______ ____
ROOT
ATOM      1  C   UNL     1      46.207   7.032  12.133  0.00  0.00    +0.000 C 
ATOM      2  C   UNL     1      46.268   8.462  11.606  0.00  0.00    +0.000 C 
ATOM      3  C   UNL     1      45.581   8.175  12.901  0.00  0.00    +0.000 C 
ENDROOT
BRANCH   1   4
ATOM      4  C   UNL     1      45.361   6.051  11.337  0.00  0.00    +0.000 A 
ATOM      5  C   UNL     1      43.974   5.975  11.534  0.00  0.00    +0.000 A 
ATOM      6  C   UNL     1      43.186   5.095  10.795  0.00  0.00    +0.000 A 
ATOM      7  C   UNL     1      43.775   4.272   9.835  0.00  0.00    +0.000 A 
ATOM      8  C   UNL     1      45.156   4.315   9.579  0.00  0.00    +0.000 A 
ATOM      9  C   UNL     1      45.922   5.211  10.352  0.00  0.00    +0.000 A 
BRANCH   8  10
ATOM     10  C   UNL     1      45.769   3.466   8.530  0.00  0.00    +0.000 A 
ATOM     11  C   UNL     1      46.248   4.007   7.321  0.00  0.00    +0.000 A 
ATOM     12  C   UNL     1      46.834   3.197   6.339  0.00  0.00    +0.000 A 
ATOM     13  C   UNL     1      46.973   1.827   6.551  0.00  0.00    +0.000 A 
ATOM     14  C   UNL     1      46.511   1.280   7.740  0.00  0.00    +0.000 A 
ATOM     15  C   UNL     1      45.902   2.077   8.705  0.00  0.00    +0.000 A 
BRANCH  14  16
ATOM     16  O   UNL     1      46.642  -0.051   8.009  0.00  0.00    +0.000 OA
ATOM     17  H   UNL     1      47.061  -0.479   7.245  0.00  0.00    +0.000 HD
ENDBRANCH  14  16
ENDBRANCH   8  10
ENDBRANCH   1   4
BRANCH   1  18
ATOM     18  O   UNL     1      47.512   6.584  12.572  0.00  0.00    +0.000 OA
BRANCH  18  22
ATOM     19  C   UNL     1      47.555   4.340  16.029  0.00  0.00    +0.000 A 
ATOM     20  C   UNL     1      46.813   3.921  14.926  0.00  0.00    +0.000 A 
ATOM     21  C   UNL     1      46.822   4.698  13.771  0.00  0.00    +0.000 A 
ATOM     22  C   UNL     1      47.576   5.862  13.753  0.00  0.00    +0.000 A 
ATOM     23  N   UNL     1      48.326   6.284  14.793  0.00  0.00    +0.000 NA
ATOM     24  C   UNL     1      48.280   5.523  15.919  0.00  0.00    +0.000 A 
BRANCH  19  26
ATOM     25  N   UNL     1      48.597   3.842  18.177  0.00  0.00    +0.000 N 
ATOM     26  C   UNL     1      47.565   3.600  17.313  0.00  0.00    +0.000 C 
ATOM     27  O   UNL     1      46.672   2.814  17.604  0.00  0.00    +0.000 OA
ATOM     28  H   UNL     1      48.556   3.376  19.076  0.00  0.00    +0.000 HD
ATOM     29  H   UNL     1      49.222   4.632  18.086  0.00  0.00    +0.000 HD
ENDBRANCH  19  26
ENDBRANCH  18  22
ENDBRANCH   1  18
TORSDOF 6
ENDMDL
MODEL 4
REMARK VINA RESULT:    -7.276      3.401      7.363
REMARK INTER + INTRA:         -10.685
REMARK INTER:                  -9.948
REMARK INTRA:                  -0.737
REMARK UNBOUND:                -1.069
REMARK  Name = 
REMARK  6 active torsions:
REMARK  status: ('A' for Active; 'I' for Inactive)
REMARK    1  A    between atoms: C_2  and  C_4
REMARK    2  A    between atoms: C_7  and  O_8
REMARK    3  A    between atoms: O_8  and  C_9
REMARK    4  A    between atoms: C_9  and  C_10
REMARK    5  A    between atoms: C_14  and  C_15
REMARK    6  A    between atoms: C_19  and  O_20
REMARK                            x       y       z     vdW  Elec       q    Type
REMARK                         _______ _______ _______ _____ _____    ______ ____
ROOT
ATOM      1  C   UNL     1      47.506   7.790  12.785  0.00  0.00    +0.000 C 
ATOM      2  C   UNL     1      48.086   8.950  11.982  0.00  0.00    +0.000 C 
ATOM      3  C   UNL     1      47.426   9.212  13.297  0.00  0.00    +0.000 C 
ENDROOT
BRANCH   1   4
ATOM      4  C   UNL     1      46.296   7.090  12.187  0.00  0.00    +0.000 A 
ATOM      5  C   UNL     1      44.996   7.458  12.565  0.00  0.00    +0.000 A 
ATOM      6  C   UNL     1      43.878   6.838  12.008  0.00  0.00    +0.000 A 
ATOM      7  C   UNL     1      44.043   5.834  11.054  0.00  0.00    +0.000 A 
ATOM      8  C   UNL     1      45.319   5.434  10.623  0.00  0.00    +0.000 A 
ATOM      9  C   UNL     1      46.425   6.077  11.213  0.00  0.00    +0.000 A 
BRANCH   8  10
ATOM     10  C   UNL     1      45.485   4.394   9.580  0.00  0.00    +0.000 A 
ATOM     11  C   UNL     1      45.014   3.079   9.757  0.00  0.00    +0.000 A 
ATOM     12  C   UNL     1      45.168   2.105   8.761  0.00  0.00    +0.000 A 
ATOM     13  C   UNL     1      45.781   2.430   7.553  0.00  0.00    +0.000 A 
ATOM     14  C   UNL     1      46.246   3.723   7.360  0.00  0.00    +0.000 A 
ATOM     15  C   UNL     1      46.121   4.685   8.359  0.00  0.00    +0.000 A 
BRANCH  14  16
ATOM     16  O   UNL     1      46.833   4.101   6.188  0.00  0.00    +0.000 OA
ATOM     17  H   UNL     1      47.112   5.028   6.271  0.00  0.00    +0.000 HD
ENDBRANCH  14  16
ENDBRANCH   8  10
ENDBRANCH   1   4
BRANCH   1  18
ATOM     18  O   UNL     1      48.558   6.956  13.327  0.00  0.00    +0.000 OA
BRANCH  18  22
ATOM     19  C   UNL     1      47.705   4.537  16.554  0.00  0.00    +0.000 A 
ATOM     20  C   UNL     1      48.425   5.718  16.729  0.00  0.00    +0.000 A 
ATOM     21  C   UNL     1      48.694   6.516  15.620  0.00  0.00    +0.000 A 
ATOM     22  C   UNL     1      48.229   6.113  14.377  0.00  0.00    +0.000 A 
ATOM     23  N   UNL     1      47.507   4.991  14.175  0.00  0.00    +0.000 NA
ATOM     24  C   UNL     1      47.281   4.214  15.268  0.00  0.00    +0.000 A 
BRANCH  19  26
ATOM     25  N   UNL     1      48.200   3.692  18.787  0.00  0.00    +0.000 N 
ATOM     26  C   UNL     1      47.417   3.605  17.668  0.00  0.00    +0.000 C 
ATOM     27  O   UNL     1      46.499   2.797  17.605  0.00  0.00    +0.000 OA
ATOM     28  H   UNL     1      47.951   3.091  19.564  0.00  0.00    +0.000 HD
ATOM     29  H   UNL     1      48.809   4.476  18.977  0.00  0.00    +0.000 HD
ENDBRANCH  19  26
ENDBRANCH  18  22
ENDBRANCH   1  18
TORSDOF 6
ENDMDL
MODEL 5
REMARK VINA RESULT:    -6.977      3.453      6.139
REMARK INTER + INTRA:         -10.290
REMARK INTER:                  -9.428
REMARK INTRA:                  -0.861
REMARK UNBOUND:                -1.069
REMARK  Name = 
REMARK  6 active torsions:
REMARK  status: ('A' for Active; 'I' for Inactive)
REMARK    1  A    between atoms: C_2  and  C_4
REMARK    2  A    between atoms: C_7  and  O_8
REMARK    3  A    between atoms: O_8  and  C_9
REMARK    4  A    between atoms: C_9  and  C_10
REMARK    5  A    between atoms: C_14  and  C_15
REMARK    6  A    between atoms: C_19  and  O_20
REMARK                            x       y       z     vdW  Elec       q    Type
REMARK                         _______ _______ _______ _____ _____    ______ ____
ROOT
ATOM      1  C   UNL     1      47.992   8.139  12.466  0.00  0.00    +0.000 C 
ATOM      2  C   UNL     1      48.841   9.116  11.658  0.00  0.00    +0.000 C 
ATOM      3  C   UNL     1      49.004   7.645  11.454  0.00  0.00    +0.000 C 
ENDROOT
BRANCH   1   4
ATOM      4  C   UNL     1      48.266   8.077  13.960  0.00  0.00    +0.000 A 
ATOM      5  C   UNL     1      48.363   9.252  14.721  0.00  0.00    +0.000 A 
ATOM      6  C   UNL     1      48.593   9.207  16.094  0.00  0.00    +0.000 A 
ATOM      7  C   UNL     1      48.726   7.976  16.737  0.00  0.00    +0.000 A 
ATOM      8  C   UNL     1      48.622   6.765  16.033  0.00  0.00    +0.000 A 
ATOM      9  C   UNL     1      48.398   6.850  14.644  0.00  0.00    +0.000 A 
BRANCH   8  10
ATOM     10  C   UNL     1      48.725   5.461  16.730  0.00  0.00    +0.000 A 
ATOM     11  C   UNL     1      49.947   4.987  17.244  0.00  0.00    +0.000 A 
ATOM     12  C   UNL     1      50.033   3.756  17.909  0.00  0.00    +0.000 A 
ATOM     13  C   UNL     1      48.892   2.978  18.093  0.00  0.00    +0.000 A 
ATOM     14  C   UNL     1      47.679   3.434  17.598  0.00  0.00    +0.000 A 
ATOM     15  C   UNL     1      47.596   4.642  16.910  0.00  0.00    +0.000 A 
BRANCH  14  16
ATOM     16  O   UNL     1      46.528   2.724  17.769  0.00  0.00    +0.000 OA
ATOM     17  H   UNL     1      46.754   1.861  18.153  0.00  0.00    +0.000 HD
ENDBRANCH  14  16
ENDBRANCH   8  10
ENDBRANCH   1   4
BRANCH   1  18
ATOM     18  O   UNL     1      46.609   8.180  12.043  0.00  0.00    +0.000 OA
BRANCH  18  22
ATOM     19  C   UNL     1      44.661   4.566  11.672  0.00  0.00    +0.000 A 
ATOM     20  C   UNL     1      44.604   5.278  12.870  0.00  0.00    +0.000 A 
ATOM     21  C   UNL     1      45.268   6.498  12.962  0.00  0.00    +0.000 A 
ATOM     22  C   UNL     1      45.961   6.969  11.856  0.00  0.00    +0.000 A 
ATOM     23  N   UNL     1      46.016   6.319  10.675  0.00  0.00    +0.000 NA
ATOM     24  C   UNL     1      45.382   5.117  10.618  0.00  0.00    +0.000 A 
BRANCH  19  26
ATOM     25  N   UNL     1      43.816   2.486  12.625  0.00  0.00    +0.000 N 
ATOM     26  C   UNL     1      44.025   3.240  11.502  0.00  0.00    +0.000 C 
ATOM     27  O   UNL     1      43.677   2.834  10.400  0.00  0.00    +0.000 OA
ATOM     28  H   UNL     1      43.324   1.610  12.500  0.00  0.00    +0.000 HD
ATOM     29  H   UNL     1      43.873   2.862  13.562  0.00  0.00    +0.000 HD
ENDBRANCH  19  26
ENDBRANCH  18  22
ENDBRANCH   1  18
TORSDOF 6
ENDMDL
MODEL 6
REMARK VINA RESULT:    -6.474      1.609      2.336
REMARK INTER + INTRA:          -9.624
REMARK INTER:                  -8.891
REMARK INTRA:                  -0.734
REMARK UNBOUND:                -1.069
REMARK  Name = 
REMARK  6 active torsions:
REMARK  status: ('A' for Active; 'I' for Inactive)
REMARK    1  A    between atoms: C_2  and  C_4
REMARK    2  A    between atoms: C_7  and  O_8
REMARK    3  A    between atoms: O_8  and  C_9
REMARK    4  A    between atoms: C_9  and  C_10
REMARK    5  A    between atoms: C_14  and  C_15
REMARK    6  A    between atoms: C_19  and  O_20
REMARK                            x       y       z     vdW  Elec       q    Type
REMARK                         _______ _______ _______ _____ _____    ______ ____
ROOT
ATOM      1  C   UNL     1      43.988   5.402  11.857  0.00  0.00    +0.000 C 
ATOM      2  C   UNL     1      42.843   5.277  12.858  0.00  0.00    +0.000 C 
ATOM      3  C   UNL     1      42.546   5.529  11.416  0.00  0.00    +0.000 C 
ENDROOT
BRANCH   1   4
ATOM      4  C   UNL     1      44.887   6.620  12.003  0.00  0.00    +0.000 A 
ATOM      5  C   UNL     1      44.501   7.862  11.478  0.00  0.00    +0.000 A 
ATOM      6  C   UNL     1      45.306   8.990  11.624  0.00  0.00    +0.000 A 
ATOM      7  C   UNL     1      46.520   8.895  12.305  0.00  0.00    +0.000 A 
ATOM      8  C   UNL     1      46.952   7.682  12.868  0.00  0.00    +0.000 A 
ATOM      9  C   UNL     1      46.116   6.562  12.693  0.00  0.00    +0.000 A 
BRANCH   8  10
ATOM     10  C   UNL     1      48.224   7.598  13.625  0.00  0.00    +0.000 A 
ATOM     11  C   UNL     1      48.268   7.144  14.957  0.00  0.00    +0.000 A 
ATOM     12  C   UNL     1      49.477   7.059  15.661  0.00  0.00    +0.000 A 
ATOM     13  C   UNL     1      50.675   7.409  15.042  0.00  0.00    +0.000 A 
ATOM     14  C   UNL     1      50.649   7.853  13.727  0.00  0.00    +0.000 A 
ATOM     15  C   UNL     1      49.446   7.966  13.034  0.00  0.00    +0.000 A 
BRANCH  14  16
ATOM     16  O   UNL     1      51.794   8.186  13.065  0.00  0.00    +0.000 OA
ATOM     17  H   UNL     1      52.521   8.217  13.708  0.00  0.00    +0.000 HD
ENDBRANCH  14  16
ENDBRANCH   8  10
ENDBRANCH   1   4
BRANCH   1  18
ATOM     18  O   UNL     1      44.629   4.122  11.640  0.00  0.00    +0.000 OA
BRANCH  18  22
ATOM     19  C   UNL     1      45.998   3.119   7.883  0.00  0.00    +0.000 A 
ATOM     20  C   UNL     1      45.512   2.135   8.743  0.00  0.00    +0.000 A 
ATOM     21  C   UNL     1      45.053   2.506  10.004  0.00  0.00    +0.000 A 
ATOM     22  C   UNL     1      45.087   3.845  10.361  0.00  0.00    +0.000 A 
ATOM     23  N   UNL     1      45.526   4.827   9.546  0.00  0.00    +0.000 NA
ATOM     24  C   UNL     1      45.995   4.437   8.330  0.00  0.00    +0.000 A 
BRANCH  19  26
ATOM     25  N   UNL     1      46.776   3.854   5.692  0.00  0.00    +0.000 N 
ATOM     26  C   UNL     1      46.550   2.808   6.545  0.00  0.00    +0.000 C 
ATOM     27  O   UNL     1      46.817   1.660   6.214  0.00  0.00    +0.000 OA
ATOM     28  H   UNL     1      47.212   3.632   4.805  0.00  0.00    +0.000 HD
ATOM     29  H   UNL     1      46.789   4.820   5.992  0.00  0.00    +0.000 HD
ENDBRANCH  19  26
ENDBRANCH  18  22
ENDBRANCH   1  18
TORSDOF 6
ENDMDL
MODEL 7
REMARK VINA RESULT:    -6.155      4.766      8.048
REMARK INTER + INTRA:          -9.203
REMARK INTER:                  -8.141
REMARK INTRA:                  -1.061
REMARK UNBOUND:                -1.069
REMARK  Name = 
REMARK  6 active torsions:
REMARK  status: ('A' for Active; 'I' for Inactive)
REMARK    1  A    between atoms: C_2  and  C_4
REMARK    2  A    between atoms: C_7  and  O_8
REMARK    3  A    between atoms: O_8  and  C_9
REMARK    4  A    between atoms: C_9  and  C_10
REMARK    5  A    between atoms: C_14  and  C_15
REMARK    6  A    between atoms: C_19  and  O_20
REMARK                            x       y       z     vdW  Elec       q    Type
REMARK                         _______ _______ _______ _____ _____    ______ ____
ROOT
ATOM      1  C   UNL     1      49.079   8.514  16.654  0.00  0.00    +0.000 C 
ATOM      2  C   UNL     1      49.153  10.018  16.898  0.00  0.00    +0.000 C 
ATOM      3  C   UNL     1      47.881   9.282  17.169  0.00  0.00    +0.000 C 
ENDROOT
BRANCH   1   4
ATOM      4  C   UNL     1      49.169   8.056  15.206  0.00  0.00    +0.000 A 
ATOM      5  C   UNL     1      50.338   8.264  14.460  0.00  0.00    +0.000 A 
ATOM      6  C   UNL     1      50.440   7.831  13.140  0.00  0.00    +0.000 A 
ATOM      7  C   UNL     1      49.367   7.173  12.539  0.00  0.00    +0.000 A 
ATOM      8  C   UNL     1      48.176   6.920  13.240  0.00  0.00    +0.000 A 
ATOM      9  C   UNL     1      48.106   7.380  14.570  0.00  0.00    +0.000 A 
BRANCH   8  10
ATOM     10  C   UNL     1      47.054   6.185  12.608  0.00  0.00    +0.000 A 
ATOM     11  C   UNL     1      46.286   6.748  11.571  0.00  0.00    +0.000 A 
ATOM     12  C   UNL     1      45.233   6.042  10.974  0.00  0.00    +0.000 A 
ATOM     13  C   UNL     1      44.936   4.745  11.387  0.00  0.00    +0.000 A 
ATOM     14  C   UNL     1      45.687   4.174  12.404  0.00  0.00    +0.000 A 
ATOM     15  C   UNL     1      46.714   4.884  13.020  0.00  0.00    +0.000 A 
BRANCH  14  16
ATOM     16  O   UNL     1      45.454   2.900  12.833  0.00  0.00    +0.000 OA
ATOM     17  H   UNL     1      46.305   2.434  12.886  0.00  0.00    +0.000 HD
ENDBRANCH  14  16
ENDBRANCH   8  10
ENDBRANCH   1   4
BRANCH   1  18
ATOM     18  O   UNL     1      49.863   7.789  17.632  0.00  0.00    +0.000 OA
BRANCH  18  22
ATOM     19  C   UNL     1      50.160   3.695  17.256  0.00  0.00    +0.000 A 
ATOM     20  C   UNL     1      51.309   4.484  17.297  0.00  0.00    +0.000 A 
ATOM     21  C   UNL     1      51.176   5.864  17.430  0.00  0.00    +0.000 A 
ATOM     22  C   UNL     1      49.903   6.408  17.523  0.00  0.00    +0.000 A 
ATOM     23  N   UNL     1      48.772   5.672  17.511  0.00  0.00    +0.000 NA
ATOM     24  C   UNL     1      48.926   4.330  17.354  0.00  0.00    +0.000 A 
BRANCH  19  26
ATOM     25  N   UNL     1      51.014   1.506  17.907  0.00  0.00    +0.000 N 
ATOM     26  C   UNL     1      50.208   2.227  17.069  0.00  0.00    +0.000 C 
ATOM     27  O   UNL     1      49.536   1.669  16.210  0.00  0.00    +0.000 OA
ATOM     28  H   UNL     1      50.988   0.498  17.808  0.00  0.00    +0.000 HD
ATOM     29  H   UNL     1      51.404   1.883  18.760  0.00  0.00    +0.000 HD
ENDBRANCH  19  26
ENDBRANCH  18  22
ENDBRANCH   1  18
TORSDOF 6
ENDMDL
MODEL 8
REMARK VINA RESULT:    -6.086      4.129      6.279
REMARK INTER + INTRA:          -9.112
REMARK INTER:                  -8.531
REMARK INTRA:                  -0.581
REMARK UNBOUND:                -1.069
REMARK  Name = 
REMARK  6 active torsions:
REMARK  status: ('A' for Active; 'I' for Inactive)
REMARK    1  A    between atoms: C_2  and  C_4
REMARK    2  A    between atoms: C_7  and  O_8
REMARK    3  A    between atoms: O_8  and  C_9
REMARK    4  A    between atoms: C_9  and  C_10
REMARK    5  A    between atoms: C_14  and  C_15
REMARK    6  A    between atoms: C_19  and  O_20
REMARK                            x       y       z     vdW  Elec       q    Type
REMARK                         _______ _______ _______ _____ _____    ______ ____
ROOT
ATOM      1  C   UNL     1      48.169   7.748  13.019  0.00  0.00    +0.000 C 
ATOM      2  C   UNL     1      48.435   8.988  12.171  0.00  0.00    +0.000 C 
ATOM      3  C   UNL     1      48.658   7.628  11.593  0.00  0.00    +0.000 C 
ENDROOT
BRANCH   1   4
ATOM      4  C   UNL     1      49.099   7.523  14.201  0.00  0.00    +0.000 A 
ATOM      5  C   UNL     1      50.471   7.797  14.096  0.00  0.00    +0.000 A 
ATOM      6  C   UNL     1      51.329   7.615  15.179  0.00  0.00    +0.000 A 
ATOM      7  C   UNL     1      50.826   7.155  16.396  0.00  0.00    +0.000 A 
ATOM      8  C   UNL     1      49.459   6.880  16.568  0.00  0.00    +0.000 A 
ATOM      9  C   UNL     1      48.623   7.068  15.449  0.00  0.00    +0.000 A 
BRANCH   8  10
ATOM     10  C   UNL     1      48.926   6.430  17.875  0.00  0.00    +0.000 A 
ATOM     11  C   UNL     1      48.357   7.330  18.797  0.00  0.00    +0.000 A 
ATOM     12  C   UNL     1      47.847   6.893  20.027  0.00  0.00    +0.000 A 
ATOM     13  C   UNL     1      47.876   5.539  20.356  0.00  0.00    +0.000 A 
ATOM     14  C   UNL     1      48.428   4.639  19.457  0.00  0.00    +0.000 A 
ATOM     15  C   UNL     1      48.962   5.073  18.247  0.00  0.00    +0.000 A 
BRANCH  14  16
ATOM     16  O   UNL     1      48.462   3.301  19.718  0.00  0.00    +0.000 OA
ATOM     17  H   UNL     1      47.789   2.864  19.170  0.00  0.00    +0.000 HD
ENDBRANCH  14  16
ENDBRANCH   8  10
ENDBRANCH   1   4
BRANCH   1  18
ATOM     18  O   UNL     1      46.750   7.567  13.244  0.00  0.00    +0.000 OA
BRANCH  18  22
ATOM     19  C   UNL     1      44.873   4.315  11.544  0.00  0.00    +0.000 A 
ATOM     20  C   UNL     1      44.711   5.588  10.998  0.00  0.00    +0.000 A 
ATOM     21  C   UNL     1      45.362   6.665  11.592  0.00  0.00    +0.000 A 
ATOM     22  C   UNL     1      46.157   6.437  12.706  0.00  0.00    +0.000 A 
ATOM     23  N   UNL     1      46.356   5.216  13.245  0.00  0.00    +0.000 NA
ATOM     24  C   UNL     1      45.689   4.183  12.664  0.00  0.00    +0.000 A 
BRANCH  19  26
ATOM     25  N   UNL     1      44.845   2.366  10.079  0.00  0.00    +0.000 N 
ATOM     26  C   UNL     1      44.180   3.122  11.006  0.00  0.00    +0.000 C 
ATOM     27  O   UNL     1      43.061   2.805  11.388  0.00  0.00    +0.000 OA
ATOM     28  H   UNL     1      44.384   1.520   9.767  0.00  0.00    +0.000 HD
ATOM     29  H   UNL     1      45.837   2.452   9.903  0.00  0.00    +0.000 HD
ENDBRANCH  19  26
ENDBRANCH  18  22
ENDBRANCH   1  18
TORSDOF 6
ENDMDL
MODEL 9
REMARK VINA RESULT:    -6.086      3.559      6.370
REMARK INTER + INTRA:          -9.111
REMARK INTER:                  -8.204
REMARK INTRA:                  -0.908
REMARK UNBOUND:                -1.069
REMARK  Name = 
REMARK  6 active torsions:
REMARK  status: ('A' for Active; 'I' for Inactive)
REMARK    1  A    between atoms: C_2  and  C_4
REMARK    2  A    between atoms: C_7  and  O_8
REMARK    3  A    between atoms: O_8  and  C_9
REMARK    4  A    between atoms: C_9  and  C_10
REMARK    5  A    between atoms: C_14  and  C_15
REMARK    6  A    between atoms: C_19  and  O_20
REMARK                            x       y       z     vdW  Elec       q    Type
REMARK                         _______ _______ _______ _____ _____    ______ ____
ROOT
ATOM      1  C   UNL     1      49.089   7.480  13.396  0.00  0.00    +0.000 C 
ATOM      2  C   UNL     1      49.549   7.606  14.845  0.00  0.00    +0.000 C 
ATOM      3  C   UNL     1      48.318   8.320  14.390  0.00  0.00    +0.000 C 
ENDROOT
BRANCH   1   4
ATOM      4  C   UNL     1      49.983   8.115  12.342  0.00  0.00    +0.000 A 
ATOM      5  C   UNL     1      50.036   9.509  12.192  0.00  0.00    +0.000 A 
ATOM      6  C   UNL     1      50.867  10.103  11.244  0.00  0.00    +0.000 A 
ATOM      7  C   UNL     1      51.670   9.307  10.427  0.00  0.00    +0.000 A 
ATOM      8  C   UNL     1      51.675   7.907  10.542  0.00  0.00    +0.000 A 
ATOM      9  C   UNL     1      50.815   7.342  11.505  0.00  0.00    +0.000 A 
BRANCH   8  10
ATOM     10  C   UNL     1      52.560   7.070   9.698  0.00  0.00    +0.000 A 
ATOM     11  C   UNL     1      53.508   6.191  10.256  0.00  0.00    +0.000 A 
ATOM     12  C   UNL     1      54.334   5.398   9.449  0.00  0.00    +0.000 A 
ATOM     13  C   UNL     1      54.218   5.450   8.062  0.00  0.00    +0.000 A 
ATOM     14  C   UNL     1      53.285   6.307   7.496  0.00  0.00    +0.000 A 
ATOM     15  C   UNL     1      52.483   7.119   8.294  0.00  0.00    +0.000 A 
BRANCH  14  16
ATOM     16  O   UNL     1      53.114   6.382   6.145  0.00  0.00    +0.000 OA
ATOM     17  H   UNL     1      52.216   6.080   5.933  0.00  0.00    +0.000 HD
ENDBRANCH  14  16
ENDBRANCH   8  10
ENDBRANCH   1   4
BRANCH   1  18
ATOM     18  O   UNL     1      48.580   6.152  13.125  0.00  0.00    +0.000 OA
BRANCH  18  22
ATOM     19  C   UNL     1      44.634   5.937  11.953  0.00  0.00    +0.000 A 
ATOM     20  C   UNL     1      45.585   6.529  11.123  0.00  0.00    +0.000 A 
ATOM     21  C   UNL     1      46.911   6.582  11.545  0.00  0.00    +0.000 A 
ATOM     22  C   UNL     1      47.244   6.038  12.776  0.00  0.00    +0.000 A 
ATOM     23  N   UNL     1      46.355   5.435  13.594  0.00  0.00    +0.000 NA
ATOM     24  C   UNL     1      45.062   5.420  13.172  0.00  0.00    +0.000 A 
BRANCH  19  26
ATOM     25  N   UNL     1      42.598   7.038  11.188  0.00  0.00    +0.000 N 
ATOM     26  C   UNL     1      43.196   5.880  11.605  0.00  0.00    +0.000 C 
ATOM     27  O   UNL     1      42.563   4.834  11.668  0.00  0.00    +0.000 OA
ATOM     28  H   UNL     1      41.630   6.970  10.894  0.00  0.00    +0.000 HD
ATOM     29  H   UNL     1      43.117   7.858  10.905  0.00  0.00    +0.000 HD
ENDBRANCH  19  26
ENDBRANCH  18  22
ENDBRANCH   1  18
TORSDOF 6
ENDMDL
