MODEL 1
REMARK VINA RESULT:    -7.263      0.000      0.000
REMARK INTER + INTRA:         -10.261
REMARK INTER:                  -9.810
REMARK INTRA:                  -0.450
REMARK UNBOUND:                -0.450
REMARK  Name = 
REMARK  6 active torsions:
REMARK  status: ('A' for Active; 'I' for Inactive)
REMARK    1  A    between atoms: C_2  and  C_3
REMARK    2  A    between atoms: C_3  and  C_4
REMARK    3  A    between atoms: C_7  and  C_8
REMARK    4  A    between atoms: C_8  and  O_9
REMARK    5  A    between atoms: O_9  and  C_10
REMARK    6  A    between atoms: C_14  and  C_15
REMARK                            x       y       z     vdW  Elec       q    Type
REMARK                         _______ _______ _______ _____ _____    ______ ____
ROOT
ATOM      1  O   UNL     1      43.971   5.162  11.661  0.00  0.00    +0.000 OA
ENDROOT
BRANCH   1   2
ATOM      2  C   UNL     1      45.216   5.444  12.162  0.00  0.00    +0.000 A 
ATOM      3  C   UNL     1      46.087   6.414  11.675  0.00  0.00    +0.000 A 
ATOM      4  C   UNL     1      47.310   6.588  12.311  0.00  0.00    +0.000 A 
ATOM      5  N   UNL     1      47.718   5.868  13.377  0.00  0.00    +0.000 NA
ATOM      6  C   UNL     1      46.839   4.937  13.842  0.00  0.00    +0.000 A 
ATOM      7  C   UNL     1      45.590   4.703  13.280  0.00  0.00    +0.000 A 
BRANCH   6   8
ATOM      8  C   UNL     1      47.277   4.122  15.020  0.00  0.00    +0.000 C 
ATOM      9  N   UNL     1      47.223   4.742  16.239  0.00  0.00    +0.000 N 
ATOM     10  O   UNL     1      47.664   2.965  14.910  0.00  0.00    +0.000 OA
ATOM     11  H   UNL     1      46.902   5.701  16.308  0.00  0.00    +0.000 HD
ATOM     12  H   UNL     1      47.514   4.237  17.060  0.00  0.00    +0.000 HD
ENDBRANCH   6   8
ENDBRANCH   1   2
BRANCH   1  13
ATOM     13  C   UNL     1      43.810   5.286  10.246  0.00  0.00    +0.000 C 
BRANCH  13  17
ATOM     14  C   UNL     1      45.764   2.035   8.374  0.00  0.00    +0.000 A 
ATOM     15  C   UNL     1      45.952   3.347   7.943  0.00  0.00    +0.000 A 
ATOM     16  N   UNL     1      45.330   4.411   8.511  0.00  0.00    +0.000 NA
ATOM     17  C   UNL     1      44.489   4.135   9.542  0.00  0.00    +0.000 A 
ATOM     18  C   UNL     1      44.282   2.825   9.956  0.00  0.00    +0.000 A 
ATOM     19  N   UNL     1      44.910   1.759   9.392  0.00  0.00    +0.000 NA
BRANCH  14  20
ATOM     20  C   UNL     1      46.521   0.885   7.752  0.00  0.00    +0.000 C 
BRANCH  20  22
ATOM     21  N   UNL     1      48.382   1.858   5.930  0.00  0.00    +0.000 NA
ATOM     22  C   UNL     1      47.538   1.417   6.756  0.00  0.00    +0.000 C 
ENDBRANCH  20  22
ENDBRANCH  14  20
ENDBRANCH  13  17
ENDBRANCH   1  13
TORSDOF 6
ENDMDL
MODEL 2
REMARK VINA RESULT:    -7.157      2.420      6.581
REMARK INTER + INTRA:         -10.117
REMARK INTER:                  -9.809
REMARK INTRA:                  -0.308
REMARK UNBOUND:                -0.450
REMARK  Name = 
REMARK  6 active torsions:
REMARK  status: ('A' for Active; 'I' for Inactive)
REMARK    1  A    between atoms: C_2  and  C_3
REMARK    2  A    between atoms: C_3  and  C_4
REMARK    3  A    between atoms: C_7  and  C_8
REMARK    4  A    between atoms: C_8  and  O_9
REMARK    5  A    between atoms: O_9  and  C_10
REMARK    6  A    between atoms: C_14  and  C_15
REMARK                            x       y       z     vdW  Elec       q    Type
REMARK                         _______ _______ _______ _____ _____    ______ ____
ROOT
ATOM      1  O   UNL     1      43.796   2.770  10.216  0.00  0.00    +0.000 OA
ENDROOT
BRANCH   1   2
ATOM      2  C   UNL     1      44.744   3.060   9.269  0.00  0.00    +0.000 A 
ATOM      3  C   UNL     1      45.070   4.333   8.810  0.00  0.00    +0.000 A 
ATOM      4  C   UNL     1      46.073   4.458   7.857  0.00  0.00    +0.000 A 
ATOM      5  N   UNL     1      46.756   3.418   7.335  0.00  0.00    +0.000 NA
ATOM      6  C   UNL     1      46.427   2.186   7.815  0.00  0.00    +0.000 A 
ATOM      7  C   UNL     1      45.449   1.966   8.777  0.00  0.00    +0.000 A 
BRANCH   6   8
ATOM      8  C   UNL     1      47.169   1.017   7.242  0.00  0.00    +0.000 C 
ATOM      9  N   UNL     1      46.776  -0.221   7.678  0.00  0.00    +0.000 N 
ATOM     10  O   UNL     1      48.077   1.148   6.431  0.00  0.00    +0.000 OA
ATOM     11  H   UNL     1      46.024  -0.308   8.352  0.00  0.00    +0.000 HD
ATOM     12  H   UNL     1      47.249  -1.038   7.327  0.00  0.00    +0.000 HD
ENDBRANCH   6   8
ENDBRANCH   1   2
BRANCH   1  13
ATOM     13  C   UNL     1      43.368   3.854  11.044  0.00  0.00    +0.000 C 
BRANCH  13  17
ATOM     14  C   UNL     1      46.294   4.677  13.986  0.00  0.00    +0.000 A 
ATOM     15  C   UNL     1      46.085   3.386  13.504  0.00  0.00    +0.000 A 
ATOM     16  N   UNL     1      45.145   3.085  12.572  0.00  0.00    +0.000 NA
ATOM     17  C   UNL     1      44.393   4.123  12.120  0.00  0.00    +0.000 A 
ATOM     18  C   UNL     1      44.585   5.405  12.619  0.00  0.00    +0.000 A 
ATOM     19  N   UNL     1      45.530   5.710  13.547  0.00  0.00    +0.000 NA
BRANCH  14  20
ATOM     20  C   UNL     1      47.389   4.979  14.982  0.00  0.00    +0.000 C 
BRANCH  20  22
ATOM     21  N   UNL     1      47.005   3.473  17.288  0.00  0.00    +0.000 NA
ATOM     22  C   UNL     1      47.179   4.156  16.242  0.00  0.00    +0.000 C 
ENDBRANCH  20  22
ENDBRANCH  14  20
ENDBRANCH  13  17
ENDBRANCH   1  13
TORSDOF 6
ENDMDL
MODEL 3
REMARK VINA RESULT:    -6.930      2.249      6.775
REMARK INTER + INTRA:          -9.812
REMARK INTER:                  -9.430
REMARK INTRA:                  -0.382
REMARK UNBOUND:                -0.450
REMARK  Name = 
REMARK  6 active torsions:
REMARK  status: ('A' for Active; 'I' for Inactive)
REMARK    1  A    between atoms: C_2  and  C_3
REMARK    2  A    between atoms: C_3  and  C_4
REMARK    3  A    between atoms: C_7  and  C_8
REMARK    4  A    between atoms: C_8  and  O_9
REMARK    5  A    between atoms: O_9  and  C_10
REMARK    6  A    between atoms: C_14  and  C_15
REMARK                            x       y       z     vdW  Elec       q    Type
REMARK                         _______ _______ _______ _____ _____    ______ ____
ROOT
ATOM      1  O   UNL     1      44.477   4.786   9.254  0.00  0.00    +0.000 OA
ENDROOT
BRANCH   1   2
ATOM      2  C   UNL     1      45.027   3.612   8.806  0.00  0.00    +0.000 A 
ATOM      3  C   UNL     1      44.746   2.342   9.301  0.00  0.00    +0.000 A 
ATOM      4  C   UNL     1      45.376   1.249   8.720  0.00  0.00    +0.000 A 
ATOM      5  N   UNL     1      46.257   1.335   7.702  0.00  0.00    +0.000 NA
ATOM      6  C   UNL     1      46.501   2.589   7.227  0.00  0.00    +0.000 A 
ATOM      7  C   UNL     1      45.907   3.738   7.734  0.00  0.00    +0.000 A 
BRANCH   6   8
ATOM      8  C   UNL     1      47.482   2.707   6.101  0.00  0.00    +0.000 C 
ATOM      9  N   UNL     1      48.800   2.529   6.426  0.00  0.00    +0.000 N 
ATOM     10  O   UNL     1      47.137   2.950   4.951  0.00  0.00    +0.000 OA
ATOM     11  H   UNL     1      49.066   2.332   7.384  0.00  0.00    +0.000 HD
ATOM     12  H   UNL     1      49.499   2.606   5.705  0.00  0.00    +0.000 HD
ENDBRANCH   6   8
ENDBRANCH   1   2
BRANCH   1  13
ATOM     13  C   UNL     1      43.831   4.742  10.529  0.00  0.00    +0.000 C 
BRANCH  13  17
ATOM     14  C   UNL     1      46.616   5.017  13.700  0.00  0.00    +0.000 A 
ATOM     15  C   UNL     1      46.669   5.876  12.605  0.00  0.00    +0.000 A 
ATOM     16  N   UNL     1      45.801   5.806  11.564  0.00  0.00    +0.000 NA
ATOM     17  C   UNL     1      44.856   4.832  11.634  0.00  0.00    +0.000 A 
ATOM     18  C   UNL     1      44.818   3.960  12.715  0.00  0.00    +0.000 A 
ATOM     19  N   UNL     1      45.683   4.033  13.762  0.00  0.00    +0.000 NA
BRANCH  14  20
ATOM     20  C   UNL     1      47.566   5.165  14.866  0.00  0.00    +0.000 C 
BRANCH  20  22
ATOM     21  N   UNL     1      46.794   3.467  16.929  0.00  0.00    +0.000 NA
ATOM     22  C   UNL     1      47.144   4.237  15.994  0.00  0.00    +0.000 C 
ENDBRANCH  20  22
ENDBRANCH  14  20
ENDBRANCH  13  17
ENDBRANCH   1  13
TORSDOF 6
ENDMDL
MODEL 4
REMARK VINA RESULT:    -6.557      2.804      6.416
REMARK INTER + INTRA:          -9.307
REMARK INTER:                  -9.102
REMARK INTRA:                  -0.204
REMARK UNBOUND:                -0.450
REMARK  Name = 
REMARK  6 active torsions:
REMARK  status: ('A' for Active; 'I' for Inactive)
REMARK    1  A    between atoms: C_2  and  C_3
REMARK    2  A    between atoms: C_3  and  C_4
REMARK    3  A    between atoms: C_7  and  C_8
REMARK    4  A    between atoms: C_8  and  O_9
REMARK    5  A    between atoms: O_9  and  C_10
REMARK    6  A    between atoms: C_14  and  C_15
REMARK                            x       y       z     vdW  Elec       q    Type
REMARK                         _______ _______ _______ _____ _____    ______ ____
ROOT
ATOM      1  O   UNL     1      43.638   2.669  10.324  0.00  0.00    +0.000 OA
ENDROOT
BRANCH   1   2
ATOM      2  C   UNL     1      44.584   2.988   9.384  0.00  0.00    +0.000 A 
ATOM      3  C   UNL     1      44.875   4.270   8.926  0.00  0.00    +0.000 A 
ATOM      4  C   UNL     1      45.881   4.425   7.981  0.00  0.00    +0.000 A 
ATOM      5  N   UNL     1      46.600   3.406   7.466  0.00  0.00    +0.000 NA
ATOM      6  C   UNL     1      46.305   2.165   7.944  0.00  0.00    +0.000 A 
ATOM      7  C   UNL     1      45.327   1.915   8.899  0.00  0.00    +0.000 A 
BRANCH   6   8
ATOM      8  C   UNL     1      47.086   1.019   7.379  0.00  0.00    +0.000 C 
ATOM      9  N   UNL     1      46.700  -0.233   7.777  0.00  0.00    +0.000 N 
ATOM     10  O   UNL     1      48.021   1.180   6.604  0.00  0.00    +0.000 OA
ATOM     11  H   UNL     1      45.925  -0.345   8.422  0.00  0.00    +0.000 HD
ATOM     12  H   UNL     1      47.199  -1.035   7.430  0.00  0.00    +0.000 HD
ENDBRANCH   6   8
ENDBRANCH   1   2
BRANCH   1  13
ATOM     13  C   UNL     1      44.072   2.659  11.687  0.00  0.00    +0.000 C 
BRANCH  13  17
ATOM     14  C   UNL     1      45.303   6.568  12.737  0.00  0.00    +0.000 A 
ATOM     15  C   UNL     1      46.193   5.495  12.741  0.00  0.00    +0.000 A 
ATOM     16  N   UNL     1      45.828   4.227  12.424  0.00  0.00    +0.000 NA
ATOM     17  C   UNL     1      44.521   4.040  12.099  0.00  0.00    +0.000 A 
ATOM     18  C   UNL     1      43.629   5.105  12.119  0.00  0.00    +0.000 A 
ATOM     19  N   UNL     1      43.994   6.377  12.430  0.00  0.00    +0.000 NA
BRANCH  14  20
ATOM     20  C   UNL     1      45.761   7.975  13.040  0.00  0.00    +0.000 C 
BRANCH  20  22
ATOM     21  N   UNL     1      44.657   9.740  11.197  0.00  0.00    +0.000 NA
ATOM     22  C   UNL     1      45.157   8.940  12.033  0.00  0.00    +0.000 C 
ENDBRANCH  20  22
ENDBRANCH  14  20
ENDBRANCH  13  17
ENDBRANCH   1  13
TORSDOF 6
ENDMDL
MODEL 5
REMARK VINA RESULT:    -6.528      1.748      2.637
REMARK INTER + INTRA:          -9.268
REMARK INTER:                  -8.843
REMARK INTRA:                  -0.425
REMARK UNBOUND:                -0.450
REMARK  Name = 
REMARK  6 active torsions:
REMARK  status: ('A' for Active; 'I' for Inactive)
REMARK    1  A    between atoms: C_2  and  C_3
REMARK    2  A    between atoms: C_3  and  C_4
REMARK    3  A    between atoms: C_7  and  C_8
REMARK    4  A    between atoms: C_8  and  O_9
REMARK    5  A    between atoms: O_9  and  C_10
REMARK    6  A    between atoms: C_14  and  C_15
REMARK                            x       y       z     vdW  Elec       q    Type
REMARK                         _______ _______ _______ _____ _____    ______ ____
ROOT
ATOM      1  O   UNL     1      44.639   6.020  12.067  0.00  0.00    +0.000 OA
ENDROOT
BRANCH   1   2
ATOM      2  C   UNL     1      45.665   5.695  12.918  0.00  0.00    +0.000 A 
ATOM      3  C   UNL     1      45.693   4.599  13.775  0.00  0.00    +0.000 A 
ATOM      4  C   UNL     1      46.821   4.400  14.561  0.00  0.00    +0.000 A 
ATOM      5  N   UNL     1      47.900   5.209  14.555  0.00  0.00    +0.000 NA
ATOM      6  C   UNL     1      47.852   6.264  13.695  0.00  0.00    +0.000 A 
ATOM      7  C   UNL     1      46.773   6.534  12.861  0.00  0.00    +0.000 A 
BRANCH   6   8
ATOM      8  C   UNL     1      49.037   7.180  13.680  0.00  0.00    +0.000 C 
ATOM      9  N   UNL     1      49.807   7.154  12.548  0.00  0.00    +0.000 N 
ATOM     10  O   UNL     1      49.314   7.913  14.621  0.00  0.00    +0.000 OA
ATOM     11  H   UNL     1      49.563   6.537  11.781  0.00  0.00    +0.000 HD
ATOM     12  H   UNL     1      50.619   7.746  12.492  0.00  0.00    +0.000 HD
ENDBRANCH   6   8
ENDBRANCH   1   2
BRANCH   1  13
ATOM     13  C   UNL     1      43.935   4.927  11.471  0.00  0.00    +0.000 C 
BRANCH  13  17
ATOM     14  C   UNL     1      45.864   3.732   7.902  0.00  0.00    +0.000 A 
ATOM     15  C   UNL     1      45.068   2.852   8.632  0.00  0.00    +0.000 A 
ATOM     16  N   UNL     1      44.448   3.198   9.789  0.00  0.00    +0.000 NA
ATOM     17  C   UNL     1      44.644   4.472  10.219  0.00  0.00    +0.000 A 
ATOM     18  C   UNL     1      45.457   5.342   9.503  0.00  0.00    +0.000 A 
ATOM     19  N   UNL     1      46.074   5.000   8.341  0.00  0.00    +0.000 NA
BRANCH  14  20
ATOM     20  C   UNL     1      46.491   3.325   6.589  0.00  0.00    +0.000 C 
BRANCH  20  22
ATOM     21  N   UNL     1      47.763   0.869   6.876  0.00  0.00    +0.000 NA
ATOM     22  C   UNL     1      47.186   1.983   6.746  0.00  0.00    +0.000 C 
ENDBRANCH  20  22
ENDBRANCH  14  20
ENDBRANCH  13  17
ENDBRANCH   1  13
TORSDOF 6
ENDMDL
MODEL 6
REMARK VINA RESULT:    -6.521      2.187      3.240
REMARK INTER + INTRA:          -9.258
REMARK INTER:                  -8.903
REMARK INTRA:                  -0.355
REMARK UNBOUND:                -0.450
REMARK  Name = 
REMARK  6 active torsions:
REMARK  status: ('A' for Active; 'I' for Inactive)
REMARK    1  A    between atoms: C_2  and  C_3
REMARK    2  A    between atoms: C_3  and  C_4
REMARK    3  A    between atoms: C_7  and  C_8
REMARK    4  A    between atoms: C_8  and  O_9
REMARK    5  A    between atoms: O_9  and  C_10
REMARK    6  A    between atoms: C_14  and  C_15
REMARK                            x       y       z     vdW  Elec       q    Type
REMARK                         _______ _______ _______ _____ _____    ______ ____
ROOT
ATOM      1  O   UNL     1      44.245   4.748  12.556  0.00  0.00    +0.000 OA
ENDROOT
BRANCH   1   2
ATOM      2  C   UNL     1      45.247   5.627  12.880  0.00  0.00    +0.000 A 
ATOM      3  C   UNL     1      46.453   5.296  13.491  0.00  0.00    +0.000 A 
ATOM      4  C   UNL     1      47.374   6.307  13.734  0.00  0.00    +0.000 A 
ATOM      5  N   UNL     1      47.174   7.604  13.420  0.00  0.00    +0.000 NA
ATOM      6  C   UNL     1      45.993   7.897  12.809  0.00  0.00    +0.000 A 
ATOM      7  C   UNL     1      45.019   6.950  12.513  0.00  0.00    +0.000 A 
BRANCH   6   8
ATOM      8  C   UNL     1      45.749   9.333  12.460  0.00  0.00    +0.000 C 
ATOM      9  N   UNL     1      44.473   9.794  12.650  0.00  0.00    +0.000 N 
ATOM     10  O   UNL     1      46.632  10.063  12.026  0.00  0.00    +0.000 OA
ATOM     11  H   UNL     1      43.756   9.173  13.007  0.00  0.00    +0.000 HD
ATOM     12  H   UNL     1      44.258  10.751  12.423  0.00  0.00    +0.000 HD
ENDBRANCH   6   8
ENDBRANCH   1   2
BRANCH   1  13
ATOM     13  C   UNL     1      43.563   4.986  11.322  0.00  0.00    +0.000 C 
BRANCH  13  17
ATOM     14  C   UNL     1      45.714   3.430   8.029  0.00  0.00    +0.000 A 
ATOM     15  C   UNL     1      44.870   2.629   8.795  0.00  0.00    +0.000 A 
ATOM     16  N   UNL     1      44.177   3.092   9.866  0.00  0.00    +0.000 NA
ATOM     17  C   UNL     1      44.350   4.405  10.172  0.00  0.00    +0.000 A 
ATOM     18  C   UNL     1      45.210   5.198   9.423  0.00  0.00    +0.000 A 
ATOM     19  N   UNL     1      45.900   4.738   8.346  0.00  0.00    +0.000 NA
BRANCH  14  20
ATOM     20  C   UNL     1      46.423   2.890   6.810  0.00  0.00    +0.000 C 
BRANCH  20  22
ATOM     21  N   UNL     1      47.258   0.281   7.287  0.00  0.00    +0.000 NA
ATOM     22  C   UNL     1      46.880   1.464   7.071  0.00  0.00    +0.000 C 
ENDBRANCH  20  22
ENDBRANCH  14  20
ENDBRANCH  13  17
ENDBRANCH   1  13
TORSDOF 6
ENDMDL
MODEL 7
REMARK VINA RESULT:    -6.358      2.397      6.697
REMARK INTER + INTRA:          -9.039
REMARK INTER:                  -8.723
REMARK INTRA:                  -0.316
REMARK UNBOUND:                -0.450
REMARK  Name = 
REMARK  6 active torsions:
REMARK  status: ('A' for Active; 'I' for Inactive)
REMARK    1  A    between atoms: C_2  and  C_3
REMARK    2  A    between atoms: C_3  and  C_4
REMARK    3  A    between atoms: C_7  and  C_8
REMARK    4  A    between atoms: C_8  and  O_9
REMARK    5  A    between atoms: O_9  and  C_10
REMARK    6  A    between atoms: C_14  and  C_15
REMARK                            x       y       z     vdW  Elec       q    Type
REMARK                         _______ _______ _______ _____ _____    ______ ____
ROOT
ATOM      1  O   UNL     1      45.681   6.706  12.752  0.00  0.00    +0.000 OA
ENDROOT
BRANCH   1   2
ATOM      2  C   UNL     1      44.854   5.807  12.127  0.00  0.00    +0.000 A 
ATOM      3  C   UNL     1      43.659   5.310  12.640  0.00  0.00    +0.000 A 
ATOM      4  C   UNL     1      42.926   4.418  11.868  0.00  0.00    +0.000 A 
ATOM      5  N   UNL     1      43.302   3.989  10.644  0.00  0.00    +0.000 NA
ATOM      6  C   UNL     1      44.467   4.504  10.162  0.00  0.00    +0.000 A 
ATOM      7  C   UNL     1      45.258   5.412  10.855  0.00  0.00    +0.000 A 
BRANCH   6   8
ATOM      8  C   UNL     1      44.905   4.034   8.808  0.00  0.00    +0.000 C 
ATOM      9  N   UNL     1      44.443   2.807   8.415  0.00  0.00    +0.000 N 
ATOM     10  O   UNL     1      45.636   4.701   8.086  0.00  0.00    +0.000 OA
ATOM     11  H   UNL     1      43.841   2.269   9.029  0.00  0.00    +0.000 HD
ATOM     12  H   UNL     1      44.715   2.444   7.516  0.00  0.00    +0.000 HD
ENDBRANCH   6   8
ENDBRANCH   1   2
BRANCH   1  13
ATOM     13  C   UNL     1      47.078   6.398  12.745  0.00  0.00    +0.000 C 
BRANCH  13  17
ATOM     14  C   UNL     1      47.908   3.806  15.982  0.00  0.00    +0.000 A 
ATOM     15  C   UNL     1      48.198   5.167  16.044  0.00  0.00    +0.000 A 
ATOM     16  N   UNL     1      47.959   6.024  15.018  0.00  0.00    +0.000 NA
ATOM     17  C   UNL     1      47.414   5.482  13.897  0.00  0.00    +0.000 A 
ATOM     18  C   UNL     1      47.147   4.120  13.827  0.00  0.00    +0.000 A 
ATOM     19  N   UNL     1      47.381   3.262  14.855  0.00  0.00    +0.000 NA
BRANCH  14  20
ATOM     20  C   UNL     1      48.137   2.896  17.167  0.00  0.00    +0.000 C 
BRANCH  20  22
ATOM     21  N   UNL     1      50.554   1.554  16.868  0.00  0.00    +0.000 NA
ATOM     22  C   UNL     1      49.458   2.162  17.004  0.00  0.00    +0.000 C 
ENDBRANCH  20  22
ENDBRANCH  14  20
ENDBRANCH  13  17
ENDBRANCH   1  13
TORSDOF 6
ENDMDL
MODEL 8
REMARK VINA RESULT:    -5.917      2.206      6.362
REMARK INTER + INTRA:          -8.442
REMARK INTER:                  -7.808
REMARK INTRA:                  -0.634
REMARK UNBOUND:                -0.450
REMARK  Name = 
REMARK  6 active torsions:
REMARK  status: ('A' for Active; 'I' for Inactive)
REMARK    1  A    between atoms: C_2  and  C_3
REMARK    2  A    between atoms: C_3  and  C_4
REMARK    3  A    between atoms: C_7  and  C_8
REMARK    4  A    between atoms: C_8  and  O_9
REMARK    5  A    between atoms: O_9  and  C_10
REMARK    6  A    between atoms: C_14  and  C_15
REMARK                            x       y       z     vdW  Elec       q    Type
REMARK                         _______ _______ _______ _____ _____    ______ ____
ROOT
ATOM      1  O   UNL     1      43.529   5.253  10.170  0.00  0.00    +0.000 OA
ENDROOT
BRANCH   1   2
ATOM      2  C   UNL     1      44.157   4.118   9.724  0.00  0.00    +0.000 A 
ATOM      3  C   UNL     1      43.946   2.830  10.206  0.00  0.00    +0.000 A 
ATOM      4  C   UNL     1      44.651   1.781   9.628  0.00  0.00    +0.000 A 
ATOM      5  N   UNL     1      45.542   1.930   8.625  0.00  0.00    +0.000 NA
ATOM      6  C   UNL     1      45.716   3.199   8.163  0.00  0.00    +0.000 A 
ATOM      7  C   UNL     1      45.045   4.306   8.668  0.00  0.00    +0.000 A 
BRANCH   6   8
ATOM      8  C   UNL     1      46.707   3.385   7.055  0.00  0.00    +0.000 C 
ATOM      9  N   UNL     1      47.742   2.490   7.012  0.00  0.00    +0.000 N 
ATOM     10  O   UNL     1      46.608   4.285   6.229  0.00  0.00    +0.000 OA
ATOM     11  H   UNL     1      47.808   1.755   7.706  0.00  0.00    +0.000 HD
ATOM     12  H   UNL     1      48.438   2.579   6.290  0.00  0.00    +0.000 HD
ENDBRANCH   6   8
ENDBRANCH   1   2
BRANCH   1  13
ATOM     13  C   UNL     1      43.314   5.349  11.581  0.00  0.00    +0.000 C 
BRANCH  13  17
ATOM     14  C   UNL     1      46.973   6.377  13.437  0.00  0.00    +0.000 A 
ATOM     15  C   UNL     1      46.355   5.150  13.669  0.00  0.00    +0.000 A 
ATOM     16  N   UNL     1      45.175   4.794  13.102  0.00  0.00    +0.000 NA
ATOM     17  C   UNL     1      44.601   5.712  12.280  0.00  0.00    +0.000 A 
ATOM     18  C   UNL     1      45.205   6.946  12.068  0.00  0.00    +0.000 A 
ATOM     19  N   UNL     1      46.391   7.301  12.630  0.00  0.00    +0.000 NA
BRANCH  14  20
ATOM     20  C   UNL     1      48.316   6.712  14.043  0.00  0.00    +0.000 C 
BRANCH  20  22
ATOM     21  N   UNL     1      50.027   7.660  12.067  0.00  0.00    +0.000 NA
ATOM     22  C   UNL     1      49.251   7.230  12.963  0.00  0.00    +0.000 C 
ENDBRANCH  20  22
ENDBRANCH  14  20
ENDBRANCH  13  17
ENDBRANCH   1  13
TORSDOF 6
ENDMDL
MODEL 9
REMARK VINA RESULT:    -5.837      3.606      7.964
REMARK INTER + INTRA:          -8.335
REMARK INTER:                  -7.989
REMARK INTRA:                  -0.345
REMARK UNBOUND:                -0.450
REMARK  Name = 
REMARK  6 active torsions:
REMARK  status: ('A' for Active; 'I' for Inactive)
REMARK    1  A    between atoms: C_2  and  C_3
REMARK    2  A    between atoms: C_3  and  C_4
REMARK    3  A    between atoms: C_7  and  C_8
REMARK    4  A    between atoms: C_8  and  O_9
REMARK    5  A    between atoms: O_9  and  C_10
REMARK    6  A    between atoms: C_14  and  C_15
REMARK                            x       y       z     vdW  Elec       q    Type
REMARK                         _______ _______ _______ _____ _____    ______ ____
ROOT
ATOM      1  O   UNL     1      47.401   3.244  14.610  0.00  0.00    +0.000 OA
ENDROOT
BRANCH   1   2
ATOM      2  C   UNL     1      46.796   4.039  13.669  0.00  0.00    +0.000 A 
ATOM      3  C   UNL     1      47.078   5.382  13.437  0.00  0.00    +0.000 A 
ATOM      4  C   UNL     1      46.386   6.040  12.428  0.00  0.00    +0.000 A 
ATOM      5  N   UNL     1      45.444   5.462  11.654  0.00  0.00    +0.000 NA
ATOM      6  C   UNL     1      45.200   4.143  11.893  0.00  0.00    +0.000 A 
ATOM      7  C   UNL     1      45.853   3.400  12.869  0.00  0.00    +0.000 A 
BRANCH   6   8
ATOM      8  C   UNL     1      44.152   3.485  11.049  0.00  0.00    +0.000 C 
ATOM      9  N   UNL     1      43.491   2.431  11.619  0.00  0.00    +0.000 N 
ATOM     10  O   UNL     1      43.894   3.859   9.911  0.00  0.00    +0.000 OA
ATOM     11  H   UNL     1      43.721   2.134  12.561  0.00  0.00    +0.000 HD
ATOM     12  H   UNL     1      42.782   1.951  11.089  0.00  0.00    +0.000 HD
ENDBRANCH   6   8
ENDBRANCH   1   2
BRANCH   1  13
ATOM     13  C   UNL     1      47.366   3.715  15.959  0.00  0.00    +0.000 C 
BRANCH  13  17
ATOM     14  C   UNL     1      51.148   3.145  17.764  0.00  0.00    +0.000 A 
ATOM     15  C   UNL     1      50.521   2.130  17.045  0.00  0.00    +0.000 A 
ATOM     16  N   UNL     1      49.302   2.274  16.466  0.00  0.00    +0.000 NA
ATOM     17  C   UNL     1      48.700   3.482  16.626  0.00  0.00    +0.000 A 
ATOM     18  C   UNL     1      49.314   4.486  17.364  0.00  0.00    +0.000 A 
ATOM     19  N   UNL     1      50.538   4.346  17.939  0.00  0.00    +0.000 NA
BRANCH  14  20
ATOM     20  C   UNL     1      52.532   2.963  18.344  0.00  0.00    +0.000 C 
BRANCH  20  22
ATOM     21  N   UNL     1      53.288   0.295  18.150  0.00  0.00    +0.000 NA
ATOM     22  C   UNL     1      52.945   1.505  18.238  0.00  0.00    +0.000 C 
ENDBRANCH  20  22
ENDBRANCH  14  20
ENDBRANCH  13  17
ENDBRANCH   1  13
TORSDOF 6
ENDMDL
