MODEL 1
REMARK VINA RESULT:    -8.283      0.000      0.000
REMARK INTER + INTRA:         -11.395
REMARK INTER:                 -10.705
REMARK INTRA:                  -0.690
REMARK UNBOUND:                -0.690
REMARK  Name = 
REMARK  5 active torsions:
REMARK  status: ('A' for Active; 'I' for Inactive)
REMARK    1  A    between atoms: C_2  and  C_4
REMARK    2  A    between atoms: C_7  and  N_8
REMARK    3  A    between atoms: N_8  and  C_9
REMARK    4  A    between atoms: C_9  and  C_10
REMARK    5  A    between atoms: C_14  and  N_15
REMARK                            x       y       z     vdW  Elec       q    Type
REMARK                         _______ _______ _______ _____ _____    ______ ____
ROOT
ATOM      1  N   UNL     1      43.785   3.644  10.340  0.00  0.00    +0.000 N 
ATOM      2  H   UNL     1      42.790   3.563  10.129  0.00  0.00    +0.000 HD
ENDROOT
BRANCH   1   6
ATOM      3  C   UNL     1      46.517   2.671   7.363  0.00  0.00    +0.000 A 
ATOM      4  C   UNL     1      46.091   1.652   8.201  0.00  0.00    +0.000 A 
ATOM      5  C   UNL     1      45.150   1.957   9.188  0.00  0.00    +0.000 A 
ATOM      6  C   UNL     1      44.636   3.250   9.309  0.00  0.00    +0.000 A 
ATOM      7  C   UNL     1      45.164   4.199   8.425  0.00  0.00    +0.000 A 
ATOM      8  N   UNL     1      46.073   3.954   7.448  0.00  0.00    +0.000 NA
BRANCH   3  10
ATOM      9  N   UNL     1      47.507   3.210   5.218  0.00  0.00    +0.000 N 
ATOM     10  C   UNL     1      47.538   2.383   6.307  0.00  0.00    +0.000 C 
ATOM     11  O   UNL     1      48.354   1.476   6.404  0.00  0.00    +0.000 OA
ATOM     12  H   UNL     1      48.182   3.089   4.479  0.00  0.00    +0.000 HD
ATOM     13  H   UNL     1      46.831   3.965   5.187  0.00  0.00    +0.000 HD
ENDBRANCH   3  10
ENDBRANCH   1   6
BRANCH   1  14
ATOM     14  C   UNL     1      44.044   3.199  11.718  0.00  0.00    +0.000 C 
BRANCH  14  15
ATOM     15  C   UNL     1      45.192   3.970  12.358  0.00  0.00    +0.000 A 
ATOM     16  N   UNL     1      45.975   3.297  13.219  0.00  0.00    +0.000 NA
ATOM     17  C   UNL     1      46.956   4.009  13.785  0.00  0.00    +0.000 A 
ATOM     18  C   UNL     1      47.170   5.346  13.533  0.00  0.00    +0.000 A 
ATOM     19  C   UNL     1      46.317   5.985  12.651  0.00  0.00    +0.000 A 
ATOM     20  N   UNL     1      45.319   5.288  12.072  0.00  0.00    +0.000 NA
BRANCH  19  21
ATOM     21  N   UNL     1      46.393   7.348  12.422  0.00  0.00    +0.000 N 
ATOM     22  C   UNL     1      47.653   8.042  12.109  0.00  0.00    +0.000 C 
ATOM     23  C   UNL     1      47.550   9.501  12.589  0.00  0.00    +0.000 C 
ATOM     24  O   UNL     1      46.420  10.172  12.009  0.00  0.00    +0.000 OA
ATOM     25  C   UNL     1      45.202   9.484  12.346  0.00  0.00    +0.000 C 
ATOM     26  C   UNL     1      45.219   8.028  11.847  0.00  0.00    +0.000 C 
ENDBRANCH  19  21
ENDBRANCH  14  15
ENDBRANCH   1  14
TORSDOF 5
ENDMDL
MODEL 2
REMARK VINA RESULT:    -8.227      2.387      3.546
REMARK INTER + INTRA:         -11.322
REMARK INTER:                 -10.654
REMARK INTRA:                  -0.667
REMARK UNBOUND:                -0.690
REMARK  Name = 
REMARK  5 active torsions:
REMARK  status: ('A' for Active; 'I' for Inactive)
REMARK    1  A    between atoms: C_2  and  C_4
REMARK    2  A    between atoms: C_7  and  N_8
REMARK    3  A    between atoms: N_8  and  C_9
REMARK    4  A    between atoms: C_9  and  C_10
REMARK    5  A    between atoms: C_14  and  N_15
REMARK                            x       y       z     vdW  Elec       q    Type
REMARK                         _______ _______ _______ _____ _____    ______ ____
ROOT
ATOM      1  N   UNL     1      43.638   4.765   9.749  0.00  0.00    +0.000 N 
ATOM      2  H   UNL     1      42.717   4.722   9.311  0.00  0.00    +0.000 HD
ENDROOT
BRANCH   1   6
ATOM      3  C   UNL     1      46.252   2.043   8.009  0.00  0.00    +0.000 A 
ATOM      4  C   UNL     1      46.349   3.369   7.615  0.00  0.00    +0.000 A 
ATOM      5  C   UNL     1      45.498   4.301   8.212  0.00  0.00    +0.000 A 
ATOM      6  C   UNL     1      44.589   3.908   9.198  0.00  0.00    +0.000 A 
ATOM      7  C   UNL     1      44.563   2.540   9.490  0.00  0.00    +0.000 A 
ATOM      8  N   UNL     1      45.371   1.596   8.943  0.00  0.00    +0.000 NA
BRANCH   3  10
ATOM      9  N   UNL     1      46.820  -0.285   7.654  0.00  0.00    +0.000 N 
ATOM     10  C   UNL     1      47.137   1.016   7.375  0.00  0.00    +0.000 C 
ATOM     11  O   UNL     1      48.079   1.308   6.649  0.00  0.00    +0.000 OA
ATOM     12  H   UNL     1      47.359  -1.031   7.241  0.00  0.00    +0.000 HD
ATOM     13  H   UNL     1      46.017  -0.487   8.240  0.00  0.00    +0.000 HD
ENDBRANCH   3  10
ENDBRANCH   1   6
BRANCH   1  14
ATOM     14  C   UNL     1      43.495   4.864  11.209  0.00  0.00    +0.000 C 
BRANCH  14  15
ATOM     15  C   UNL     1      44.555   5.769  11.825  0.00  0.00    +0.000 A 
ATOM     16  N   UNL     1      44.719   6.983  11.271  0.00  0.00    +0.000 NA
ATOM     17  C   UNL     1      45.676   7.741  11.817  0.00  0.00    +0.000 A 
ATOM     18  C   UNL     1      46.466   7.333  12.868  0.00  0.00    +0.000 A 
ATOM     19  C   UNL     1      46.260   6.064  13.380  0.00  0.00    +0.000 A 
ATOM     20  N   UNL     1      45.303   5.280  12.843  0.00  0.00    +0.000 NA
BRANCH  19  21
ATOM     21  N   UNL     1      47.076   5.533  14.363  0.00  0.00    +0.000 N 
ATOM     22  C   UNL     1      47.180   4.088  14.628  0.00  0.00    +0.000 C 
ATOM     23  C   UNL     1      47.554   3.880  16.107  0.00  0.00    +0.000 C 
ATOM     24  O   UNL     1      48.768   4.568  16.450  0.00  0.00    +0.000 OA
ATOM     25  C   UNL     1      48.632   5.978  16.199  0.00  0.00    +0.000 C 
ATOM     26  C   UNL     1      48.307   6.260  14.721  0.00  0.00    +0.000 C 
ENDBRANCH  19  21
ENDBRANCH  14  15
ENDBRANCH   1  14
TORSDOF 5
ENDMDL
MODEL 3
REMARK VINA RESULT:    -8.082      1.158      1.713
REMARK INTER + INTRA:         -11.134
REMARK INTER:                 -10.447
REMARK INTRA:                  -0.688
REMARK UNBOUND:                -0.690
REMARK  Name = 
REMARK  5 active torsions:
REMARK  status: ('A' for Active; 'I' for Inactive)
REMARK    1  A    between atoms: C_2  and  C_4
REMARK    2  A    between atoms: C_7  and  N_8
REMARK    3  A    between atoms: N_8  and  C_9
REMARK    4  A    between atoms: C_9  and  C_10
REMARK    5  A    between atoms: C_14  and  N_15
REMARK                            x       y       z     vdW  Elec       q    Type
REMARK                         _______ _______ _______ _____ _____    ______ ____
ROOT
ATOM      1  N   UNL     1      43.681   4.500  10.082  0.00  0.00    +0.000 N 
ATOM      2  H   UNL     1      42.749   4.485   9.667  0.00  0.00    +0.000 HD
ENDROOT
BRANCH   1   6
ATOM      3  C   UNL     1      46.377   2.308   7.804  0.00  0.00    +0.000 A 
ATOM      4  C   UNL     1      46.370   3.684   7.642  0.00  0.00    +0.000 A 
ATOM      5  C   UNL     1      45.491   4.438   8.422  0.00  0.00    +0.000 A 
ATOM      6  C   UNL     1      44.657   3.820   9.357  0.00  0.00    +0.000 A 
ATOM      7  C   UNL     1      44.734   2.423   9.410  0.00  0.00    +0.000 A 
ATOM      8  N   UNL     1      45.573   1.647   8.679  0.00  0.00    +0.000 NA
BRANCH   3  10
ATOM      9  N   UNL     1      48.412   2.106   6.504  0.00  0.00    +0.000 N 
ATOM     10  C   UNL     1      47.295   1.469   6.970  0.00  0.00    +0.000 C 
ATOM     11  O   UNL     1      47.074   0.291   6.723  0.00  0.00    +0.000 OA
ATOM     12  H   UNL     1      49.087   1.595   5.956  0.00  0.00    +0.000 HD
ATOM     13  H   UNL     1      48.572   3.076   6.752  0.00  0.00    +0.000 HD
ENDBRANCH   3  10
ENDBRANCH   1   6
BRANCH   1  14
ATOM     14  C   UNL     1      43.583   4.316  11.539  0.00  0.00    +0.000 C 
BRANCH  14  15
ATOM     15  C   UNL     1      44.878   4.692  12.248  0.00  0.00    +0.000 A 
ATOM     16  N   UNL     1      45.440   3.757  13.033  0.00  0.00    +0.000 NA
ATOM     17  C   UNL     1      46.560   4.128  13.662  0.00  0.00    +0.000 A 
ATOM     18  C   UNL     1      47.121   5.381  13.547  0.00  0.00    +0.000 A 
ATOM     19  C   UNL     1      46.482   6.305  12.738  0.00  0.00    +0.000 A 
ATOM     20  N   UNL     1      45.350   5.954  12.097  0.00  0.00    +0.000 NA
BRANCH  19  21
ATOM     21  N   UNL     1      46.914   7.617  12.648  0.00  0.00    +0.000 N 
ATOM     22  C   UNL     1      46.052   8.771  12.951  0.00  0.00    +0.000 C 
ATOM     23  C   UNL     1      46.534   9.981  12.131  0.00  0.00    +0.000 C 
ATOM     24  O   UNL     1      47.917  10.275  12.381  0.00  0.00    +0.000 OA
ATOM     25  C   UNL     1      48.737   9.139  12.059  0.00  0.00    +0.000 C 
ATOM     26  C   UNL     1      48.340   7.903  12.885  0.00  0.00    +0.000 C 
ENDBRANCH  19  21
ENDBRANCH  14  15
ENDBRANCH   1  14
TORSDOF 5
ENDMDL
MODEL 4
REMARK VINA RESULT:    -7.073      1.488      2.491
REMARK INTER + INTRA:          -9.831
REMARK INTER:                  -9.276
REMARK INTRA:                  -0.555
REMARK UNBOUND:                -0.690
REMARK  Name = 
REMARK  5 active torsions:
REMARK  status: ('A' for Active; 'I' for Inactive)
REMARK    1  A    between atoms: C_2  and  C_4
REMARK    2  A    between atoms: C_7  and  N_8
REMARK    3  A    between atoms: N_8  and  C_9
REMARK    4  A    between atoms: C_9  and  C_10
REMARK    5  A    between atoms: C_14  and  N_15
REMARK                            x       y       z     vdW  Elec       q    Type
REMARK                         _______ _______ _______ _____ _____    ______ ____
ROOT
ATOM      1  N   UNL     1      43.730   3.096  10.449  0.00  0.00    +0.000 N 
ATOM      2  H   UNL     1      43.153   2.262  10.557  0.00  0.00    +0.000 HD
ENDROOT
BRANCH   1   6
ATOM      3  C   UNL     1      46.547   2.605   7.434  0.00  0.00    +0.000 A 
ATOM      4  C   UNL     1      46.093   3.891   7.686  0.00  0.00    +0.000 A 
ATOM      5  C   UNL     1      45.169   4.076   8.716  0.00  0.00    +0.000 A 
ATOM      6  C   UNL     1      44.732   2.996   9.486  0.00  0.00    +0.000 A 
ATOM      7  C   UNL     1      45.238   1.744   9.119  0.00  0.00    +0.000 A 
ATOM      8  N   UNL     1      46.141   1.511   8.132  0.00  0.00    +0.000 NA
BRANCH   3  10
ATOM      9  N   UNL     1      47.298   3.082   5.180  0.00  0.00    +0.000 N 
ATOM     10  C   UNL     1      47.524   2.369   6.325  0.00  0.00    +0.000 C 
ATOM     11  O   UNL     1      48.469   1.597   6.427  0.00  0.00    +0.000 OA
ATOM     12  H   UNL     1      47.931   2.991   4.400  0.00  0.00    +0.000 HD
ATOM     13  H   UNL     1      46.518   3.730   5.144  0.00  0.00    +0.000 HD
ENDBRANCH   3  10
ENDBRANCH   1   6
BRANCH   1  14
ATOM     14  C   UNL     1      44.033   3.670  11.769  0.00  0.00    +0.000 C 
BRANCH  14  15
ATOM     15  C   UNL     1      44.235   5.179  11.702  0.00  0.00    +0.000 A 
ATOM     16  N   UNL     1      43.208   5.913  11.240  0.00  0.00    +0.000 NA
ATOM     17  C   UNL     1      43.427   7.230  11.167  0.00  0.00    +0.000 A 
ATOM     18  C   UNL     1      44.617   7.827  11.522  0.00  0.00    +0.000 A 
ATOM     19  C   UNL     1      45.642   7.012  11.971  0.00  0.00    +0.000 A 
ATOM     20  N   UNL     1      45.444   5.681  12.049  0.00  0.00    +0.000 NA
BRANCH  19  21
ATOM     21  N   UNL     1      46.902   7.512  12.247  0.00  0.00    +0.000 N 
ATOM     22  C   UNL     1      47.161   8.936  12.520  0.00  0.00    +0.000 C 
ATOM     23  C   UNL     1      48.604   9.268  12.101  0.00  0.00    +0.000 C 
ATOM     24  O   UNL     1      49.558   8.422  12.762  0.00  0.00    +0.000 OA
ATOM     25  C   UNL     1      49.293   7.040  12.463  0.00  0.00    +0.000 C 
ATOM     26  C   UNL     1      47.879   6.627  12.906  0.00  0.00    +0.000 C 
ENDBRANCH  19  21
ENDBRANCH  14  15
ENDBRANCH   1  14
TORSDOF 5
ENDMDL
MODEL 5
REMARK VINA RESULT:    -7.001      5.200      8.228
REMARK INTER + INTRA:          -9.738
REMARK INTER:                  -9.213
REMARK INTRA:                  -0.525
REMARK UNBOUND:                -0.690
REMARK  Name = 
REMARK  5 active torsions:
REMARK  status: ('A' for Active; 'I' for Inactive)
REMARK    1  A    between atoms: C_2  and  C_4
REMARK    2  A    between atoms: C_7  and  N_8
REMARK    3  A    between atoms: N_8  and  C_9
REMARK    4  A    between atoms: C_9  and  C_10
REMARK    5  A    between atoms: C_14  and  N_15
REMARK                            x       y       z     vdW  Elec       q    Type
REMARK                         _______ _______ _______ _____ _____    ______ ____
ROOT
ATOM      1  N   UNL     1      48.626   4.344  17.386  0.00  0.00    +0.000 N 
ATOM      2  H   UNL     1      48.847   5.313  17.155  0.00  0.00    +0.000 HD
ENDROOT
BRANCH   1   6
ATOM      3  C   UNL     1      51.918   1.815  17.581  0.00  0.00    +0.000 A 
ATOM      4  C   UNL     1      52.073   3.109  18.054  0.00  0.00    +0.000 A 
ATOM      5  C   UNL     1      50.968   3.962  18.023  0.00  0.00    +0.000 A 
ATOM      6  C   UNL     1      49.733   3.513  17.549  0.00  0.00    +0.000 A 
ATOM      7  C   UNL     1      49.707   2.198  17.071  0.00  0.00    +0.000 A 
ATOM      8  N   UNL     1      50.749   1.329  17.084  0.00  0.00    +0.000 NA
BRANCH   3  10
ATOM      9  N   UNL     1      52.901  -0.292  18.261  0.00  0.00    +0.000 N 
ATOM     10  C   UNL     1      53.088   0.881  17.583  0.00  0.00    +0.000 C 
ATOM     11  O   UNL     1      54.141   1.136  17.013  0.00  0.00    +0.000 OA
ATOM     12  H   UNL     1      53.639  -0.980  18.283  0.00  0.00    +0.000 HD
ATOM     13  H   UNL     1      52.005  -0.477  18.699  0.00  0.00    +0.000 HD
ENDBRANCH   3  10
ENDBRANCH   1   6
BRANCH   1  14
ATOM     14  C   UNL     1      47.475   3.889  16.592  0.00  0.00    +0.000 C 
BRANCH  14  15
ATOM     15  C   UNL     1      47.344   4.661  15.285  0.00  0.00    +0.000 A 
ATOM     16  N   UNL     1      48.162   5.713  15.111  0.00  0.00    +0.000 NA
ATOM     17  C   UNL     1      48.003   6.386  13.967  0.00  0.00    +0.000 A 
ATOM     18  C   UNL     1      47.065   6.058  13.013  0.00  0.00    +0.000 A 
ATOM     19  C   UNL     1      46.239   4.975  13.261  0.00  0.00    +0.000 A 
ATOM     20  N   UNL     1      46.379   4.285  14.410  0.00  0.00    +0.000 NA
BRANCH  19  21
ATOM     21  N   UNL     1      45.201   4.640  12.410  0.00  0.00    +0.000 N 
ATOM     22  C   UNL     1      44.725   5.525  11.334  0.00  0.00    +0.000 C 
ATOM     23  C   UNL     1      43.238   5.229  11.067  0.00  0.00    +0.000 C 
ATOM     24  O   UNL     1      43.021   3.846  10.747  0.00  0.00    +0.000 OA
ATOM     25  C   UNL     1      43.478   3.006  11.822  0.00  0.00    +0.000 C 
ATOM     26  C   UNL     1      44.975   3.216  12.107  0.00  0.00    +0.000 C 
ENDBRANCH  19  21
ENDBRANCH  14  15
ENDBRANCH   1  14
TORSDOF 5
ENDMDL
MODEL 6
REMARK VINA RESULT:    -6.806      2.478      3.629
REMARK INTER + INTRA:          -9.485
REMARK INTER:                  -9.025
REMARK INTRA:                  -0.460
REMARK UNBOUND:                -0.690
REMARK  Name = 
REMARK  5 active torsions:
REMARK  status: ('A' for Active; 'I' for Inactive)
REMARK    1  A    between atoms: C_2  and  C_4
REMARK    2  A    between atoms: C_7  and  N_8
REMARK    3  A    between atoms: N_8  and  C_9
REMARK    4  A    between atoms: C_9  and  C_10
REMARK    5  A    between atoms: C_14  and  N_15
REMARK                            x       y       z     vdW  Elec       q    Type
REMARK                         _______ _______ _______ _____ _____    ______ ____
ROOT
ATOM      1  N   UNL     1      44.398   4.496  11.212  0.00  0.00    +0.000 N 
ATOM      2  H   UNL     1      44.565   3.962  12.065  0.00  0.00    +0.000 HD
ENDROOT
BRANCH   1   6
ATOM      3  C   UNL     1      46.144   2.907   7.792  0.00  0.00    +0.000 A 
ATOM      4  C   UNL     1      45.655   2.017   8.736  0.00  0.00    +0.000 A 
ATOM      5  C   UNL     1      45.039   2.535   9.877  0.00  0.00    +0.000 A 
ATOM      6  C   UNL     1      44.899   3.915  10.049  0.00  0.00    +0.000 A 
ATOM      7  C   UNL     1      45.457   4.712   9.043  0.00  0.00    +0.000 A 
ATOM      8  N   UNL     1      46.060   4.259   7.914  0.00  0.00    +0.000 NA
BRANCH   3  10
ATOM      9  N   UNL     1      47.072   3.312   5.591  0.00  0.00    +0.000 N 
ATOM     10  C   UNL     1      46.827   2.385   6.566  0.00  0.00    +0.000 C 
ATOM     11  O   UNL     1      47.155   1.212   6.439  0.00  0.00    +0.000 OA
ATOM     12  H   UNL     1      47.551   3.035   4.747  0.00  0.00    +0.000 HD
ATOM     13  H   UNL     1      46.807   4.278   5.745  0.00  0.00    +0.000 HD
ENDBRANCH   3  10
ENDBRANCH   1   6
BRANCH   1  14
ATOM     14  C   UNL     1      44.608   5.929  11.468  0.00  0.00    +0.000 C 
BRANCH  14  15
ATOM     15  C   UNL     1      45.981   6.204  12.069  0.00  0.00    +0.000 A 
ATOM     16  N   UNL     1      46.856   6.887  11.310  0.00  0.00    +0.000 NA
ATOM     17  C   UNL     1      48.060   7.088  11.855  0.00  0.00    +0.000 A 
ATOM     18  C   UNL     1      48.418   6.628  13.104  0.00  0.00    +0.000 A 
ATOM     19  C   UNL     1      47.478   5.915  13.826  0.00  0.00    +0.000 A 
ATOM     20  N   UNL     1      46.259   5.697  13.295  0.00  0.00    +0.000 NA
BRANCH  19  21
ATOM     21  N   UNL     1      47.786   5.326  15.041  0.00  0.00    +0.000 N 
ATOM     22  C   UNL     1      48.381   6.067  16.165  0.00  0.00    +0.000 C 
ATOM     23  C   UNL     1      49.205   5.089  17.023  0.00  0.00    +0.000 C 
ATOM     24  O   UNL     1      48.410   3.984  17.481  0.00  0.00    +0.000 OA
ATOM     25  C   UNL     1      47.857   3.269  16.363  0.00  0.00    +0.000 C 
ATOM     26  C   UNL     1      46.976   4.179  15.489  0.00  0.00    +0.000 C 
ENDBRANCH  19  21
ENDBRANCH  14  15
ENDBRANCH   1  14
TORSDOF 5
ENDMDL
MODEL 7
REMARK VINA RESULT:    -6.703      1.997      6.666
REMARK INTER + INTRA:          -9.353
REMARK INTER:                  -8.691
REMARK INTRA:                  -0.662
REMARK UNBOUND:                -0.690
REMARK  Name = 
REMARK  5 active torsions:
REMARK  status: ('A' for Active; 'I' for Inactive)
REMARK    1  A    between atoms: C_2  and  C_4
REMARK    2  A    between atoms: C_7  and  N_8
REMARK    3  A    between atoms: N_8  and  C_9
REMARK    4  A    between atoms: C_9  and  C_10
REMARK    5  A    between atoms: C_14  and  N_15
REMARK                            x       y       z     vdW  Elec       q    Type
REMARK                         _______ _______ _______ _____ _____    ______ ____
ROOT
ATOM      1  N   UNL     1      44.848   6.497  13.004  0.00  0.00    +0.000 N 
ATOM      2  H   UNL     1      44.278   6.981  13.699  0.00  0.00    +0.000 HD
ENDROOT
BRANCH   1   6
ATOM      3  C   UNL     1      48.851   7.539  12.607  0.00  0.00    +0.000 A 
ATOM      4  C   UNL     1      47.906   8.533  12.405  0.00  0.00    +0.000 A 
ATOM      5  C   UNL     1      46.557   8.206  12.564  0.00  0.00    +0.000 A 
ATOM      6  C   UNL     1      46.175   6.916  12.940  0.00  0.00    +0.000 A 
ATOM      7  C   UNL     1      47.217   5.992  13.086  0.00  0.00    +0.000 A 
ATOM      8  N   UNL     1      48.540   6.260  12.949  0.00  0.00    +0.000 NA
BRANCH   3  10
ATOM      9  N   UNL     1      50.894   7.286  11.329  0.00  0.00    +0.000 N 
ATOM     10  C   UNL     1      50.304   7.851  12.426  0.00  0.00    +0.000 C 
ATOM     11  O   UNL     1      50.929   8.568  13.197  0.00  0.00    +0.000 OA
ATOM     12  H   UNL     1      51.865   7.474  11.131  0.00  0.00    +0.000 HD
ATOM     13  H   UNL     1      50.336   6.719  10.700  0.00  0.00    +0.000 HD
ENDBRANCH   3  10
ENDBRANCH   1   6
BRANCH   1  14
ATOM     14  C   UNL     1      44.075   6.306  11.767  0.00  0.00    +0.000 C 
BRANCH  14  15
ATOM     15  C   UNL     1      44.010   4.840  11.357  0.00  0.00    +0.000 A 
ATOM     16  N   UNL     1      43.345   4.006  12.175  0.00  0.00    +0.000 NA
ATOM     17  C   UNL     1      43.330   2.722  11.802  0.00  0.00    +0.000 A 
ATOM     18  C   UNL     1      43.952   2.250  10.668  0.00  0.00    +0.000 A 
ATOM     19  C   UNL     1      44.637   3.157   9.878  0.00  0.00    +0.000 A 
ATOM     20  N   UNL     1      44.669   4.456  10.237  0.00  0.00    +0.000 NA
BRANCH  19  21
ATOM     21  N   UNL     1      45.378   2.755   8.781  0.00  0.00    +0.000 N 
ATOM     22  C   UNL     1      45.600   1.341   8.435  0.00  0.00    +0.000 C 
ATOM     23  C   UNL     1      46.935   1.219   7.678  0.00  0.00    +0.000 C 
ATOM     24  O   UNL     1      46.964   2.059   6.513  0.00  0.00    +0.000 OA
ATOM     25  C   UNL     1      46.763   3.434   6.882  0.00  0.00    +0.000 C 
ATOM     26  C   UNL     1      45.418   3.636   7.601  0.00  0.00    +0.000 C 
ENDBRANCH  19  21
ENDBRANCH  14  15
ENDBRANCH   1  14
TORSDOF 5
ENDMDL
MODEL 8
REMARK VINA RESULT:    -6.279      4.016      6.124
REMARK INTER + INTRA:          -8.804
REMARK INTER:                  -8.173
REMARK INTRA:                  -0.631
REMARK UNBOUND:                -0.690
REMARK  Name = 
REMARK  5 active torsions:
REMARK  status: ('A' for Active; 'I' for Inactive)
REMARK    1  A    between atoms: C_2  and  C_4
REMARK    2  A    between atoms: C_7  and  N_8
REMARK    3  A    between atoms: N_8  and  C_9
REMARK    4  A    between atoms: C_9  and  C_10
REMARK    5  A    between atoms: C_14  and  N_15
REMARK                            x       y       z     vdW  Elec       q    Type
REMARK                         _______ _______ _______ _____ _____    ______ ____
ROOT
ATOM      1  N   UNL     1      46.501   7.197  13.284  0.00  0.00    +0.000 N 
ATOM      2  H   UNL     1      46.358   7.227  14.294  0.00  0.00    +0.000 HD
ENDROOT
BRANCH   1   6
ATOM      3  C   UNL     1      44.648   3.893  11.575  0.00  0.00    +0.000 A 
ATOM      4  C   UNL     1      44.920   4.974  10.751  0.00  0.00    +0.000 A 
ATOM      5  C   UNL     1      45.570   6.080  11.304  0.00  0.00    +0.000 A 
ATOM      6  C   UNL     1      45.955   6.085  12.647  0.00  0.00    +0.000 A 
ATOM      7  C   UNL     1      45.600   4.950  13.385  0.00  0.00    +0.000 A 
ATOM      8  N   UNL     1      44.975   3.849  12.895  0.00  0.00    +0.000 NA
BRANCH   3  10
ATOM      9  N   UNL     1      44.466   2.184   9.868  0.00  0.00    +0.000 N 
ATOM     10  C   UNL     1      43.937   2.699  11.019  0.00  0.00    +0.000 C 
ATOM     11  O   UNL     1      42.953   2.205  11.554  0.00  0.00    +0.000 OA
ATOM     12  H   UNL     1      44.052   1.364   9.451  0.00  0.00    +0.000 HD
ATOM     13  H   UNL     1      45.297   2.607   9.469  0.00  0.00    +0.000 HD
ENDBRANCH   3  10
ENDBRANCH   1   6
BRANCH   1  14
ATOM     14  C   UNL     1      47.867   7.634  12.958  0.00  0.00    +0.000 C 
BRANCH  14  15
ATOM     15  C   UNL     1      48.840   7.360  14.098  0.00  0.00    +0.000 A 
ATOM     16  N   UNL     1      50.043   7.956  14.032  0.00  0.00    +0.000 NA
ATOM     17  C   UNL     1      50.883   7.673  15.034  0.00  0.00    +0.000 A 
ATOM     18  C   UNL     1      50.573   6.824  16.073  0.00  0.00    +0.000 A 
ATOM     19  C   UNL     1      49.325   6.227  16.072  0.00  0.00    +0.000 A 
ATOM     20  N   UNL     1      48.463   6.495  15.070  0.00  0.00    +0.000 NA
BRANCH  19  21
ATOM     21  N   UNL     1      48.968   5.281  17.016  0.00  0.00    +0.000 N 
ATOM     22  C   UNL     1      49.023   5.531  18.466  0.00  0.00    +0.000 C 
ATOM     23  C   UNL     1      49.254   4.194  19.194  0.00  0.00    +0.000 C 
ATOM     24  O   UNL     1      48.244   3.228  18.862  0.00  0.00    +0.000 OA
ATOM     25  C   UNL     1      48.225   2.989  17.444  0.00  0.00    +0.000 C 
ATOM     26  C   UNL     1      47.946   4.281  16.657  0.00  0.00    +0.000 C 
ENDBRANCH  19  21
ENDBRANCH  14  15
ENDBRANCH   1  14
TORSDOF 5
ENDMDL
MODEL 9
REMARK VINA RESULT:    -6.147      4.821      6.971
REMARK INTER + INTRA:          -8.634
REMARK INTER:                  -8.115
REMARK INTRA:                  -0.519
REMARK UNBOUND:                -0.690
REMARK  Name = 
REMARK  5 active torsions:
REMARK  status: ('A' for Active; 'I' for Inactive)
REMARK    1  A    between atoms: C_2  and  C_4
REMARK    2  A    between atoms: C_7  and  N_8
REMARK    3  A    between atoms: N_8  and  C_9
REMARK    4  A    between atoms: C_9  and  C_10
REMARK    5  A    between atoms: C_14  and  N_15
REMARK                            x       y       z     vdW  Elec       q    Type
REMARK                         _______ _______ _______ _____ _____    ______ ____
ROOT
ATOM      1  N   UNL     1      47.138   7.171  13.990  0.00  0.00    +0.000 N 
ATOM      2  H   UNL     1      46.660   7.379  14.866  0.00  0.00    +0.000 HD
ENDROOT
BRANCH   1   6
ATOM      3  C   UNL     1      45.086   4.265  11.841  0.00  0.00    +0.000 A 
ATOM      4  C   UNL     1      45.301   5.488  11.224  0.00  0.00    +0.000 A 
ATOM      5  C   UNL     1      46.015   6.464  11.921  0.00  0.00    +0.000 A 
ATOM      6  C   UNL     1      46.519   6.205  13.199  0.00  0.00    +0.000 A 
ATOM      7  C   UNL     1      46.213   4.946  13.728  0.00  0.00    +0.000 A 
ATOM      8  N   UNL     1      45.529   3.962  13.090  0.00  0.00    +0.000 NA
BRANCH   3  10
ATOM      9  N   UNL     1      45.014   2.477  10.208  0.00  0.00    +0.000 N 
ATOM     10  C   UNL     1      44.309   3.203  11.128  0.00  0.00    +0.000 C 
ATOM     11  O   UNL     1      43.125   2.986  11.351  0.00  0.00    +0.000 OA
ATOM     12  H   UNL     1      44.559   1.728   9.707  0.00  0.00    +0.000 HD
ATOM     13  H   UNL     1      46.000   2.671  10.070  0.00  0.00    +0.000 HD
ENDBRANCH   3  10
ENDBRANCH   1   6
BRANCH   1  14
ATOM     14  C   UNL     1      48.591   7.119  14.212  0.00  0.00    +0.000 C 
BRANCH  14  15
ATOM     15  C   UNL     1      48.935   6.832  15.668  0.00  0.00    +0.000 A 
ATOM     16  N   UNL     1      48.659   7.796  16.563  0.00  0.00    +0.000 NA
ATOM     17  C   UNL     1      48.998   7.525  17.828  0.00  0.00    +0.000 A 
ATOM     18  C   UNL     1      49.601   6.351  18.220  0.00  0.00    +0.000 A 
ATOM     19  C   UNL     1      49.877   5.406  17.247  0.00  0.00    +0.000 A 
ATOM     20  N   UNL     1      49.547   5.660  15.965  0.00  0.00    +0.000 NA
BRANCH  19  21
ATOM     21  N   UNL     1      50.575   4.246  17.534  0.00  0.00    +0.000 N 
ATOM     22  C   UNL     1      51.734   4.209  18.441  0.00  0.00    +0.000 C 
ATOM     23  C   UNL     1      52.656   3.048  18.024  0.00  0.00    +0.000 C 
ATOM     24  O   UNL     1      51.956   1.794  18.009  0.00  0.00    +0.000 OA
ATOM     25  C   UNL     1      50.841   1.853  17.102  0.00  0.00    +0.000 C 
ATOM     26  C   UNL     1      49.851   2.964  17.494  0.00  0.00    +0.000 C 
ENDBRANCH  19  21
ENDBRANCH  14  15
ENDBRANCH   1  14
TORSDOF 5
ENDMDL
