MODEL 1
REMARK VINA RESULT:    -8.734      0.000      0.000
REMARK INTER + INTRA:         -12.263
REMARK INTER:                 -11.287
REMARK INTRA:                  -0.976
REMARK UNBOUND:                -0.976
REMARK  Name = 
REMARK  7 active torsions:
REMARK  status: ('A' for Active; 'I' for Inactive)
REMARK    1  A    between atoms: C_1  and  C_2
REMARK    2  A    between atoms: C_2  and  C_3
REMARK    3  A    between atoms: C_2  and  C_4
REMARK    4  A    between atoms: C_2  and  C_19
REMARK    5  A    between atoms: C_5  and  C_6
REMARK    6  A    between atoms: C_10  and  C_11
REMARK    7  A    between atoms: C_22  and  C_23
REMARK                            x       y       z     vdW  Elec       q    Type
REMARK                         _______ _______ _______ _____ _____    ______ ____
ROOT
ATOM      1  C   UNL     1      45.281   4.664  11.924  0.00  0.00    +0.000 C 
ATOM      2  C   UNL     1      45.994   5.801  11.845  0.00  0.00    +0.000 C 
ENDROOT
BRANCH   2   3
ATOM      3  C   UNL     1      46.925   6.278  12.873  0.00  0.00    +0.000 A 
ATOM      4  C   UNL     1      47.487   7.554  12.829  0.00  0.00    +0.000 A 
ATOM      5  C   UNL     1      48.309   7.992  13.861  0.00  0.00    +0.000 A 
ATOM      6  C   UNL     1      48.554   7.164  14.954  0.00  0.00    +0.000 A 
ATOM      7  C   UNL     1      47.978   5.887  15.051  0.00  0.00    +0.000 A 
ATOM      8  C   UNL     1      47.169   5.458  13.983  0.00  0.00    +0.000 A 
BRANCH   7   9
ATOM      9  C   UNL     1      48.173   5.040  16.248  0.00  0.00    +0.000 A 
ATOM     10  C   UNL     1      49.174   5.329  17.188  0.00  0.00    +0.000 A 
ATOM     11  C   UNL     1      49.309   4.530  18.315  0.00  0.00    +0.000 A 
ATOM     12  N   UNL     1      48.521   3.472  18.581  0.00  0.00    +0.000 NA
ATOM     13  C   UNL     1      47.561   3.206  17.673  0.00  0.00    +0.000 A 
ATOM     14  F   UNL     1      46.750   2.165  17.922  0.00  0.00    +0.000 F 
ATOM     15  C   UNL     1      47.356   3.938  16.519  0.00  0.00    +0.000 A 
ENDBRANCH   7   9
ENDBRANCH   2   3
BRANCH   1  17
ATOM     16  C   UNL     1      43.480   2.942  11.373  0.00  0.00    +0.000 C 
ATOM     17  C   UNL     1      44.347   4.105  10.847  0.00  0.00    +0.000 C 
ATOM     18  C   UNL     1      43.415   5.273  10.448  0.00  0.00    +0.000 C 
BRANCH  17  19
ATOM     19  C   UNL     1      45.128   3.608   9.615  0.00  0.00    +0.000 A 
ATOM     20  C   UNL     1      45.295   2.246   9.360  0.00  0.00    +0.000 A 
ATOM     21  C   UNL     1      46.022   1.840   8.240  0.00  0.00    +0.000 A 
ATOM     22  C   UNL     1      46.560   2.792   7.374  0.00  0.00    +0.000 A 
ATOM     23  C   UNL     1      46.321   4.122   7.676  0.00  0.00    +0.000 A 
ATOM     24  N   UNL     1      45.620   4.545   8.761  0.00  0.00    +0.000 NA
BRANCH  22  25
ATOM     25  C   UNL     1      47.346   2.336   6.202  0.00  0.00    +0.000 C 
ATOM     26  N   UNL     1      47.213   2.993   5.010  0.00  0.00    +0.000 N 
ATOM     27  O   UNL     1      48.116   1.385   6.289  0.00  0.00    +0.000 OA
ATOM     28  H   UNL     1      46.628   3.793   4.834  0.00  0.00    +0.000 HD
ATOM     29  H   UNL     1      47.784   2.654   4.246  0.00  0.00    +0.000 HD
ENDBRANCH  22  25
ENDBRANCH  17  19
ENDBRANCH   1  17
TORSDOF 5
ENDMDL
MODEL 2
REMARK VINA RESULT:    -7.999      2.863      3.951
REMARK INTER + INTRA:         -11.313
REMARK INTER:                 -10.231
REMARK INTRA:                  -1.082
REMARK UNBOUND:                -0.976
REMARK  Name = 
REMARK  7 active torsions:
REMARK  status: ('A' for Active; 'I' for Inactive)
REMARK    1  A    between atoms: C_1  and  C_2
REMARK    2  A    between atoms: C_2  and  C_3
REMARK    3  A    between atoms: C_2  and  C_4
REMARK    4  A    between atoms: C_2  and  C_19
REMARK    5  A    between atoms: C_5  and  C_6
REMARK    6  A    between atoms: C_10  and  C_11
REMARK    7  A    between atoms: C_22  and  C_23
REMARK                            x       y       z     vdW  Elec       q    Type
REMARK                         _______ _______ _______ _____ _____    ______ ____
ROOT
ATOM      1  C   UNL     1      45.131   4.790  12.207  0.00  0.00    +0.000 C 
ATOM      2  C   UNL     1      45.965   4.169  13.059  0.00  0.00    +0.000 C 
ENDROOT
BRANCH   2   3
ATOM      3  C   UNL     1      46.835   4.851  14.023  0.00  0.00    +0.000 A 
ATOM      4  C   UNL     1      47.073   4.339  15.299  0.00  0.00    +0.000 A 
ATOM      5  C   UNL     1      47.960   4.980  16.156  0.00  0.00    +0.000 A 
ATOM      6  C   UNL     1      48.633   6.124  15.733  0.00  0.00    +0.000 A 
ATOM      7  C   UNL     1      48.448   6.649  14.444  0.00  0.00    +0.000 A 
ATOM      8  C   UNL     1      47.526   5.996  13.604  0.00  0.00    +0.000 A 
BRANCH   7   9
ATOM      9  C   UNL     1      49.221   7.816  13.966  0.00  0.00    +0.000 A 
ATOM     10  C   UNL     1      49.655   8.813  14.853  0.00  0.00    +0.000 A 
ATOM     11  C   UNL     1      50.405   9.879  14.374  0.00  0.00    +0.000 A 
ATOM     12  N   UNL     1      50.761  10.023  13.084  0.00  0.00    +0.000 NA
ATOM     13  C   UNL     1      50.341   9.058  12.242  0.00  0.00    +0.000 A 
ATOM     14  F   UNL     1      50.696   9.170  10.952  0.00  0.00    +0.000 F 
ATOM     15  C   UNL     1      49.585   7.967  12.623  0.00  0.00    +0.000 A 
ENDBRANCH   7   9
ENDBRANCH   2   3
BRANCH   1  17
ATOM     16  C   UNL     1      43.433   2.914  11.874  0.00  0.00    +0.000 C 
ATOM     17  C   UNL     1      44.165   4.111  11.232  0.00  0.00    +0.000 C 
ATOM     18  C   UNL     1      43.118   5.186  10.858  0.00  0.00    +0.000 C 
BRANCH  17  19
ATOM     19  C   UNL     1      44.887   3.614   9.965  0.00  0.00    +0.000 A 
ATOM     20  C   UNL     1      44.999   2.253   9.678  0.00  0.00    +0.000 A 
ATOM     21  C   UNL     1      45.674   1.846   8.526  0.00  0.00    +0.000 A 
ATOM     22  C   UNL     1      46.216   2.797   7.662  0.00  0.00    +0.000 A 
ATOM     23  C   UNL     1      46.033   4.128   7.998  0.00  0.00    +0.000 A 
ATOM     24  N   UNL     1      45.383   4.551   9.114  0.00  0.00    +0.000 NA
BRANCH  22  25
ATOM     25  C   UNL     1      46.947   2.339   6.456  0.00  0.00    +0.000 C 
ATOM     26  N   UNL     1      47.147   3.212   5.422  0.00  0.00    +0.000 N 
ATOM     27  O   UNL     1      47.379   1.194   6.375  0.00  0.00    +0.000 OA
ATOM     28  H   UNL     1      46.854   4.175   5.392  0.00  0.00    +0.000 HD
ATOM     29  H   UNL     1      47.667   2.857   4.630  0.00  0.00    +0.000 HD
ENDBRANCH  22  25
ENDBRANCH  17  19
ENDBRANCH   1  17
TORSDOF 5
ENDMDL
MODEL 3
REMARK VINA RESULT:    -7.870      3.563      8.827
REMARK INTER + INTRA:         -11.147
REMARK INTER:                 -10.154
REMARK INTRA:                  -0.993
REMARK UNBOUND:                -0.976
REMARK  Name = 
REMARK  7 active torsions:
REMARK  status: ('A' for Active; 'I' for Inactive)
REMARK    1  A    between atoms: C_1  and  C_2
REMARK    2  A    between atoms: C_2  and  C_3
REMARK    3  A    between atoms: C_2  and  C_4
REMARK    4  A    between atoms: C_2  and  C_19
REMARK    5  A    between atoms: C_5  and  C_6
REMARK    6  A    between atoms: C_10  and  C_11
REMARK    7  A    between atoms: C_22  and  C_23
REMARK                            x       y       z     vdW  Elec       q    Type
REMARK                         _______ _______ _______ _____ _____    ______ ____
ROOT
ATOM      1  C   UNL     1      47.307   6.428  13.055  0.00  0.00    +0.000 C 
ATOM      2  C   UNL     1      45.993   6.662  12.897  0.00  0.00    +0.000 C 
ENDROOT
BRANCH   2   3
ATOM      3  C   UNL     1      45.096   5.863  12.056  0.00  0.00    +0.000 A 
ATOM      4  C   UNL     1      43.707   5.953  12.158  0.00  0.00    +0.000 A 
ATOM      5  C   UNL     1      42.894   5.230  11.293  0.00  0.00    +0.000 A 
ATOM      6  C   UNL     1      43.465   4.431  10.306  0.00  0.00    +0.000 A 
ATOM      7  C   UNL     1      44.858   4.341  10.148  0.00  0.00    +0.000 A 
ATOM      8  C   UNL     1      45.659   5.064  11.051  0.00  0.00    +0.000 A 
BRANCH   7   9
ATOM      9  C   UNL     1      45.463   3.557   9.050  0.00  0.00    +0.000 A 
ATOM     10  C   UNL     1      46.067   4.188   7.952  0.00  0.00    +0.000 A 
ATOM     11  C   UNL     1      46.650   3.421   6.954  0.00  0.00    +0.000 A 
ATOM     12  N   UNL     1      46.686   2.075   6.969  0.00  0.00    +0.000 NA
ATOM     13  C   UNL     1      46.105   1.479   8.029  0.00  0.00    +0.000 A 
ATOM     14  F   UNL     1      46.140   0.138   8.077  0.00  0.00    +0.000 F 
ATOM     15  C   UNL     1      45.492   2.158   9.065  0.00  0.00    +0.000 A 
ENDBRANCH   7   9
ENDBRANCH   2   3
BRANCH   1  17
ATOM     16  C   UNL     1      49.654   7.390  13.335  0.00  0.00    +0.000 C 
ATOM     17  C   UNL     1      48.260   7.203  13.969  0.00  0.00    +0.000 C 
ATOM     18  C   UNL     1      47.617   8.596  14.165  0.00  0.00    +0.000 C 
BRANCH  17  19
ATOM     19  C   UNL     1      48.438   6.507  15.332  0.00  0.00    +0.000 A 
ATOM     20  C   UNL     1      49.002   7.173  16.421  0.00  0.00    +0.000 A 
ATOM     21  C   UNL     1      49.158   6.500  17.633  0.00  0.00    +0.000 A 
ATOM     22  C   UNL     1      48.735   5.177  17.757  0.00  0.00    +0.000 A 
ATOM     23  C   UNL     1      48.153   4.597  16.643  0.00  0.00    +0.000 A 
ATOM     24  N   UNL     1      47.992   5.228  15.450  0.00  0.00    +0.000 NA
BRANCH  22  25
ATOM     25  C   UNL     1      48.931   4.476  19.050  0.00  0.00    +0.000 C 
ATOM     26  N   UNL     1      48.388   3.233  19.226  0.00  0.00    +0.000 N 
ATOM     27  O   UNL     1      49.575   4.992  19.957  0.00  0.00    +0.000 OA
ATOM     28  H   UNL     1      47.860   2.712  18.545  0.00  0.00    +0.000 HD
ATOM     29  H   UNL     1      48.565   2.791  20.119  0.00  0.00    +0.000 HD
ENDBRANCH  22  25
ENDBRANCH  17  19
ENDBRANCH   1  17
TORSDOF 5
ENDMDL
MODEL 4
REMARK VINA RESULT:    -7.654      3.851      8.907
REMARK INTER + INTRA:         -10.868
REMARK INTER:                  -9.806
REMARK INTRA:                  -1.062
REMARK UNBOUND:                -0.976
REMARK  Name = 
REMARK  7 active torsions:
REMARK  status: ('A' for Active; 'I' for Inactive)
REMARK    1  A    between atoms: C_1  and  C_2
REMARK    2  A    between atoms: C_2  and  C_3
REMARK    3  A    between atoms: C_2  and  C_4
REMARK    4  A    between atoms: C_2  and  C_19
REMARK    5  A    between atoms: C_5  and  C_6
REMARK    6  A    between atoms: C_10  and  C_11
REMARK    7  A    between atoms: C_22  and  C_23
REMARK                            x       y       z     vdW  Elec       q    Type
REMARK                         _______ _______ _______ _____ _____    ______ ____
ROOT
ATOM      1  C   UNL     1      47.530   7.229  11.764  0.00  0.00    +0.000 C 
ATOM      2  C   UNL     1      46.193   7.193  11.903  0.00  0.00    +0.000 C 
ENDROOT
BRANCH   2   3
ATOM      3  C   UNL     1      45.317   6.184  11.300  0.00  0.00    +0.000 A 
ATOM      4  C   UNL     1      43.942   6.156  11.540  0.00  0.00    +0.000 A 
ATOM      5  C   UNL     1      43.137   5.226  10.893  0.00  0.00    +0.000 A 
ATOM      6  C   UNL     1      43.699   4.334   9.983  0.00  0.00    +0.000 A 
ATOM      7  C   UNL     1      45.072   4.354   9.687  0.00  0.00    +0.000 A 
ATOM      8  C   UNL     1      45.868   5.289  10.373  0.00  0.00    +0.000 A 
BRANCH   7   9
ATOM      9  C   UNL     1      45.654   3.462   8.662  0.00  0.00    +0.000 A 
ATOM     10  C   UNL     1      46.235   3.978   7.493  0.00  0.00    +0.000 A 
ATOM     11  C   UNL     1      46.799   3.112   6.567  0.00  0.00    +0.000 A 
ATOM     12  N   UNL     1      46.835   1.775   6.716  0.00  0.00    +0.000 NA
ATOM     13  C   UNL     1      46.276   1.290   7.843  0.00  0.00    +0.000 A 
ATOM     14  F   UNL     1      46.313  -0.039   8.026  0.00  0.00    +0.000 F 
ATOM     15  C   UNL     1      45.684   2.072   8.817  0.00  0.00    +0.000 A 
ENDBRANCH   7   9
ENDBRANCH   2   3
BRANCH   1  17
ATOM     16  C   UNL     1      49.918   8.121  11.875  0.00  0.00    +0.000 C 
ATOM     17  C   UNL     1      48.481   8.229  12.426  0.00  0.00    +0.000 C 
ATOM     18  C   UNL     1      47.926   9.632  12.081  0.00  0.00    +0.000 C 
BRANCH  17  19
ATOM     19  C   UNL     1      48.534   8.043  13.955  0.00  0.00    +0.000 A 
ATOM     20  C   UNL     1      48.243   9.095  14.826  0.00  0.00    +0.000 A 
ATOM     21  C   UNL     1      48.317   8.887  16.204  0.00  0.00    +0.000 A 
ATOM     22  C   UNL     1      48.662   7.631  16.702  0.00  0.00    +0.000 A 
ATOM     23  C   UNL     1      48.901   6.631  15.775  0.00  0.00    +0.000 A 
ATOM     24  N   UNL     1      48.839   6.806  14.429  0.00  0.00    +0.000 NA
BRANCH  22  25
ATOM     25  C   UNL     1      48.754   7.440  18.170  0.00  0.00    +0.000 C 
ATOM     26  N   UNL     1      47.608   7.273  18.897  0.00  0.00    +0.000 N 
ATOM     27  O   UNL     1      49.841   7.425  18.738  0.00  0.00    +0.000 OA
ATOM     28  H   UNL     1      46.670   7.250  18.532  0.00  0.00    +0.000 HD
ATOM     29  H   UNL     1      47.726   7.129  19.892  0.00  0.00    +0.000 HD
ENDBRANCH  22  25
ENDBRANCH  17  19
ENDBRANCH   1  17
TORSDOF 5
ENDMDL
MODEL 5
REMARK VINA RESULT:    -7.603      3.533      8.390
REMARK INTER + INTRA:         -10.802
REMARK INTER:                  -9.718
REMARK INTRA:                  -1.084
REMARK UNBOUND:                -0.976
REMARK  Name = 
REMARK  7 active torsions:
REMARK  status: ('A' for Active; 'I' for Inactive)
REMARK    1  A    between atoms: C_1  and  C_2
REMARK    2  A    between atoms: C_2  and  C_3
REMARK    3  A    between atoms: C_2  and  C_4
REMARK    4  A    between atoms: C_2  and  C_19
REMARK    5  A    between atoms: C_5  and  C_6
REMARK    6  A    between atoms: C_10  and  C_11
REMARK    7  A    between atoms: C_22  and  C_23
REMARK                            x       y       z     vdW  Elec       q    Type
REMARK                         _______ _______ _______ _____ _____    ______ ____
ROOT
ATOM      1  C   UNL     1      48.256   5.546  16.101  0.00  0.00    +0.000 C 
ATOM      2  C   UNL     1      48.656   6.533  15.281  0.00  0.00    +0.000 C 
ENDROOT
BRANCH   2   3
ATOM      3  C   UNL     1      48.133   6.762  13.930  0.00  0.00    +0.000 A 
ATOM      4  C   UNL     1      48.700   7.697  13.064  0.00  0.00    +0.000 A 
ATOM      5  C   UNL     1      48.217   7.833  11.767  0.00  0.00    +0.000 A 
ATOM      6  C   UNL     1      47.180   7.017  11.323  0.00  0.00    +0.000 A 
ATOM      7  C   UNL     1      46.607   6.040  12.152  0.00  0.00    +0.000 A 
ATOM      8  C   UNL     1      47.097   5.939  13.468  0.00  0.00    +0.000 A 
BRANCH   7   9
ATOM      9  C   UNL     1      45.561   5.120  11.655  0.00  0.00    +0.000 A 
ATOM     10  C   UNL     1      45.124   5.167  10.322  0.00  0.00    +0.000 A 
ATOM     11  C   UNL     1      44.163   4.269   9.883  0.00  0.00    +0.000 A 
ATOM     12  N   UNL     1      43.608   3.323  10.665  0.00  0.00    +0.000 NA
ATOM     13  C   UNL     1      44.037   3.285  11.942  0.00  0.00    +0.000 A 
ATOM     14  F   UNL     1      43.512   2.342  12.739  0.00  0.00    +0.000 F 
ATOM     15  C   UNL     1      44.982   4.143  12.472  0.00  0.00    +0.000 A 
ENDBRANCH   7   9
ENDBRANCH   2   3
BRANCH   1  17
ATOM     16  C   UNL     1      49.299   6.597  18.179  0.00  0.00    +0.000 C 
ATOM     17  C   UNL     1      48.734   5.313  17.537  0.00  0.00    +0.000 C 
ATOM     18  C   UNL     1      47.483   4.874  18.333  0.00  0.00    +0.000 C 
BRANCH  17  19
ATOM     19  C   UNL     1      49.817   4.219  17.608  0.00  0.00    +0.000 A 
ATOM     20  C   UNL     1      51.027   4.436  18.270  0.00  0.00    +0.000 A 
ATOM     21  C   UNL     1      51.986   3.422  18.298  0.00  0.00    +0.000 A 
ATOM     22  C   UNL     1      51.726   2.197  17.684  0.00  0.00    +0.000 A 
ATOM     23  C   UNL     1      50.489   2.048  17.080  0.00  0.00    +0.000 A 
ATOM     24  N   UNL     1      49.539   3.019  17.034  0.00  0.00    +0.000 NA
BRANCH  22  25
ATOM     25  C   UNL     1      52.769   1.144  17.710  0.00  0.00    +0.000 C 
ATOM     26  N   UNL     1      52.468  -0.084  18.230  0.00  0.00    +0.000 N 
ATOM     27  O   UNL     1      53.893   1.356  17.267  0.00  0.00    +0.000 OA
ATOM     28  H   UNL     1      51.576  -0.371  18.601  0.00  0.00    +0.000 HD
ATOM     29  H   UNL     1      53.208  -0.774  18.209  0.00  0.00    +0.000 HD
ENDBRANCH  22  25
ENDBRANCH  17  19
ENDBRANCH   1  17
TORSDOF 5
ENDMDL
MODEL 6
REMARK VINA RESULT:    -7.398      4.329      8.042
REMARK INTER + INTRA:         -10.537
REMARK INTER:                  -9.524
REMARK INTRA:                  -1.013
REMARK UNBOUND:                -0.976
REMARK  Name = 
REMARK  7 active torsions:
REMARK  status: ('A' for Active; 'I' for Inactive)
REMARK    1  A    between atoms: C_1  and  C_2
REMARK    2  A    between atoms: C_2  and  C_3
REMARK    3  A    between atoms: C_2  and  C_4
REMARK    4  A    between atoms: C_2  and  C_19
REMARK    5  A    between atoms: C_5  and  C_6
REMARK    6  A    between atoms: C_10  and  C_11
REMARK    7  A    between atoms: C_22  and  C_23
REMARK                            x       y       z     vdW  Elec       q    Type
REMARK                         _______ _______ _______ _____ _____    ______ ____
ROOT
ATOM      1  C   UNL     1      46.796   7.427  11.879  0.00  0.00    +0.000 C 
ATOM      2  C   UNL     1      45.477   7.205  11.743  0.00  0.00    +0.000 C 
ENDROOT
BRANCH   2   3
ATOM      3  C   UNL     1      44.880   5.920  11.365  0.00  0.00    +0.000 A 
ATOM      4  C   UNL     1      43.661   5.487  11.887  0.00  0.00    +0.000 A 
ATOM      5  C   UNL     1      43.095   4.295  11.448  0.00  0.00    +0.000 A 
ATOM      6  C   UNL     1      43.736   3.541  10.468  0.00  0.00    +0.000 A 
ATOM      7  C   UNL     1      44.946   3.961   9.893  0.00  0.00    +0.000 A 
ATOM      8  C   UNL     1      45.509   5.158  10.371  0.00  0.00    +0.000 A 
BRANCH   7   9
ATOM      9  C   UNL     1      45.585   3.202   8.796  0.00  0.00    +0.000 A 
ATOM     10  C   UNL     1      46.095   3.853   7.662  0.00  0.00    +0.000 A 
ATOM     11  C   UNL     1      46.714   3.112   6.665  0.00  0.00    +0.000 A 
ATOM     12  N   UNL     1      46.870   1.776   6.713  0.00  0.00    +0.000 NA
ATOM     13  C   UNL     1      46.379   1.162   7.808  0.00  0.00    +0.000 A 
ATOM     14  F   UNL     1      46.536  -0.169   7.889  0.00  0.00    +0.000 F 
ATOM     15  C   UNL     1      45.740   1.813   8.846  0.00  0.00    +0.000 A 
ENDBRANCH   7   9
ENDBRANCH   2   3
BRANCH   1  17
ATOM     16  C   UNL     1      46.632   9.973  11.909  0.00  0.00    +0.000 C 
ATOM     17  C   UNL     1      47.451   8.735  12.330  0.00  0.00    +0.000 C 
ATOM     18  C   UNL     1      47.493   8.675  13.876  0.00  0.00    +0.000 C 
BRANCH  17  19
ATOM     19  C   UNL     1      48.878   8.885  11.768  0.00  0.00    +0.000 A 
ATOM     20  C   UNL     1      49.696   7.773  11.557  0.00  0.00    +0.000 A 
ATOM     21  C   UNL     1      50.988   7.956  11.061  0.00  0.00    +0.000 A 
ATOM     22  C   UNL     1      51.446   9.238  10.761  0.00  0.00    +0.000 A 
ATOM     23  C   UNL     1      50.563  10.284  10.965  0.00  0.00    +0.000 A 
ATOM     24  N   UNL     1      49.302  10.136  11.450  0.00  0.00    +0.000 NA
BRANCH  22  25
ATOM     25  C   UNL     1      52.830   9.407  10.255  0.00  0.00    +0.000 C 
ATOM     26  N   UNL     1      53.647  10.337  10.837  0.00  0.00    +0.000 N 
ATOM     27  O   UNL     1      53.252   8.723   9.329  0.00  0.00    +0.000 OA
ATOM     28  H   UNL     1      53.410  10.935  11.612  0.00  0.00    +0.000 HD
ATOM     29  H   UNL     1      54.586  10.402  10.467  0.00  0.00    +0.000 HD
ENDBRANCH  22  25
ENDBRANCH  17  19
ENDBRANCH   1  17
TORSDOF 5
ENDMDL
MODEL 7
REMARK VINA RESULT:    -6.873      5.500      7.437
REMARK INTER + INTRA:          -9.858
REMARK INTER:                  -8.919
REMARK INTRA:                  -0.939
REMARK UNBOUND:                -0.976
REMARK  Name = 
REMARK  7 active torsions:
REMARK  status: ('A' for Active; 'I' for Inactive)
REMARK    1  A    between atoms: C_1  and  C_2
REMARK    2  A    between atoms: C_2  and  C_3
REMARK    3  A    between atoms: C_2  and  C_4
REMARK    4  A    between atoms: C_2  and  C_19
REMARK    5  A    between atoms: C_5  and  C_6
REMARK    6  A    between atoms: C_10  and  C_11
REMARK    7  A    between atoms: C_22  and  C_23
REMARK                            x       y       z     vdW  Elec       q    Type
REMARK                         _______ _______ _______ _____ _____    ______ ____
ROOT
ATOM      1  C   UNL     1      48.492   7.680  11.792  0.00  0.00    +0.000 C 
ATOM      2  C   UNL     1      49.799   7.799  12.085  0.00  0.00    +0.000 C 
ENDROOT
BRANCH   2   3
ATOM      3  C   UNL     1      50.835   8.215  11.133  0.00  0.00    +0.000 A 
ATOM      4  C   UNL     1      51.180   9.554  10.952  0.00  0.00    +0.000 A 
ATOM      5  C   UNL     1      52.217   9.899  10.092  0.00  0.00    +0.000 A 
ATOM      6  C   UNL     1      52.929   8.904   9.427  0.00  0.00    +0.000 A 
ATOM      7  C   UNL     1      52.634   7.543   9.610  0.00  0.00    +0.000 A 
ATOM      8  C   UNL     1      51.565   7.222  10.467  0.00  0.00    +0.000 A 
BRANCH   7   9
ATOM      9  C   UNL     1      53.442   6.484   8.967  0.00  0.00    +0.000 A 
ATOM     10  C   UNL     1      54.583   5.958   9.592  0.00  0.00    +0.000 A 
ATOM     11  C   UNL     1      55.300   4.945   8.972  0.00  0.00    +0.000 A 
ATOM     12  N   UNL     1      54.964   4.409   7.784  0.00  0.00    +0.000 NA
ATOM     13  C   UNL     1      53.865   4.920   7.193  0.00  0.00    +0.000 A 
ATOM     14  F   UNL     1      53.499   4.393   6.014  0.00  0.00    +0.000 F 
ATOM     15  C   UNL     1      53.094   5.934   7.728  0.00  0.00    +0.000 A 
ENDBRANCH   7   9
ENDBRANCH   2   3
BRANCH   1  17
ATOM     16  C   UNL     1      47.925   6.899  14.154  0.00  0.00    +0.000 C 
ATOM     17  C   UNL     1      47.376   7.308  12.772  0.00  0.00    +0.000 C 
ATOM     18  C   UNL     1      46.520   8.586  12.940  0.00  0.00    +0.000 C 
BRANCH  17  19
ATOM     19  C   UNL     1      46.505   6.156  12.237  0.00  0.00    +0.000 A 
ATOM     20  C   UNL     1      46.059   6.134  10.914  0.00  0.00    +0.000 A 
ATOM     21  C   UNL     1      45.260   5.078  10.475  0.00  0.00    +0.000 A 
ATOM     22  C   UNL     1      44.925   4.045  11.349  0.00  0.00    +0.000 A 
ATOM     23  C   UNL     1      45.434   4.121  12.635  0.00  0.00    +0.000 A 
ATOM     24  N   UNL     1      46.212   5.138  13.090  0.00  0.00    +0.000 NA
BRANCH  22  25
ATOM     25  C   UNL     1      44.056   2.945  10.865  0.00  0.00    +0.000 C 
ATOM     26  N   UNL     1      44.485   2.159   9.831  0.00  0.00    +0.000 N 
ATOM     27  O   UNL     1      42.965   2.728  11.381  0.00  0.00    +0.000 OA
ATOM     28  H   UNL     1      45.367   2.237   9.350  0.00  0.00    +0.000 HD
ATOM     29  H   UNL     1      43.863   1.412   9.549  0.00  0.00    +0.000 HD
ENDBRANCH  22  25
ENDBRANCH  17  19
ENDBRANCH   1  17
TORSDOF 5
ENDMDL
MODEL 8
REMARK VINA RESULT:    -6.794      3.083      4.702
REMARK INTER + INTRA:          -9.756
REMARK INTER:                  -8.762
REMARK INTRA:                  -0.994
REMARK UNBOUND:                -0.976
REMARK  Name = 
REMARK  7 active torsions:
REMARK  status: ('A' for Active; 'I' for Inactive)
REMARK    1  A    between atoms: C_1  and  C_2
REMARK    2  A    between atoms: C_2  and  C_3
REMARK    3  A    between atoms: C_2  and  C_4
REMARK    4  A    between atoms: C_2  and  C_19
REMARK    5  A    between atoms: C_5  and  C_6
REMARK    6  A    between atoms: C_10  and  C_11
REMARK    7  A    between atoms: C_22  and  C_23
REMARK                            x       y       z     vdW  Elec       q    Type
REMARK                         _______ _______ _______ _____ _____    ______ ____
ROOT
ATOM      1  C   UNL     1      47.920   6.968  14.238  0.00  0.00    +0.000 C 
ATOM      2  C   UNL     1      48.565   7.818  15.055  0.00  0.00    +0.000 C 
ENDROOT
BRANCH   2   3
ATOM      3  C   UNL     1      49.179   7.446  16.334  0.00  0.00    +0.000 A 
ATOM      4  C   UNL     1      48.914   8.141  17.514  0.00  0.00    +0.000 A 
ATOM      5  C   UNL     1      49.461   7.712  18.718  0.00  0.00    +0.000 A 
ATOM      6  C   UNL     1      50.258   6.570  18.751  0.00  0.00    +0.000 A 
ATOM      7  C   UNL     1      50.519   5.822  17.591  0.00  0.00    +0.000 A 
ATOM      8  C   UNL     1      49.973   6.292  16.382  0.00  0.00    +0.000 A 
BRANCH   7   9
ATOM      9  C   UNL     1      51.297   4.566  17.640  0.00  0.00    +0.000 A 
ATOM     10  C   UNL     1      52.677   4.575  17.894  0.00  0.00    +0.000 A 
ATOM     11  C   UNL     1      53.370   3.375  17.962  0.00  0.00    +0.000 A 
ATOM     12  N   UNL     1      52.795   2.168  17.803  0.00  0.00    +0.000 NA
ATOM     13  C   UNL     1      51.469   2.171  17.562  0.00  0.00    +0.000 A 
ATOM     14  F   UNL     1      50.867   0.980  17.416  0.00  0.00    +0.000 F 
ATOM     15  C   UNL     1      50.698   3.314  17.468  0.00  0.00    +0.000 A 
ENDBRANCH   7   9
ENDBRANCH   2   3
BRANCH   1  17
ATOM     16  C   UNL     1      46.445   8.576  12.915  0.00  0.00    +0.000 C 
ATOM     17  C   UNL     1      47.321   7.307  12.870  0.00  0.00    +0.000 C 
ATOM     18  C   UNL     1      48.526   7.573  11.936  0.00  0.00    +0.000 C 
BRANCH  17  19
ATOM     19  C   UNL     1      46.470   6.149  12.316  0.00  0.00    +0.000 A 
ATOM     20  C   UNL     1      45.998   6.157  11.001  0.00  0.00    +0.000 A 
ATOM     21  C   UNL     1      45.218   5.095  10.544  0.00  0.00    +0.000 A 
ATOM     22  C   UNL     1      44.928   4.026  11.392  0.00  0.00    +0.000 A 
ATOM     23  C   UNL     1      45.460   4.075  12.669  0.00  0.00    +0.000 A 
ATOM     24  N   UNL     1      46.220   5.098  13.141  0.00  0.00    +0.000 NA
BRANCH  22  25
ATOM     25  C   UNL     1      44.078   2.919  10.890  0.00  0.00    +0.000 C 
ATOM     26  N   UNL     1      44.520   2.157   9.844  0.00  0.00    +0.000 N 
ATOM     27  O   UNL     1      42.990   2.675  11.401  0.00  0.00    +0.000 OA
ATOM     28  H   UNL     1      45.401   2.257   9.365  0.00  0.00    +0.000 HD
ATOM     29  H   UNL     1      43.912   1.404   9.550  0.00  0.00    +0.000 HD
ENDBRANCH  22  25
ENDBRANCH  17  19
ENDBRANCH   1  17
TORSDOF 5
ENDMDL
MODEL 9
REMARK VINA RESULT:    -6.708      4.875      6.710
REMARK INTER + INTRA:          -9.645
REMARK INTER:                  -8.626
REMARK INTRA:                  -1.019
REMARK UNBOUND:                -0.976
REMARK  Name = 
REMARK  7 active torsions:
REMARK  status: ('A' for Active; 'I' for Inactive)
REMARK    1  A    between atoms: C_1  and  C_2
REMARK    2  A    between atoms: C_2  and  C_3
REMARK    3  A    between atoms: C_2  and  C_4
REMARK    4  A    between atoms: C_2  and  C_19
REMARK    5  A    between atoms: C_5  and  C_6
REMARK    6  A    between atoms: C_10  and  C_11
REMARK    7  A    between atoms: C_22  and  C_23
REMARK                            x       y       z     vdW  Elec       q    Type
REMARK                         _______ _______ _______ _____ _____    ______ ____
ROOT
ATOM      1  C   UNL     1      51.218   8.076  11.001  0.00  0.00    +0.000 C 
ATOM      2  C   UNL     1      50.333   9.083  11.094  0.00  0.00    +0.000 C 
ENDROOT
BRANCH   2   3
ATOM      3  C   UNL     1      48.978   8.958  11.642  0.00  0.00    +0.000 A 
ATOM      4  C   UNL     1      48.140  10.062  11.808  0.00  0.00    +0.000 A 
ATOM      5  C   UNL     1      46.838   9.889  12.264  0.00  0.00    +0.000 A 
ATOM      6  C   UNL     1      46.360   8.610  12.534  0.00  0.00    +0.000 A 
ATOM      7  C   UNL     1      47.160   7.471  12.345  0.00  0.00    +0.000 A 
ATOM      8  C   UNL     1      48.481   7.675  11.906  0.00  0.00    +0.000 A 
BRANCH   7   9
ATOM      9  C   UNL     1      46.627   6.108  12.555  0.00  0.00    +0.000 A 
ATOM     10  C   UNL     1      45.509   5.647  11.842  0.00  0.00    +0.000 A 
ATOM     11  C   UNL     1      45.054   4.351  12.043  0.00  0.00    +0.000 A 
ATOM     12  N   UNL     1      45.629   3.479  12.891  0.00  0.00    +0.000 NA
ATOM     13  C   UNL     1      46.703   3.931  13.568  0.00  0.00    +0.000 A 
ATOM     14  F   UNL     1      47.305   3.076  14.410  0.00  0.00    +0.000 F 
ATOM     15  C   UNL     1      47.223   5.206  13.442  0.00  0.00    +0.000 A 
ENDBRANCH   7   9
ENDBRANCH   2   3
BRANCH   1  17
ATOM     16  C   UNL     1      52.956   9.561   9.866  0.00  0.00    +0.000 C 
ATOM     17  C   UNL     1      52.658   8.182  10.492  0.00  0.00    +0.000 C 
ATOM     18  C   UNL     1      53.559   8.002  11.737  0.00  0.00    +0.000 C 
BRANCH  17  19
ATOM     19  C   UNL     1      52.978   7.097   9.447  0.00  0.00    +0.000 A 
ATOM     20  C   UNL     1      52.434   7.141   8.162  0.00  0.00    +0.000 A 
ATOM     21  C   UNL     1      52.739   6.129   7.251  0.00  0.00    +0.000 A 
ATOM     22  C   UNL     1      53.595   5.092   7.620  0.00  0.00    +0.000 A 
ATOM     23  C   UNL     1      54.120   5.137   8.901  0.00  0.00    +0.000 A 
ATOM     24  N   UNL     1      53.838   6.108   9.808  0.00  0.00    +0.000 NA
BRANCH  22  25
ATOM     25  C   UNL     1      53.886   4.016   6.642  0.00  0.00    +0.000 C 
ATOM     26  N   UNL     1      53.242   2.815   6.756  0.00  0.00    +0.000 N 
ATOM     27  O   UNL     1      54.689   4.190   5.731  0.00  0.00    +0.000 OA
ATOM     28  H   UNL     1      52.553   2.572   7.450  0.00  0.00    +0.000 HD
ATOM     29  H   UNL     1      53.462   2.120   6.054  0.00  0.00    +0.000 HD
ENDBRANCH  22  25
ENDBRANCH  17  19
ENDBRANCH   1  17
TORSDOF 5
ENDMDL
