MODEL 1
REMARK VINA RESULT:    -8.420      0.000      0.000
REMARK INTER + INTRA:         -11.241
REMARK INTER:                 -10.635
REMARK INTRA:                  -0.606
REMARK UNBOUND:                -0.606
REMARK  Name = 
REMARK  8 active torsions:
REMARK  status: ('A' for Active; 'I' for Inactive)
REMARK    1  A    between atoms: C_1  and  C_2
REMARK    2  A    between atoms: C_2  and  C_3
REMARK    3  A    between atoms: C_2  and  C_4
REMARK    4  A    between atoms: C_2  and  C_5
REMARK    5  A    between atoms: C_7  and  C_8
REMARK    6  A    between atoms: C_8  and  N_9
REMARK    7  A    between atoms: C_14  and  C_15
REMARK    8  A    between atoms: C_15  and  O_17
REMARK                            x       y       z     vdW  Elec       q    Type
REMARK                         _______ _______ _______ _____ _____    ______ ____
ROOT
ATOM      1  N   UNL     1      44.700   4.520  10.395  0.00  0.00    +0.000 N 
ATOM      2  C   UNL     1      44.367   3.344  11.035  0.00  0.00    +0.000 A 
ATOM      3  C   UNL     1      44.168   2.445  10.012  0.00  0.00    +0.000 A 
ATOM      4  C   UNL     1      45.140   2.790   9.061  0.00  0.00    +0.000 A 
ATOM      5  C   UNL     1      45.873   2.125   8.083  0.00  0.00    +0.000 A 
ATOM      6  C   UNL     1      46.738   2.927   7.314  0.00  0.00    +0.000 A 
ATOM      7  C   UNL     1      46.681   4.312   7.437  0.00  0.00    +0.000 A 
ATOM      8  N   UNL     1      45.982   4.988   8.380  0.00  0.00    +0.000 NA
ATOM      9  C   UNL     1      45.299   4.174   9.202  0.00  0.00    +0.000 A 
ENDROOT
BRANCH   6  10
ATOM     10  C   UNL     1      47.751   2.315   6.410  0.00  0.00    +0.000 C 
ATOM     11  O   UNL     1      48.271   1.228   6.653  0.00  0.00    +0.000 OA
BRANCH  10  12
ATOM     12  O   UNL     1      47.907   3.025   5.274  0.00  0.00    +0.000 OA
ATOM     13  H   UNL     1      47.079   3.284   4.817  0.00  0.00    +0.000 HD
ENDBRANCH  10  12
ENDBRANCH   6  10
BRANCH   1  14
ATOM     14  C   UNL     1      44.817   5.790  11.089  0.00  0.00    +0.000 C 
BRANCH  14  17
ATOM     15  C   UNL     1      48.176   6.947  12.529  0.00  0.00    +0.000 A 
ATOM     16  C   UNL     1      47.091   6.834  11.660  0.00  0.00    +0.000 A 
ATOM     17  C   UNL     1      46.077   5.891  11.930  0.00  0.00    +0.000 A 
ATOM     18  C   UNL     1      46.165   5.137  13.095  0.00  0.00    +0.000 A 
ATOM     19  C   UNL     1      47.244   5.338  13.927  0.00  0.00    +0.000 A 
ATOM     20  N   UNL     1      48.220   6.238  13.686  0.00  0.00    +0.000 NA
BRANCH  15  22
ATOM     21  C   UNL     1      48.708   9.361  12.009  0.00  0.00    +0.000 C 
ATOM     22  C   UNL     1      49.308   7.981  12.349  0.00  0.00    +0.000 C 
ATOM     23  C   UNL     1      50.321   7.603  11.252  0.00  0.00    +0.000 C 
ATOM     24  C   UNL     1      50.105   8.120  13.670  0.00  0.00    +0.000 C 
ENDBRANCH  15  22
ENDBRANCH  14  17
ENDBRANCH   1  14
TORSDOF 5
ENDMDL
MODEL 2
REMARK VINA RESULT:    -6.400      4.192      7.591
REMARK INTER + INTRA:          -8.690
REMARK INTER:                  -8.353
REMARK INTRA:                  -0.337
REMARK UNBOUND:                -0.606
REMARK  Name = 
REMARK  8 active torsions:
REMARK  status: ('A' for Active; 'I' for Inactive)
REMARK    1  A    between atoms: C_1  and  C_2
REMARK    2  A    between atoms: C_2  and  C_3
REMARK    3  A    between atoms: C_2  and  C_4
REMARK    4  A    between atoms: C_2  and  C_5
REMARK    5  A    between atoms: C_7  and  C_8
REMARK    6  A    between atoms: C_8  and  N_9
REMARK    7  A    between atoms: C_14  and  C_15
REMARK    8  A    between atoms: C_15  and  O_17
REMARK                            x       y       z     vdW  Elec       q    Type
REMARK                         _______ _______ _______ _____ _____    ______ ____
ROOT
ATOM      1  N   UNL     1      48.793   7.007  13.885  0.00  0.00    +0.000 N 
ATOM      2  C   UNL     1      49.864   7.623  14.499  0.00  0.00    +0.000 A 
ATOM      3  C   UNL     1      49.536   7.624  15.836  0.00  0.00    +0.000 A 
ATOM      4  C   UNL     1      48.882   6.398  16.027  0.00  0.00    +0.000 A 
ATOM      5  C   UNL     1      48.718   5.496  17.074  0.00  0.00    +0.000 A 
ATOM      6  C   UNL     1      47.913   4.374  16.797  0.00  0.00    +0.000 A 
ATOM      7  C   UNL     1      47.198   4.320  15.603  0.00  0.00    +0.000 A 
ATOM      8  N   UNL     1      47.338   5.179  14.565  0.00  0.00    +0.000 NA
ATOM      9  C   UNL     1      48.243   6.142  14.807  0.00  0.00    +0.000 A 
ENDROOT
BRANCH   6  10
ATOM     10  C   UNL     1      47.855   3.220  17.736  0.00  0.00    +0.000 C 
ATOM     11  O   UNL     1      48.802   2.920  18.460  0.00  0.00    +0.000 OA
BRANCH  10  12
ATOM     12  O   UNL     1      46.627   2.664  17.775  0.00  0.00    +0.000 OA
ATOM     13  H   UNL     1      46.075   2.904  18.549  0.00  0.00    +0.000 HD
ENDBRANCH  10  12
ENDBRANCH   6  10
BRANCH   1  14
ATOM     14  C   UNL     1      48.633   6.957  12.443  0.00  0.00    +0.000 C 
BRANCH  14  17
ATOM     15  C   UNL     1      45.072   6.022  11.371  0.00  0.00    +0.000 A 
ATOM     16  C   UNL     1      46.429   5.894  11.666  0.00  0.00    +0.000 A 
ATOM     17  C   UNL     1      47.181   7.038  12.005  0.00  0.00    +0.000 A 
ATOM     18  C   UNL     1      46.526   8.262  12.090  0.00  0.00    +0.000 A 
ATOM     19  C   UNL     1      45.174   8.301  11.828  0.00  0.00    +0.000 A 
ATOM     20  N   UNL     1      44.439   7.216  11.506  0.00  0.00    +0.000 NA
BRANCH  15  22
ATOM     21  C   UNL     1      44.555   3.606  11.895  0.00  0.00    +0.000 C 
ATOM     22  C   UNL     1      44.154   4.826  11.039  0.00  0.00    +0.000 C 
ATOM     23  C   UNL     1      44.187   4.416   9.555  0.00  0.00    +0.000 C 
ATOM     24  C   UNL     1      42.686   5.184  11.377  0.00  0.00    +0.000 C 
ENDBRANCH  15  22
ENDBRANCH  14  17
ENDBRANCH   1  14
TORSDOF 5
ENDMDL
MODEL 3
REMARK VINA RESULT:    -6.216      1.750      2.824
REMARK INTER + INTRA:          -8.457
REMARK INTER:                  -7.723
REMARK INTRA:                  -0.734
REMARK UNBOUND:                -0.606
REMARK  Name = 
REMARK  8 active torsions:
REMARK  status: ('A' for Active; 'I' for Inactive)
REMARK    1  A    between atoms: C_1  and  C_2
REMARK    2  A    between atoms: C_2  and  C_3
REMARK    3  A    between atoms: C_2  and  C_4
REMARK    4  A    between atoms: C_2  and  C_5
REMARK    5  A    between atoms: C_7  and  C_8
REMARK    6  A    between atoms: C_8  and  N_9
REMARK    7  A    between atoms: C_14  and  C_15
REMARK    8  A    between atoms: C_15  and  O_17
REMARK                            x       y       z     vdW  Elec       q    Type
REMARK                         _______ _______ _______ _____ _____    ______ ____
ROOT
ATOM      1  N   UNL     1      44.900   5.615  11.989  0.00  0.00    +0.000 N 
ATOM      2  C   UNL     1      44.773   4.682  12.998  0.00  0.00    +0.000 A 
ATOM      3  C   UNL     1      44.168   3.605  12.391  0.00  0.00    +0.000 A 
ATOM      4  C   UNL     1      44.733   3.575  11.108  0.00  0.00    +0.000 A 
ATOM      5  C   UNL     1      45.020   2.602  10.155  0.00  0.00    +0.000 A 
ATOM      6  C   UNL     1      45.575   3.069   8.948  0.00  0.00    +0.000 A 
ATOM      7  C   UNL     1      45.632   4.438   8.704  0.00  0.00    +0.000 A 
ATOM      8  N   UNL     1      45.364   5.409   9.610  0.00  0.00    +0.000 NA
ATOM      9  C   UNL     1      44.998   4.917  10.805  0.00  0.00    +0.000 A 
ENDROOT
BRANCH   6  10
ATOM     10  C   UNL     1      46.152   2.124   7.952  0.00  0.00    +0.000 C 
ATOM     11  O   UNL     1      46.764   2.515   6.961  0.00  0.00    +0.000 OA
BRANCH  10  12
ATOM     12  O   UNL     1      46.029   0.840   8.347  0.00  0.00    +0.000 OA
ATOM     13  H   UNL     1      45.597   0.237   7.706  0.00  0.00    +0.000 HD
ENDBRANCH  10  12
ENDBRANCH   6  10
BRANCH   1  14
ATOM     14  C   UNL     1      45.324   6.982  12.229  0.00  0.00    +0.000 C 
BRANCH  14  17
ATOM     15  C   UNL     1      48.520   7.008  14.348  0.00  0.00    +0.000 A 
ATOM     16  C   UNL     1      47.165   7.012  14.019  0.00  0.00    +0.000 A 
ATOM     17  C   UNL     1      46.776   7.084  12.665  0.00  0.00    +0.000 A 
ATOM     18  C   UNL     1      47.767   7.095  11.689  0.00  0.00    +0.000 A 
ATOM     19  C   UNL     1      49.083   7.043  12.091  0.00  0.00    +0.000 A 
ATOM     20  N   UNL     1      49.472   6.969  13.381  0.00  0.00    +0.000 NA
BRANCH  15  22
ATOM     21  C   UNL     1      50.589   6.862  15.790  0.00  0.00    +0.000 C 
ATOM     22  C   UNL     1      49.046   6.879  15.794  0.00  0.00    +0.000 C 
ATOM     23  C   UNL     1      48.544   5.620  16.523  0.00  0.00    +0.000 C 
ATOM     24  C   UNL     1      48.585   8.099  16.629  0.00  0.00    +0.000 C 
ENDBRANCH  15  22
ENDBRANCH  14  17
ENDBRANCH   1  14
TORSDOF 5
ENDMDL
MODEL 4
REMARK VINA RESULT:    -6.174      4.372      6.623
REMARK INTER + INTRA:          -8.405
REMARK INTER:                  -7.728
REMARK INTRA:                  -0.676
REMARK UNBOUND:                -0.606
REMARK  Name = 
REMARK  8 active torsions:
REMARK  status: ('A' for Active; 'I' for Inactive)
REMARK    1  A    between atoms: C_1  and  C_2
REMARK    2  A    between atoms: C_2  and  C_3
REMARK    3  A    between atoms: C_2  and  C_4
REMARK    4  A    between atoms: C_2  and  C_5
REMARK    5  A    between atoms: C_7  and  C_8
REMARK    6  A    between atoms: C_8  and  N_9
REMARK    7  A    between atoms: C_14  and  C_15
REMARK    8  A    between atoms: C_15  and  O_17
REMARK                            x       y       z     vdW  Elec       q    Type
REMARK                         _______ _______ _______ _____ _____    ______ ____
ROOT
ATOM      1  N   UNL     1      48.050   7.624  13.615  0.00  0.00    +0.000 N 
ATOM      2  C   UNL     1      47.419   8.850  13.553  0.00  0.00    +0.000 A 
ATOM      3  C   UNL     1      46.438   8.680  12.602  0.00  0.00    +0.000 A 
ATOM      4  C   UNL     1      45.989   7.367  12.808  0.00  0.00    +0.000 A 
ATOM      5  C   UNL     1      44.795   6.671  12.636  0.00  0.00    +0.000 A 
ATOM      6  C   UNL     1      44.833   5.300  12.956  0.00  0.00    +0.000 A 
ATOM      7  C   UNL     1      46.054   4.694  13.236  0.00  0.00    +0.000 A 
ATOM      8  N   UNL     1      47.230   5.342  13.413  0.00  0.00    +0.000 NA
ATOM      9  C   UNL     1      47.117   6.672  13.264  0.00  0.00    +0.000 A 
ENDROOT
BRANCH   6  10
ATOM     10  C   UNL     1      43.580   4.500  13.052  0.00  0.00    +0.000 C 
ATOM     11  O   UNL     1      43.574   3.278  12.918  0.00  0.00    +0.000 OA
BRANCH  10  12
ATOM     12  O   UNL     1      42.528   5.256  13.426  0.00  0.00    +0.000 OA
ATOM     13  H   UNL     1      42.109   5.785  12.715  0.00  0.00    +0.000 HD
ENDBRANCH  10  12
ENDBRANCH   6  10
BRANCH   1  14
ATOM     14  C   UNL     1      49.274   7.406  14.363  0.00  0.00    +0.000 C 
BRANCH  14  17
ATOM     15  C   UNL     1      48.770   5.422  17.605  0.00  0.00    +0.000 A 
ATOM     16  C   UNL     1      48.896   5.700  16.245  0.00  0.00    +0.000 A 
ATOM     17  C   UNL     1      49.024   7.038  15.816  0.00  0.00    +0.000 A 
ATOM     18  C   UNL     1      49.075   8.042  16.777  0.00  0.00    +0.000 A 
ATOM     19  C   UNL     1      48.989   7.684  18.104  0.00  0.00    +0.000 A 
ATOM     20  N   UNL     1      48.871   6.409  18.532  0.00  0.00    +0.000 NA
BRANCH  15  22
ATOM     21  C   UNL     1      47.393   3.305  17.667  0.00  0.00    +0.000 C 
ATOM     22  C   UNL     1      48.677   3.991  18.178  0.00  0.00    +0.000 C 
ATOM     23  C   UNL     1      48.681   3.941  19.717  0.00  0.00    +0.000 C 
ATOM     24  C   UNL     1      49.888   3.155  17.696  0.00  0.00    +0.000 C 
ENDBRANCH  15  22
ENDBRANCH  14  17
ENDBRANCH   1  14
TORSDOF 5
ENDMDL
MODEL 5
REMARK VINA RESULT:    -6.168      4.392      6.216
REMARK INTER + INTRA:          -8.396
REMARK INTER:                  -7.902
REMARK INTRA:                  -0.494
REMARK UNBOUND:                -0.606
REMARK  Name = 
REMARK  8 active torsions:
REMARK  status: ('A' for Active; 'I' for Inactive)
REMARK    1  A    between atoms: C_1  and  C_2
REMARK    2  A    between atoms: C_2  and  C_3
REMARK    3  A    between atoms: C_2  and  C_4
REMARK    4  A    between atoms: C_2  and  C_5
REMARK    5  A    between atoms: C_7  and  C_8
REMARK    6  A    between atoms: C_8  and  N_9
REMARK    7  A    between atoms: C_14  and  C_15
REMARK    8  A    between atoms: C_15  and  O_17
REMARK                            x       y       z     vdW  Elec       q    Type
REMARK                         _______ _______ _______ _____ _____    ______ ____
ROOT
ATOM      1  N   UNL     1      47.217   4.695  14.730  0.00  0.00    +0.000 N 
ATOM      2  C   UNL     1      47.599   6.020  14.687  0.00  0.00    +0.000 A 
ATOM      3  C   UNL     1      47.785   6.277  13.348  0.00  0.00    +0.000 A 
ATOM      4  C   UNL     1      46.774   5.538  12.716  0.00  0.00    +0.000 A 
ATOM      5  C   UNL     1      46.024   5.649  11.548  0.00  0.00    +0.000 A 
ATOM      6  C   UNL     1      45.115   4.603  11.301  0.00  0.00    +0.000 A 
ATOM      7  C   UNL     1      45.143   3.465  12.103  0.00  0.00    +0.000 A 
ATOM      8  N   UNL     1      45.858   3.328  13.245  0.00  0.00    +0.000 NA
ATOM      9  C   UNL     1      46.587   4.418  13.536  0.00  0.00    +0.000 A 
ENDROOT
BRANCH   6  10
ATOM     10  C   UNL     1      44.087   4.716  10.230  0.00  0.00    +0.000 C 
ATOM     11  O   UNL     1      44.111   4.009   9.225  0.00  0.00    +0.000 OA
BRANCH  10  12
ATOM     12  O   UNL     1      43.098   5.568  10.569  0.00  0.00    +0.000 OA
ATOM     13  H   UNL     1      42.722   6.098   9.834  0.00  0.00    +0.000 HD
ENDBRANCH  10  12
ENDBRANCH   6  10
BRANCH   1  14
ATOM     14  C   UNL     1      47.094   3.950  15.970  0.00  0.00    +0.000 C 
BRANCH  14  17
ATOM     15  C   UNL     1      48.568   5.724  19.033  0.00  0.00    +0.000 A 
ATOM     16  C   UNL     1      47.681   5.398  18.007  0.00  0.00    +0.000 A 
ATOM     17  C   UNL     1      48.050   4.432  17.048  0.00  0.00    +0.000 A 
ATOM     18  C   UNL     1      49.276   3.790  17.188  0.00  0.00    +0.000 A 
ATOM     19  C   UNL     1      50.078   4.134  18.254  0.00  0.00    +0.000 A 
ATOM     20  N   UNL     1      49.738   5.052  19.183  0.00  0.00    +0.000 NA
BRANCH  15  22
ATOM     21  C   UNL     1      47.599   7.997  19.558  0.00  0.00    +0.000 C 
ATOM     22  C   UNL     1      48.238   6.727  20.159  0.00  0.00    +0.000 C 
ATOM     23  C   UNL     1      49.464   7.143  20.994  0.00  0.00    +0.000 C 
ATOM     24  C   UNL     1      47.218   6.097  21.139  0.00  0.00    +0.000 C 
ENDBRANCH  15  22
ENDBRANCH  14  17
ENDBRANCH   1  14
TORSDOF 5
ENDMDL
MODEL 6
REMARK VINA RESULT:    -5.748      2.916      4.635
REMARK INTER + INTRA:          -7.867
REMARK INTER:                  -7.384
REMARK INTRA:                  -0.483
REMARK UNBOUND:                -0.606
REMARK  Name = 
REMARK  8 active torsions:
REMARK  status: ('A' for Active; 'I' for Inactive)
REMARK    1  A    between atoms: C_1  and  C_2
REMARK    2  A    between atoms: C_2  and  C_3
REMARK    3  A    between atoms: C_2  and  C_4
REMARK    4  A    between atoms: C_2  and  C_5
REMARK    5  A    between atoms: C_7  and  C_8
REMARK    6  A    between atoms: C_8  and  N_9
REMARK    7  A    between atoms: C_14  and  C_15
REMARK    8  A    between atoms: C_15  and  O_17
REMARK                            x       y       z     vdW  Elec       q    Type
REMARK                         _______ _______ _______ _____ _____    ______ ____
ROOT
ATOM      1  N   UNL     1      46.826   6.816  12.803  0.00  0.00    +0.000 N 
ATOM      2  C   UNL     1      47.722   6.031  13.499  0.00  0.00    +0.000 A 
ATOM      3  C   UNL     1      46.952   5.016  14.021  0.00  0.00    +0.000 A 
ATOM      4  C   UNL     1      46.009   4.753  13.016  0.00  0.00    +0.000 A 
ATOM      5  C   UNL     1      45.282   3.649  12.581  0.00  0.00    +0.000 A 
ATOM      6  C   UNL     1      44.392   3.883  11.515  0.00  0.00    +0.000 A 
ATOM      7  C   UNL     1      44.154   5.187  11.093  0.00  0.00    +0.000 A 
ATOM      8  N   UNL     1      44.845   6.281  11.494  0.00  0.00    +0.000 NA
ATOM      9  C   UNL     1      45.802   5.989  12.391  0.00  0.00    +0.000 A 
ENDROOT
BRANCH   6  10
ATOM     10  C   UNL     1      43.742   2.752  10.796  0.00  0.00    +0.000 C 
ATOM     11  O   UNL     1      44.026   2.466   9.635  0.00  0.00    +0.000 OA
BRANCH  10  12
ATOM     12  O   UNL     1      42.936   2.037  11.608  0.00  0.00    +0.000 OA
ATOM     13  H   UNL     1      43.380   1.357  12.157  0.00  0.00    +0.000 HD
ENDBRANCH  10  12
ENDBRANCH   6  10
BRANCH   1  14
ATOM     14  C   UNL     1      47.179   8.107  12.242  0.00  0.00    +0.000 C 
BRANCH  14  17
ATOM     15  C   UNL     1      50.955   8.684  11.912  0.00  0.00    +0.000 A 
ATOM     16  C   UNL     1      49.673   8.204  11.643  0.00  0.00    +0.000 A 
ATOM     17  C   UNL     1      48.617   8.504  12.528  0.00  0.00    +0.000 A 
ATOM     18  C   UNL     1      48.878   9.323  13.621  0.00  0.00    +0.000 A 
ATOM     19  C   UNL     1      50.160   9.796  13.794  0.00  0.00    +0.000 A 
ATOM     20  N   UNL     1      51.181   9.522  12.955  0.00  0.00    +0.000 NA
BRANCH  15  22
ATOM     21  C   UNL     1      51.934   7.190  10.125  0.00  0.00    +0.000 C 
ATOM     22  C   UNL     1      52.164   8.455  10.980  0.00  0.00    +0.000 C 
ATOM     23  C   UNL     1      53.501   8.303  11.729  0.00  0.00    +0.000 C 
ATOM     24  C   UNL     1      52.320   9.659  10.018  0.00  0.00    +0.000 C 
ENDBRANCH  15  22
ENDBRANCH  14  17
ENDBRANCH   1  14
TORSDOF 5
ENDMDL
MODEL 7
REMARK VINA RESULT:    -5.484      5.839      8.050
REMARK INTER + INTRA:          -7.533
REMARK INTER:                  -6.752
REMARK INTRA:                  -0.781
REMARK UNBOUND:                -0.606
REMARK  Name = 
REMARK  8 active torsions:
REMARK  status: ('A' for Active; 'I' for Inactive)
REMARK    1  A    between atoms: C_1  and  C_2
REMARK    2  A    between atoms: C_2  and  C_3
REMARK    3  A    between atoms: C_2  and  C_4
REMARK    4  A    between atoms: C_2  and  C_5
REMARK    5  A    between atoms: C_7  and  C_8
REMARK    6  A    between atoms: C_8  and  N_9
REMARK    7  A    between atoms: C_14  and  C_15
REMARK    8  A    between atoms: C_15  and  O_17
REMARK                            x       y       z     vdW  Elec       q    Type
REMARK                         _______ _______ _______ _____ _____    ______ ____
ROOT
ATOM      1  N   UNL     1      48.532   5.046  17.452  0.00  0.00    +0.000 N 
ATOM      2  C   UNL     1      47.406   4.259  17.580  0.00  0.00    +0.000 A 
ATOM      3  C   UNL     1      47.698   3.125  16.856  0.00  0.00    +0.000 A 
ATOM      4  C   UNL     1      49.063   2.911  17.096  0.00  0.00    +0.000 A 
ATOM      5  C   UNL     1      49.916   1.812  17.154  0.00  0.00    +0.000 A 
ATOM      6  C   UNL     1      51.272   2.101  17.398  0.00  0.00    +0.000 A 
ATOM      7  C   UNL     1      51.706   3.423  17.382  0.00  0.00    +0.000 A 
ATOM      8  N   UNL     1      50.903   4.512  17.331  0.00  0.00    +0.000 NA
ATOM      9  C   UNL     1      49.600   4.193  17.267  0.00  0.00    +0.000 A 
ENDROOT
BRANCH   6  10
ATOM     10  C   UNL     1      52.240   1.018  17.726  0.00  0.00    +0.000 C 
ATOM     11  O   UNL     1      53.447   1.139  17.529  0.00  0.00    +0.000 OA
BRANCH  10  12
ATOM     12  O   UNL     1      51.647  -0.011  18.365  0.00  0.00    +0.000 OA
ATOM     13  H   UNL     1      51.642  -0.865  17.884  0.00  0.00    +0.000 HD
ENDBRANCH  10  12
ENDBRANCH   6  10
BRANCH   1  14
ATOM     14  C   UNL     1      48.588   6.422  17.909  0.00  0.00    +0.000 C 
BRANCH  14  17
ATOM     15  C   UNL     1      48.604   8.008  14.418  0.00  0.00    +0.000 A 
ATOM     16  C   UNL     1      48.603   7.034  15.415  0.00  0.00    +0.000 A 
ATOM     17  C   UNL     1      48.693   7.421  16.769  0.00  0.00    +0.000 A 
ATOM     18  C   UNL     1      48.723   8.778  17.071  0.00  0.00    +0.000 A 
ATOM     19  C   UNL     1      48.673   9.682  16.033  0.00  0.00    +0.000 A 
ATOM     20  N   UNL     1      48.584   9.329  14.733  0.00  0.00    +0.000 NA
BRANCH  15  22
ATOM     21  C   UNL     1      47.841   6.287  12.733  0.00  0.00    +0.000 C 
ATOM     22  C   UNL     1      48.458   7.690  12.914  0.00  0.00    +0.000 C 
ATOM     23  C   UNL     1      49.789   7.744  12.141  0.00  0.00    +0.000 C 
ATOM     24  C   UNL     1      47.508   8.718  12.252  0.00  0.00    +0.000 C 
ENDBRANCH  15  22
ENDBRANCH  14  17
ENDBRANCH   1  14
TORSDOF 5
ENDMDL
