MODEL 1
REMARK VINA RESULT:    -8.243      0.000      0.000
REMARK INTER + INTRA:         -11.356
REMARK INTER:                 -10.653
REMARK INTRA:                  -0.704
REMARK UNBOUND:                -0.704
REMARK  Name = 
REMARK  6 active torsions:
REMARK  status: ('A' for Active; 'I' for Inactive)
REMARK    1  A    between atoms: C_1  and  C_2
REMARK    2  A    between atoms: C_6  and  C_7
REMARK    3  A    between atoms: C_7  and  C_8
REMARK    4  A    between atoms: C_11  and  C_12
REMARK    5  A    between atoms: C_12  and  N_13
REMARK    6  A    between atoms: C_14  and  C_16
REMARK                            x       y       z     vdW  Elec       q    Type
REMARK                         _______ _______ _______ _____ _____    ______ ____
ROOT
ATOM      1  C   UNL     1      46.701   7.584  13.224  0.00  0.00    +0.000 C 
ENDROOT
BRANCH   1   5
ATOM      2  C   UNL     1      44.866   4.487  10.929  0.00  0.00    +0.000 A 
ATOM      3  C   UNL     1      44.616   5.821  10.604  0.00  0.00    +0.000 A 
ATOM      4  C   UNL     1      45.219   6.839  11.334  0.00  0.00    +0.000 A 
ATOM      5  C   UNL     1      46.017   6.502  12.423  0.00  0.00    +0.000 A 
ATOM      6  N   UNL     1      46.234   5.213  12.793  0.00  0.00    +0.000 NA
ATOM      7  C   UNL     1      45.667   4.242  12.038  0.00  0.00    +0.000 A 
BRANCH   2   8
ATOM      8  C   UNL     1      44.357   3.370  10.056  0.00  0.00    +0.000 C 
BRANCH   8  14
ATOM      9  C   UNL     1      46.762  -0.148   7.694  0.00  0.00    +0.000 C 
ATOM     10  C   UNL     1      46.394   1.304   7.763  0.00  0.00    +0.000 A 
ATOM     11  C   UNL     1      46.858   2.197   6.806  0.00  0.00    +0.000 A 
ATOM     12  C   UNL     1      46.533   3.540   6.938  0.00  0.00    +0.000 A 
ATOM     13  C   UNL     1      45.746   3.950   8.011  0.00  0.00    +0.000 A 
ATOM     14  C   UNL     1      45.288   2.995   8.920  0.00  0.00    +0.000 A 
ATOM     15  N   UNL     1      45.611   1.682   8.804  0.00  0.00    +0.000 NA
ENDBRANCH   8  14
ENDBRANCH   2   8
ENDBRANCH   1   5
BRANCH   1  16
ATOM     16  N   UNL     1      47.277   7.086  14.453  0.00  0.00    +0.000 N 
ATOM     17  C   UNL     1      48.582   6.685  14.549  0.00  0.00    +0.000 C 
ATOM     18  O   UNL     1      49.348   6.712  13.588  0.00  0.00    +0.000 OA
ATOM     19  H   UNL     1      46.612   6.793  15.163  0.00  0.00    +0.000 HD
BRANCH  17  20
ATOM     20  C   UNL     1      49.047   6.282  15.884  0.00  0.00    +0.000 A 
ATOM     21  C   UNL     1      50.048   7.007  16.516  0.00  0.00    +0.000 A 
ATOM     22  S   UNL     1      50.462   6.401  18.057  0.00  0.00    +0.000 S 
ATOM     23  C   UNL     1      49.339   5.132  17.919  0.00  0.00    +0.000 A 
ATOM     24  N   UNL     1      49.204   4.204  18.903  0.00  0.00    +0.000 NA
ATOM     25  C   UNL     1      48.328   3.282  18.655  0.00  0.00    +0.000 A 
ATOM     26  N   UNL     1      47.564   3.219  17.520  0.00  0.00    +0.000 N 
ATOM     27  C   UNL     1      47.629   4.165  16.525  0.00  0.00    +0.000 A 
ATOM     28  O   UNL     1      46.866   4.135  15.567  0.00  0.00    +0.000 OA
ATOM     29  C   UNL     1      48.628   5.194  16.731  0.00  0.00    +0.000 A 
ATOM     30  H   UNL     1      46.876   2.490  17.403  0.00  0.00    +0.000 HD
ENDBRANCH  17  20
ENDBRANCH   1  16
TORSDOF 5
ENDMDL
MODEL 2
REMARK VINA RESULT:    -8.164      2.275      4.021
REMARK INTER + INTRA:         -11.253
REMARK INTER:                 -10.157
REMARK INTRA:                  -1.096
REMARK UNBOUND:                -0.704
REMARK  Name = 
REMARK  6 active torsions:
REMARK  status: ('A' for Active; 'I' for Inactive)
REMARK    1  A    between atoms: C_1  and  C_2
REMARK    2  A    between atoms: C_6  and  C_7
REMARK    3  A    between atoms: C_7  and  C_8
REMARK    4  A    between atoms: C_11  and  C_12
REMARK    5  A    between atoms: C_12  and  N_13
REMARK    6  A    between atoms: C_14  and  C_16
REMARK                            x       y       z     vdW  Elec       q    Type
REMARK                         _______ _______ _______ _____ _____    ______ ____
ROOT
ATOM      1  C   UNL     1      47.034   4.971  14.701  0.00  0.00    +0.000 C 
ENDROOT
BRANCH   1   5
ATOM      2  C   UNL     1      44.885   3.871  11.180  0.00  0.00    +0.000 A 
ATOM      3  C   UNL     1      45.122   5.221  11.444  0.00  0.00    +0.000 A 
ATOM      4  C   UNL     1      45.834   5.592  12.581  0.00  0.00    +0.000 A 
ATOM      5  C   UNL     1      46.243   4.603  13.469  0.00  0.00    +0.000 A 
ATOM      6  N   UNL     1      45.978   3.286  13.262  0.00  0.00    +0.000 NA
ATOM      7  C   UNL     1      45.320   2.952  12.127  0.00  0.00    +0.000 A 
BRANCH   2   8
ATOM      8  C   UNL     1      44.261   3.437   9.880  0.00  0.00    +0.000 C 
BRANCH   8  14
ATOM      9  C   UNL     1      46.791  -0.082   7.654  0.00  0.00    +0.000 C 
ATOM     10  C   UNL     1      46.429   1.372   7.710  0.00  0.00    +0.000 A 
ATOM     11  C   UNL     1      46.962   2.269   6.793  0.00  0.00    +0.000 A 
ATOM     12  C   UNL     1      46.639   3.614   6.913  0.00  0.00    +0.000 A 
ATOM     13  C   UNL     1      45.786   4.021   7.935  0.00  0.00    +0.000 A 
ATOM     14  C   UNL     1      45.262   3.064   8.804  0.00  0.00    +0.000 A 
ATOM     15  N   UNL     1      45.582   1.749   8.699  0.00  0.00    +0.000 NA
ENDBRANCH   8  14
ENDBRANCH   2   8
ENDBRANCH   1   5
BRANCH   1  16
ATOM     16  N   UNL     1      47.537   6.326  14.654  0.00  0.00    +0.000 N 
ATOM     17  C   UNL     1      48.722   6.695  15.232  0.00  0.00    +0.000 C 
ATOM     18  O   UNL     1      49.432   5.895  15.839  0.00  0.00    +0.000 OA
ATOM     19  H   UNL     1      46.855   7.040  14.415  0.00  0.00    +0.000 HD
BRANCH  17  20
ATOM     20  C   UNL     1      49.144   8.088  15.028  0.00  0.00    +0.000 A 
ATOM     21  C   UNL     1      49.436   8.889  16.123  0.00  0.00    +0.000 A 
ATOM     22  S   UNL     1      49.909  10.475  15.702  0.00  0.00    +0.000 S 
ATOM     23  C   UNL     1      49.710  10.153  14.045  0.00  0.00    +0.000 A 
ATOM     24  N   UNL     1      49.924  11.118  13.112  0.00  0.00    +0.000 NA
ATOM     25  C   UNL     1      49.713  10.740  11.891  0.00  0.00    +0.000 A 
ATOM     26  N   UNL     1      49.325   9.479  11.522  0.00  0.00    +0.000 N 
ATOM     27  C   UNL     1      49.149   8.459  12.427  0.00  0.00    +0.000 A 
ATOM     28  O   UNL     1      48.897   7.318  12.059  0.00  0.00    +0.000 OA
ATOM     29  C   UNL     1      49.328   8.841  13.813  0.00  0.00    +0.000 A 
ATOM     30  H   UNL     1      49.208   9.241  10.548  0.00  0.00    +0.000 HD
ENDBRANCH  17  20
ENDBRANCH   1  16
TORSDOF 5
ENDMDL
MODEL 3
REMARK VINA RESULT:    -7.561      2.535      3.765
REMARK INTER + INTRA:         -10.475
REMARK INTER:                  -9.891
REMARK INTRA:                  -0.584
REMARK UNBOUND:                -0.704
REMARK  Name = 
REMARK  6 active torsions:
REMARK  status: ('A' for Active; 'I' for Inactive)
REMARK    1  A    between atoms: C_1  and  C_2
REMARK    2  A    between atoms: C_6  and  C_7
REMARK    3  A    between atoms: C_7  and  C_8
REMARK    4  A    between atoms: C_11  and  C_12
REMARK    5  A    between atoms: C_12  and  N_13
REMARK    6  A    between atoms: C_14  and  C_16
REMARK                            x       y       z     vdW  Elec       q    Type
REMARK                         _______ _______ _______ _____ _____    ______ ____
ROOT
ATOM      1  C   UNL     1      47.466   4.252  15.644  0.00  0.00    +0.000 C 
ENDROOT
BRANCH   1   5
ATOM      2  C   UNL     1      45.650   5.397  11.954  0.00  0.00    +0.000 A 
ATOM      3  C   UNL     1      46.840   6.009  12.351  0.00  0.00    +0.000 A 
ATOM      4  C   UNL     1      47.449   5.635  13.544  0.00  0.00    +0.000 A 
ATOM      5  C   UNL     1      46.820   4.693  14.352  0.00  0.00    +0.000 A 
ATOM      6  N   UNL     1      45.635   4.121  14.014  0.00  0.00    +0.000 NA
ATOM      7  C   UNL     1      45.086   4.476  12.828  0.00  0.00    +0.000 A 
BRANCH   2   8
ATOM      8  C   UNL     1      45.058   5.668  10.595  0.00  0.00    +0.000 C 
BRANCH   8  14
ATOM      9  C   UNL     1      46.819   3.730   6.486  0.00  0.00    +0.000 C 
ATOM     10  C   UNL     1      45.982   3.539   7.716  0.00  0.00    +0.000 A 
ATOM     11  C   UNL     1      45.343   2.329   7.956  0.00  0.00    +0.000 A 
ATOM     12  C   UNL     1      44.538   2.215   9.081  0.00  0.00    +0.000 A 
ATOM     13  C   UNL     1      44.404   3.304   9.938  0.00  0.00    +0.000 A 
ATOM     14  C   UNL     1      45.097   4.481   9.653  0.00  0.00    +0.000 A 
ATOM     15  N   UNL     1      45.877   4.604   8.549  0.00  0.00    +0.000 NA
ENDBRANCH   8  14
ENDBRANCH   2   8
ENDBRANCH   1   5
BRANCH   1  16
ATOM     16  N   UNL     1      47.486   5.298  16.642  0.00  0.00    +0.000 N 
ATOM     17  C   UNL     1      48.648   5.847  17.113  0.00  0.00    +0.000 C 
ATOM     18  O   UNL     1      49.754   5.475  16.724  0.00  0.00    +0.000 OA
ATOM     19  H   UNL     1      46.627   5.417  17.171  0.00  0.00    +0.000 HD
BRANCH  17  20
ATOM     20  C   UNL     1      48.508   6.959  18.064  0.00  0.00    +0.000 A 
ATOM     21  C   UNL     1      48.569   6.715  19.428  0.00  0.00    +0.000 A 
ATOM     22  S   UNL     1      48.388   8.120  20.382  0.00  0.00    +0.000 S 
ATOM     23  C   UNL     1      48.192   9.096  19.004  0.00  0.00    +0.000 A 
ATOM     24  N   UNL     1      47.960  10.431  19.116  0.00  0.00    +0.000 NA
ATOM     25  C   UNL     1      47.809  11.046  17.986  0.00  0.00    +0.000 A 
ATOM     26  N   UNL     1      47.887  10.447  16.757  0.00  0.00    +0.000 N 
ATOM     27  C   UNL     1      48.171   9.112  16.595  0.00  0.00    +0.000 A 
ATOM     28  O   UNL     1      48.330   8.626  15.482  0.00  0.00    +0.000 OA
ATOM     29  C   UNL     1      48.305   8.367  17.831  0.00  0.00    +0.000 A 
ATOM     30  H   UNL     1      47.789  10.992  15.913  0.00  0.00    +0.000 HD
ENDBRANCH  17  20
ENDBRANCH   1  16
TORSDOF 5
ENDMDL
MODEL 4
REMARK VINA RESULT:    -7.443      2.385      3.368
REMARK INTER + INTRA:         -10.323
REMARK INTER:                  -9.626
REMARK INTRA:                  -0.697
REMARK UNBOUND:                -0.704
REMARK  Name = 
REMARK  6 active torsions:
REMARK  status: ('A' for Active; 'I' for Inactive)
REMARK    1  A    between atoms: C_1  and  C_2
REMARK    2  A    between atoms: C_6  and  C_7
REMARK    3  A    between atoms: C_7  and  C_8
REMARK    4  A    between atoms: C_11  and  C_12
REMARK    5  A    between atoms: C_12  and  N_13
REMARK    6  A    between atoms: C_14  and  C_16
REMARK                            x       y       z     vdW  Elec       q    Type
REMARK                         _______ _______ _______ _____ _____    ______ ____
ROOT
ATOM      1  C   UNL     1      47.069   4.686  14.899  0.00  0.00    +0.000 C 
ENDROOT
BRANCH   1   5
ATOM      2  C   UNL     1      44.969   4.037  11.240  0.00  0.00    +0.000 A 
ATOM      3  C   UNL     1      45.292   5.340  11.623  0.00  0.00    +0.000 A 
ATOM      4  C   UNL     1      45.988   5.563  12.805  0.00  0.00    +0.000 A 
ATOM      5  C   UNL     1      46.296   4.477  13.619  0.00  0.00    +0.000 A 
ATOM      6  N   UNL     1      45.947   3.205  13.295  0.00  0.00    +0.000 NA
ATOM      7  C   UNL     1      45.305   3.014  12.117  0.00  0.00    +0.000 A 
BRANCH   2   8
ATOM      8  C   UNL     1      44.360   3.757   9.890  0.00  0.00    +0.000 C 
BRANCH   8  14
ATOM      9  C   UNL     1      46.684   0.057   7.733  0.00  0.00    +0.000 C 
ATOM     10  C   UNL     1      46.426   1.534   7.777  0.00  0.00    +0.000 A 
ATOM     11  C   UNL     1      47.043   2.387   6.871  0.00  0.00    +0.000 A 
ATOM     12  C   UNL     1      46.814   3.751   6.981  0.00  0.00    +0.000 A 
ATOM     13  C   UNL     1      45.968   4.223   7.981  0.00  0.00    +0.000 A 
ATOM     14  C   UNL     1      45.357   3.309   8.840  0.00  0.00    +0.000 A 
ATOM     15  N   UNL     1      45.585   1.974   8.746  0.00  0.00    +0.000 NA
ENDBRANCH   8  14
ENDBRANCH   2   8
ENDBRANCH   1   5
BRANCH   1  16
ATOM     16  N   UNL     1      47.908   5.862  14.857  0.00  0.00    +0.000 N 
ATOM     17  C   UNL     1      48.503   6.386  15.973  0.00  0.00    +0.000 C 
ATOM     18  O   UNL     1      48.352   5.893  17.089  0.00  0.00    +0.000 OA
ATOM     19  H   UNL     1      47.820   6.436  14.024  0.00  0.00    +0.000 HD
BRANCH  17  20
ATOM     20  C   UNL     1      49.396   7.534  15.761  0.00  0.00    +0.000 A 
ATOM     21  C   UNL     1      48.868   8.760  15.380  0.00  0.00    +0.000 A 
ATOM     22  S   UNL     1      50.047   9.979  15.180  0.00  0.00    +0.000 S 
ATOM     23  C   UNL     1      51.305   8.902  15.568  0.00  0.00    +0.000 A 
ATOM     24  N   UNL     1      52.603   9.304  15.552  0.00  0.00    +0.000 NA
ATOM     25  C   UNL     1      53.456   8.375  15.846  0.00  0.00    +0.000 A 
ATOM     26  N   UNL     1      53.123   7.087  16.171  0.00  0.00    +0.000 N 
ATOM     27  C   UNL     1      51.822   6.651  16.250  0.00  0.00    +0.000 A 
ATOM     28  O   UNL     1      51.552   5.520  16.637  0.00  0.00    +0.000 OA
ATOM     29  C   UNL     1      50.828   7.640  15.886  0.00  0.00    +0.000 A 
ATOM     30  H   UNL     1      53.837   6.418  16.420  0.00  0.00    +0.000 HD
ENDBRANCH  17  20
ENDBRANCH   1  16
TORSDOF 5
ENDMDL
MODEL 5
REMARK VINA RESULT:    -7.300      3.966      9.138
REMARK INTER + INTRA:         -10.137
REMARK INTER:                  -9.433
REMARK INTRA:                  -0.704
REMARK UNBOUND:                -0.704
REMARK  Name = 
REMARK  6 active torsions:
REMARK  status: ('A' for Active; 'I' for Inactive)
REMARK    1  A    between atoms: C_1  and  C_2
REMARK    2  A    between atoms: C_6  and  C_7
REMARK    3  A    between atoms: C_7  and  C_8
REMARK    4  A    between atoms: C_11  and  C_12
REMARK    5  A    between atoms: C_12  and  N_13
REMARK    6  A    between atoms: C_14  and  C_16
REMARK                            x       y       z     vdW  Elec       q    Type
REMARK                         _______ _______ _______ _____ _____    ______ ____
ROOT
ATOM      1  C   UNL     1      47.315   3.573  16.580  0.00  0.00    +0.000 C 
ENDROOT
BRANCH   1   5
ATOM      2  C   UNL     1      51.405   4.342  17.531  0.00  0.00    +0.000 A 
ATOM      3  C   UNL     1      50.914   3.039  17.623  0.00  0.00    +0.000 A 
ATOM      4  C   UNL     1      49.587   2.773  17.302  0.00  0.00    +0.000 A 
ATOM      5  C   UNL     1      48.755   3.832  16.953  0.00  0.00    +0.000 A 
ATOM      6  N   UNL     1      49.196   5.116  16.907  0.00  0.00    +0.000 NA
ATOM      7  C   UNL     1      50.502   5.340  17.185  0.00  0.00    +0.000 A 
BRANCH   2   8
ATOM      8  C   UNL     1      52.873   4.629  17.716  0.00  0.00    +0.000 C 
BRANCH   8  14
ATOM      9  C   UNL     1      55.594   0.698  16.773  0.00  0.00    +0.000 C 
ATOM     10  C   UNL     1      55.013   1.614  17.808  0.00  0.00    +0.000 A 
ATOM     11  C   UNL     1      55.251   1.396  19.159  0.00  0.00    +0.000 A 
ATOM     12  C   UNL     1      54.652   2.239  20.085  0.00  0.00    +0.000 A 
ATOM     13  C   UNL     1      53.844   3.280  19.636  0.00  0.00    +0.000 A 
ATOM     14  C   UNL     1      53.670   3.461  18.264  0.00  0.00    +0.000 A 
ATOM     15  N   UNL     1      54.244   2.634  17.353  0.00  0.00    +0.000 NA
ENDBRANCH   8  14
ENDBRANCH   2   8
ENDBRANCH   1   5
BRANCH   1  16
ATOM     16  N   UNL     1      46.815   4.517  15.605  0.00  0.00    +0.000 N 
ATOM     17  C   UNL     1      46.797   4.252  14.262  0.00  0.00    +0.000 C 
ATOM     18  O   UNL     1      47.217   3.195  13.797  0.00  0.00    +0.000 OA
ATOM     19  H   UNL     1      46.731   5.477  15.926  0.00  0.00    +0.000 HD
BRANCH  17  20
ATOM     20  C   UNL     1      46.180   5.273  13.402  0.00  0.00    +0.000 A 
ATOM     21  C   UNL     1      46.870   6.441  13.112  0.00  0.00    +0.000 A 
ATOM     22  S   UNL     1      46.006   7.512  12.100  0.00  0.00    +0.000 S 
ATOM     23  C   UNL     1      44.669   6.463  12.042  0.00  0.00    +0.000 A 
ATOM     24  N   UNL     1      43.545   6.797  11.356  0.00  0.00    +0.000 NA
ATOM     25  C   UNL     1      42.597   5.915  11.415  0.00  0.00    +0.000 A 
ATOM     26  N   UNL     1      42.684   4.724  12.085  0.00  0.00    +0.000 N 
ATOM     27  C   UNL     1      43.820   4.322  12.747  0.00  0.00    +0.000 A 
ATOM     28  O   UNL     1      43.901   3.210  13.255  0.00  0.00    +0.000 OA
ATOM     29  C   UNL     1      44.895   5.294  12.750  0.00  0.00    +0.000 A 
ATOM     30  H   UNL     1      41.919   4.066  12.065  0.00  0.00    +0.000 HD
ENDBRANCH  17  20
ENDBRANCH   1  16
TORSDOF 5
ENDMDL
MODEL 6
REMARK VINA RESULT:    -7.203      3.779      8.794
REMARK INTER + INTRA:         -10.012
REMARK INTER:                  -9.169
REMARK INTRA:                  -0.843
REMARK UNBOUND:                -0.704
REMARK  Name = 
REMARK  6 active torsions:
REMARK  status: ('A' for Active; 'I' for Inactive)
REMARK    1  A    between atoms: C_1  and  C_2
REMARK    2  A    between atoms: C_6  and  C_7
REMARK    3  A    between atoms: C_7  and  C_8
REMARK    4  A    between atoms: C_11  and  C_12
REMARK    5  A    between atoms: C_12  and  N_13
REMARK    6  A    between atoms: C_14  and  C_16
REMARK                            x       y       z     vdW  Elec       q    Type
REMARK                         _______ _______ _______ _____ _____    ______ ____
ROOT
ATOM      1  C   UNL     1      47.173   3.449  16.730  0.00  0.00    +0.000 C 
ENDROOT
BRANCH   1   5
ATOM      2  C   UNL     1      51.159   4.118  18.105  0.00  0.00    +0.000 A 
ATOM      3  C   UNL     1      50.179   5.082  18.347  0.00  0.00    +0.000 A 
ATOM      4  C   UNL     1      48.874   4.870  17.918  0.00  0.00    +0.000 A 
ATOM      5  C   UNL     1      48.585   3.718  17.193  0.00  0.00    +0.000 A 
ATOM      6  N   UNL     1      49.531   2.789  16.898  0.00  0.00    +0.000 NA
ATOM      7  C   UNL     1      50.784   3.003  17.365  0.00  0.00    +0.000 A 
BRANCH   2   8
ATOM      8  C   UNL     1      52.537   4.250  18.699  0.00  0.00    +0.000 C 
BRANCH   8  14
ATOM      9  C   UNL     1      54.208   7.131  15.142  0.00  0.00    +0.000 C 
ATOM     10  C   UNL     1      54.447   5.939  16.020  0.00  0.00    +0.000 A 
ATOM     11  C   UNL     1      55.618   5.201  15.907  0.00  0.00    +0.000 A 
ATOM     12  C   UNL     1      55.774   4.076  16.705  0.00  0.00    +0.000 A 
ATOM     13  C   UNL     1      54.765   3.728  17.599  0.00  0.00    +0.000 A 
ATOM     14  C   UNL     1      53.627   4.530  17.683  0.00  0.00    +0.000 A 
ATOM     15  N   UNL     1      53.462   5.626  16.898  0.00  0.00    +0.000 NA
ENDBRANCH   8  14
ENDBRANCH   2   8
ENDBRANCH   1   5
BRANCH   1  16
ATOM     16  N   UNL     1      46.711   4.419  15.762  0.00  0.00    +0.000 N 
ATOM     17  C   UNL     1      46.798   4.216  14.411  0.00  0.00    +0.000 C 
ATOM     18  O   UNL     1      47.287   3.194  13.933  0.00  0.00    +0.000 OA
ATOM     19  H   UNL     1      46.571   5.361  16.117  0.00  0.00    +0.000 HD
BRANCH  17  20
ATOM     20  C   UNL     1      46.210   5.255  13.554  0.00  0.00    +0.000 A 
ATOM     21  C   UNL     1      46.897   6.439  13.331  0.00  0.00    +0.000 A 
ATOM     22  S   UNL     1      46.068   7.529  12.312  0.00  0.00    +0.000 S 
ATOM     23  C   UNL     1      44.749   6.467  12.159  0.00  0.00    +0.000 A 
ATOM     24  N   UNL     1      43.654   6.809  11.429  0.00  0.00    +0.000 NA
ATOM     25  C   UNL     1      42.717   5.914  11.417  0.00  0.00    +0.000 A 
ATOM     26  N   UNL     1      42.788   4.704  12.054  0.00  0.00    +0.000 N 
ATOM     27  C   UNL     1      43.896   4.296  12.758  0.00  0.00    +0.000 A 
ATOM     28  O   UNL     1      43.968   3.171  13.236  0.00  0.00    +0.000 OA
ATOM     29  C   UNL     1      44.957   5.280  12.842  0.00  0.00    +0.000 A 
ATOM     30  H   UNL     1      42.033   4.038  11.979  0.00  0.00    +0.000 HD
ENDBRANCH  17  20
ENDBRANCH   1  16
TORSDOF 5
ENDMDL
MODEL 7
REMARK VINA RESULT:    -7.157      1.753      2.356
REMARK INTER + INTRA:          -9.952
REMARK INTER:                  -9.079
REMARK INTRA:                  -0.873
REMARK UNBOUND:                -0.704
REMARK  Name = 
REMARK  6 active torsions:
REMARK  status: ('A' for Active; 'I' for Inactive)
REMARK    1  A    between atoms: C_1  and  C_2
REMARK    2  A    between atoms: C_6  and  C_7
REMARK    3  A    between atoms: C_7  and  C_8
REMARK    4  A    between atoms: C_11  and  C_12
REMARK    5  A    between atoms: C_12  and  N_13
REMARK    6  A    between atoms: C_14  and  C_16
REMARK                            x       y       z     vdW  Elec       q    Type
REMARK                         _______ _______ _______ _____ _____    ______ ____
ROOT
ATOM      1  C   UNL     1      48.169   7.537  13.850  0.00  0.00    +0.000 C 
ENDROOT
BRANCH   1   5
ATOM      2  C   UNL     1      44.966   5.843  11.592  0.00  0.00    +0.000 A 
ATOM      3  C   UNL     1      45.058   7.230  11.717  0.00  0.00    +0.000 A 
ATOM      4  C   UNL     1      46.105   7.795  12.437  0.00  0.00    +0.000 A 
ATOM      5  C   UNL     1      47.010   6.954  13.076  0.00  0.00    +0.000 A 
ATOM      6  N   UNL     1      46.912   5.601  13.015  0.00  0.00    +0.000 NA
ATOM      7  C   UNL     1      45.906   5.079  12.272  0.00  0.00    +0.000 A 
BRANCH   2   8
ATOM      8  C   UNL     1      43.938   5.216  10.687  0.00  0.00    +0.000 C 
BRANCH   8  14
ATOM      9  C   UNL     1      46.796   4.067   6.911  0.00  0.00    +0.000 C 
ATOM     10  C   UNL     1      45.897   3.582   8.008  0.00  0.00    +0.000 A 
ATOM     11  C   UNL     1      45.650   2.225   8.172  0.00  0.00    +0.000 A 
ATOM     12  C   UNL     1      44.771   1.825   9.169  0.00  0.00    +0.000 A 
ATOM     13  C   UNL     1      44.174   2.788   9.979  0.00  0.00    +0.000 A 
ATOM     14  C   UNL     1      44.489   4.133   9.780  0.00  0.00    +0.000 A 
ATOM     15  N   UNL     1      45.339   4.532   8.799  0.00  0.00    +0.000 NA
ENDBRANCH   8  14
ENDBRANCH   2   8
ENDBRANCH   1   5
BRANCH   1  16
ATOM     16  N   UNL     1      48.086   7.261  15.267  0.00  0.00    +0.000 N 
ATOM     17  C   UNL     1      48.749   8.006  16.205  0.00  0.00    +0.000 C 
ATOM     18  O   UNL     1      49.468   8.955  15.899  0.00  0.00    +0.000 OA
ATOM     19  H   UNL     1      47.740   6.339  15.516  0.00  0.00    +0.000 HD
BRANCH  17  20
ATOM     20  C   UNL     1      48.501   7.658  17.612  0.00  0.00    +0.000 A 
ATOM     21  C   UNL     1      48.081   8.636  18.502  0.00  0.00    +0.000 A 
ATOM     22  S   UNL     1      47.841   8.056  20.090  0.00  0.00    +0.000 S 
ATOM     23  C   UNL     1      48.319   6.485  19.647  0.00  0.00    +0.000 A 
ATOM     24  N   UNL     1      48.372   5.483  20.563  0.00  0.00    +0.000 NA
ATOM     25  C   UNL     1      48.774   4.346  20.091  0.00  0.00    +0.000 A 
ATOM     26  N   UNL     1      49.108   4.120  18.782  0.00  0.00    +0.000 N 
ATOM     27  C   UNL     1      49.018   5.090  17.813  0.00  0.00    +0.000 A 
ATOM     28  O   UNL     1      49.231   4.833  16.634  0.00  0.00    +0.000 OA
ATOM     29  C   UNL     1      48.618   6.395  18.296  0.00  0.00    +0.000 A 
ATOM     30  H   UNL     1      49.385   3.200  18.473  0.00  0.00    +0.000 HD
ENDBRANCH  17  20
ENDBRANCH   1  16
TORSDOF 5
ENDMDL
MODEL 8
REMARK VINA RESULT:    -7.057      2.549      3.414
REMARK INTER + INTRA:          -9.823
REMARK INTER:                  -9.166
REMARK INTRA:                  -0.657
REMARK UNBOUND:                -0.704
REMARK  Name = 
REMARK  6 active torsions:
REMARK  status: ('A' for Active; 'I' for Inactive)
REMARK    1  A    between atoms: C_1  and  C_2
REMARK    2  A    between atoms: C_6  and  C_7
REMARK    3  A    between atoms: C_7  and  C_8
REMARK    4  A    between atoms: C_11  and  C_12
REMARK    5  A    between atoms: C_12  and  N_13
REMARK    6  A    between atoms: C_14  and  C_16
REMARK                            x       y       z     vdW  Elec       q    Type
REMARK                         _______ _______ _______ _____ _____    ______ ____
ROOT
ATOM      1  C   UNL     1      45.417   6.374  13.340  0.00  0.00    +0.000 C 
ENDROOT
BRANCH   1   5
ATOM      2  C   UNL     1      44.760   4.430   9.597  0.00  0.00    +0.000 A 
ATOM      3  C   UNL     1      44.120   3.949  10.740  0.00  0.00    +0.000 A 
ATOM      4  C   UNL     1      44.314   4.582  11.963  0.00  0.00    +0.000 A 
ATOM      5  C   UNL     1      45.199   5.654  12.031  0.00  0.00    +0.000 A 
ATOM      6  N   UNL     1      45.875   6.107  10.944  0.00  0.00    +0.000 NA
ATOM      7  C   UNL     1      45.635   5.497   9.758  0.00  0.00    +0.000 A 
BRANCH   2   8
ATOM      8  C   UNL     1      44.442   3.864   8.237  0.00  0.00    +0.000 C 
BRANCH   8  14
ATOM      9  C   UNL     1      47.849   2.646   4.974  0.00  0.00    +0.000 C 
ATOM     10  C   UNL     1      47.099   2.271   6.217  0.00  0.00    +0.000 A 
ATOM     11  C   UNL     1      47.359   1.071   6.866  0.00  0.00    +0.000 A 
ATOM     12  C   UNL     1      46.606   0.743   7.984  0.00  0.00    +0.000 A 
ATOM     13  C   UNL     1      45.624   1.625   8.429  0.00  0.00    +0.000 A 
ATOM     14  C   UNL     1      45.434   2.827   7.748  0.00  0.00    +0.000 A 
ATOM     15  N   UNL     1      46.160   3.150   6.647  0.00  0.00    +0.000 NA
ENDBRANCH   8  14
ENDBRANCH   2   8
ENDBRANCH   1   5
BRANCH   1  16
ATOM     16  N   UNL     1      46.716   7.004  13.419  0.00  0.00    +0.000 N 
ATOM     17  C   UNL     1      47.872   6.293  13.598  0.00  0.00    +0.000 C 
ATOM     18  O   UNL     1      47.878   5.069  13.713  0.00  0.00    +0.000 OA
ATOM     19  H   UNL     1      46.710   8.002  13.608  0.00  0.00    +0.000 HD
BRANCH  17  20
ATOM     20  C   UNL     1      49.124   7.064  13.574  0.00  0.00    +0.000 A 
ATOM     21  C   UNL     1      49.608   7.561  12.372  0.00  0.00    +0.000 A 
ATOM     22  S   UNL     1      51.069   8.430  12.531  0.00  0.00    +0.000 S 
ATOM     23  C   UNL     1      51.119   8.145  14.206  0.00  0.00    +0.000 A 
ATOM     24  N   UNL     1      52.152   8.599  14.964  0.00  0.00    +0.000 NA
ATOM     25  C   UNL     1      52.071   8.291  16.220  0.00  0.00    +0.000 A 
ATOM     26  N   UNL     1      51.042   7.586  16.784  0.00  0.00    +0.000 N 
ATOM     27  C   UNL     1      49.953   7.153  16.066  0.00  0.00    +0.000 A 
ATOM     28  O   UNL     1      49.003   6.609  16.615  0.00  0.00    +0.000 OA
ATOM     29  C   UNL     1      50.015   7.432  14.645  0.00  0.00    +0.000 A 
ATOM     30  H   UNL     1      51.026   7.405  17.778  0.00  0.00    +0.000 HD
ENDBRANCH  17  20
ENDBRANCH   1  16
TORSDOF 5
ENDMDL
MODEL 9
REMARK VINA RESULT:    -6.558      4.076      9.453
REMARK INTER + INTRA:          -9.178
REMARK INTER:                  -8.175
REMARK INTRA:                  -1.003
REMARK UNBOUND:                -0.704
REMARK  Name = 
REMARK  6 active torsions:
REMARK  status: ('A' for Active; 'I' for Inactive)
REMARK    1  A    between atoms: C_1  and  C_2
REMARK    2  A    between atoms: C_6  and  C_7
REMARK    3  A    between atoms: C_7  and  C_8
REMARK    4  A    between atoms: C_11  and  C_12
REMARK    5  A    between atoms: C_12  and  N_13
REMARK    6  A    between atoms: C_14  and  C_16
REMARK                            x       y       z     vdW  Elec       q    Type
REMARK                         _______ _______ _______ _____ _____    ______ ____
ROOT
ATOM      1  C   UNL     1      47.577   3.481  17.150  0.00  0.00    +0.000 C 
ENDROOT
BRANCH   1   5
ATOM      2  C   UNL     1      51.807   3.668  17.698  0.00  0.00    +0.000 A 
ATOM      3  C   UNL     1      51.199   2.432  17.471  0.00  0.00    +0.000 A 
ATOM      4  C   UNL     1      49.824   2.360  17.276  0.00  0.00    +0.000 A 
ATOM      5  C   UNL     1      49.070   3.524  17.375  0.00  0.00    +0.000 A 
ATOM      6  N   UNL     1      49.630   4.731  17.648  0.00  0.00    +0.000 NA
ATOM      7  C   UNL     1      50.976   4.778  17.792  0.00  0.00    +0.000 A 
BRANCH   2   8
ATOM      8  C   UNL     1      53.307   3.793  17.751  0.00  0.00    +0.000 C 
BRANCH   8  14
ATOM      9  C   UNL     1      55.691  -0.358  18.666  0.00  0.00    +0.000 C 
ATOM     10  C   UNL     1      55.154   0.936  19.202  0.00  0.00    +0.000 A 
ATOM     11  C   UNL     1      55.316   1.269  20.541  0.00  0.00    +0.000 A 
ATOM     12  C   UNL     1      54.760   2.453  21.004  0.00  0.00    +0.000 A 
ATOM     13  C   UNL     1      54.070   3.275  20.117  0.00  0.00    +0.000 A 
ATOM     14  C   UNL     1      53.970   2.896  18.778  0.00  0.00    +0.000 A 
ATOM     15  N   UNL     1      54.502   1.734  18.320  0.00  0.00    +0.000 NA
ENDBRANCH   8  14
ENDBRANCH   2   8
ENDBRANCH   1   5
BRANCH   1  16
ATOM     16  N   UNL     1      47.139   4.423  16.144  0.00  0.00    +0.000 N 
ATOM     17  C   UNL     1      47.063   4.104  14.815  0.00  0.00    +0.000 C 
ATOM     18  O   UNL     1      47.375   2.993  14.389  0.00  0.00    +0.000 OA
ATOM     19  H   UNL     1      47.151   5.400  16.422  0.00  0.00    +0.000 HD
BRANCH  17  20
ATOM     20  C   UNL     1      46.520   5.138  13.923  0.00  0.00    +0.000 A 
ATOM     21  C   UNL     1      45.252   4.987  13.380  0.00  0.00    +0.000 A 
ATOM     22  S   UNL     1      44.783   6.281  12.370  0.00  0.00    +0.000 S 
ATOM     23  C   UNL     1      46.269   7.072  12.602  0.00  0.00    +0.000 A 
ATOM     24  N   UNL     1      46.543   8.249  11.978  0.00  0.00    +0.000 NA
ATOM     25  C   UNL     1      47.720   8.727  12.228  0.00  0.00    +0.000 A 
ATOM     26  N   UNL     1      48.639   8.142  13.059  0.00  0.00    +0.000 N 
ATOM     27  C   UNL     1      48.385   6.981  13.749  0.00  0.00    +0.000 A 
ATOM     28  O   UNL     1      49.188   6.533  14.559  0.00  0.00    +0.000 OA
ATOM     29  C   UNL     1      47.097   6.379  13.470  0.00  0.00    +0.000 A 
ATOM     30  H   UNL     1      49.529   8.584  13.234  0.00  0.00    +0.000 HD
ENDBRANCH  17  20
ENDBRANCH   1  16
TORSDOF 5
ENDMDL
