MODEL 1
REMARK VINA RESULT:    -7.592      0.000      0.000
REMARK INTER + INTRA:         -10.898
REMARK INTER:                 -10.255
REMARK INTRA:                  -0.642
REMARK UNBOUND:                -0.642
REMARK  Name = 
REMARK  7 active torsions:
REMARK  status: ('A' for Active; 'I' for Inactive)
REMARK    1  A    between atoms: N_1  and  C_2
REMARK    2  A    between atoms: C_2  and  C_3
REMARK    3  A    between atoms: C_7  and  C_8
REMARK    4  A    between atoms: C_8  and  C_9
REMARK    5  A    between atoms: C_9  and  N_10
REMARK    6  A    between atoms: CA_15  and  C_16
REMARK    7  A    between atoms: C_16  and  OXT_18
REMARK                            x       y       z     vdW  Elec       q    Type
REMARK                         _______ _______ _______ _____ _____    ______ ____
ROOT
ATOM      1  C   UNL     1      43.914   3.126  11.543  0.00  0.00    +0.000 C 
ENDROOT
BRANCH   1   2
ATOM      2  N   UNL     1      45.059   2.912  12.437  0.00  0.00    +0.000 N 
ATOM      3  C   UNL     1      45.703   4.118  12.788  0.00  0.00    +0.000 A 
ATOM      4  C   UNL     1      46.802   4.076  13.646  0.00  0.00    +0.000 A 
ATOM      5  C   UNL     1      47.425   5.266  14.030  0.00  0.00    +0.000 A 
ATOM      6  C   UNL     1      46.941   6.475  13.554  0.00  0.00    +0.000 A 
ATOM      7  CA  UNL     1      45.848   6.430  12.709  0.00  0.00    +0.000 A 
ATOM      8  N   UNL     1      45.219   5.287  12.320  0.00  0.00    +0.000 NA
ATOM      9  H   UNL     1      45.746   2.266  12.054  0.00  0.00    +0.000 HD
BRANCH   7  10
ATOM     10  C   UNL     1      45.272   7.682  12.137  0.00  0.00    +0.000 C 
ATOM     11  O   UNL     1      45.383   8.790  12.631  0.00  0.00    +0.000 OA
BRANCH  10  12
ATOM     12  OXT UNL     1      44.615   7.424  10.981  0.00  0.00    +0.000 OA
ATOM     13  HXT UNL     1      44.080   6.602  11.097  0.00  0.00    +0.000 HD
ENDBRANCH  10  12
ENDBRANCH   7  10
ENDBRANCH   1   2
BRANCH   1  14
ATOM     14  C   UNL     1      43.941   2.203  10.322  0.00  0.00    +0.000 C 
BRANCH  14  19
ATOM     15  C   UNL     1      46.626   2.231   7.587  0.00  0.00    +0.000 A 
ATOM     16  C   UNL     1      46.691   3.599   7.294  0.00  0.00    +0.000 A 
ATOM     17  C   UNL     1      45.909   4.510   8.003  0.00  0.00    +0.000 A 
ATOM     18  C   UNL     1      45.044   4.067   9.006  0.00  0.00    +0.000 A 
ATOM     19  C   UNL     1      44.954   2.703   9.312  0.00  0.00    +0.000 A 
ATOM     20  C   UNL     1      45.757   1.795   8.603  0.00  0.00    +0.000 A 
BRANCH  15  21
ATOM     21  C   UNL     1      47.487   1.246   6.833  0.00  0.00    +0.000 C 
BRANCH  21  22
ATOM     22  N   UNL     1      48.362   1.916   5.879  0.00  0.00    +0.000 NA
ATOM     23  H   UNL     1      48.270   1.465   4.970  0.00  0.00    +0.000 HD
ATOM     24  H   UNL     1      49.329   1.777   6.170  0.00  0.00    +0.000 HD
ENDBRANCH  21  22
ENDBRANCH  15  21
ENDBRANCH  14  19
ENDBRANCH   1  14
TORSDOF 7
ENDMDL
MODEL 2
REMARK VINA RESULT:    -7.572      2.196      3.050
REMARK INTER + INTRA:         -10.871
REMARK INTER:                 -10.431
REMARK INTRA:                  -0.440
REMARK UNBOUND:                -0.642
REMARK  Name = 
REMARK  7 active torsions:
REMARK  status: ('A' for Active; 'I' for Inactive)
REMARK    1  A    between atoms: N_1  and  C_2
REMARK    2  A    between atoms: C_2  and  C_3
REMARK    3  A    between atoms: C_7  and  C_8
REMARK    4  A    between atoms: C_8  and  C_9
REMARK    5  A    between atoms: C_9  and  N_10
REMARK    6  A    between atoms: CA_15  and  C_16
REMARK    7  A    between atoms: C_16  and  OXT_18
REMARK                            x       y       z     vdW  Elec       q    Type
REMARK                         _______ _______ _______ _____ _____    ______ ____
ROOT
ATOM      1  C   UNL     1      44.705   4.716  10.440  0.00  0.00    +0.000 C 
ENDROOT
BRANCH   1   2
ATOM      2  N   UNL     1      45.473   5.968  10.457  0.00  0.00    +0.000 N 
ATOM      3  C   UNL     1      46.278   6.091  11.609  0.00  0.00    +0.000 A 
ATOM      4  C   UNL     1      47.079   7.224  11.760  0.00  0.00    +0.000 A 
ATOM      5  C   UNL     1      47.908   7.340  12.878  0.00  0.00    +0.000 A 
ATOM      6  C   UNL     1      47.926   6.326  13.824  0.00  0.00    +0.000 A 
ATOM      7  CA  UNL     1      47.104   5.238  13.599  0.00  0.00    +0.000 A 
ATOM      8  N   UNL     1      46.288   5.096  12.519  0.00  0.00    +0.000 NA
ATOM      9  H   UNL     1      44.886   6.795  10.370  0.00  0.00    +0.000 HD
BRANCH   7  10
ATOM     10  C   UNL     1      47.048   4.109  14.574  0.00  0.00    +0.000 C 
ATOM     11  O   UNL     1      47.471   2.986  14.364  0.00  0.00    +0.000 OA
BRANCH  10  12
ATOM     12  OXT UNL     1      46.472   4.504  15.734  0.00  0.00    +0.000 OA
ATOM     13  HXT UNL     1      45.590   4.066  15.816  0.00  0.00    +0.000 HD
ENDBRANCH  10  12
ENDBRANCH   7  10
ENDBRANCH   1   2
BRANCH   1  14
ATOM     14  C   UNL     1      44.162   4.379   9.048  0.00  0.00    +0.000 C 
BRANCH  14  19
ATOM     15  C   UNL     1      46.627   2.567   6.740  0.00  0.00    +0.000 A 
ATOM     16  C   UNL     1      46.690   1.310   7.355  0.00  0.00    +0.000 A 
ATOM     17  C   UNL     1      45.910   1.033   8.478  0.00  0.00    +0.000 A 
ATOM     18  C   UNL     1      45.066   2.012   9.008  0.00  0.00    +0.000 A 
ATOM     19  C   UNL     1      44.992   3.280   8.417  0.00  0.00    +0.000 A 
ATOM     20  C   UNL     1      45.769   3.542   7.277  0.00  0.00    +0.000 A 
BRANCH  15  21
ATOM     21  C   UNL     1      47.456   2.859   5.513  0.00  0.00    +0.000 C 
BRANCH  21  22
ATOM     22  N   UNL     1      48.486   1.849   5.305  0.00  0.00    +0.000 NA
ATOM     23  H   UNL     1      49.309   2.292   4.898  0.00  0.00    +0.000 HD
ATOM     24  H   UNL     1      48.152   1.179   4.614  0.00  0.00    +0.000 HD
ENDBRANCH  21  22
ENDBRANCH  15  21
ENDBRANCH  14  19
ENDBRANCH   1  14
TORSDOF 7
ENDMDL
MODEL 3
REMARK VINA RESULT:    -7.077      2.260      3.042
REMARK INTER + INTRA:         -10.202
REMARK INTER:                  -9.846
REMARK INTRA:                  -0.356
REMARK UNBOUND:                -0.642
REMARK  Name = 
REMARK  7 active torsions:
REMARK  status: ('A' for Active; 'I' for Inactive)
REMARK    1  A    between atoms: N_1  and  C_2
REMARK    2  A    between atoms: C_2  and  C_3
REMARK    3  A    between atoms: C_7  and  C_8
REMARK    4  A    between atoms: C_8  and  C_9
REMARK    5  A    between atoms: C_9  and  N_10
REMARK    6  A    between atoms: CA_15  and  C_16
REMARK    7  A    between atoms: C_16  and  OXT_18
REMARK                            x       y       z     vdW  Elec       q    Type
REMARK                         _______ _______ _______ _____ _____    ______ ____
ROOT
ATOM      1  C   UNL     1      45.155   4.987  10.201  0.00  0.00    +0.000 C 
ENDROOT
BRANCH   1   2
ATOM      2  N   UNL     1      44.625   6.323  10.504  0.00  0.00    +0.000 N 
ATOM      3  C   UNL     1      45.360   6.979  11.514  0.00  0.00    +0.000 A 
ATOM      4  C   UNL     1      44.984   8.266  11.900  0.00  0.00    +0.000 A 
ATOM      5  C   UNL     1      45.727   8.940  12.872  0.00  0.00    +0.000 A 
ATOM      6  C   UNL     1      46.831   8.322  13.440  0.00  0.00    +0.000 A 
ATOM      7  CA  UNL     1      47.136   7.048  13.001  0.00  0.00    +0.000 A 
ATOM      8  N   UNL     1      46.434   6.367  12.054  0.00  0.00    +0.000 NA
ATOM      9  H   UNL     1      43.641   6.310  10.763  0.00  0.00    +0.000 HD
BRANCH   7  10
ATOM     10  C   UNL     1      48.297   6.302  13.570  0.00  0.00    +0.000 C 
ATOM     11  O   UNL     1      48.244   5.565  14.539  0.00  0.00    +0.000 OA
BRANCH  10  12
ATOM     12  OXT UNL     1      49.421   6.543  12.855  0.00  0.00    +0.000 OA
ATOM     13  HXT UNL     1      50.190   6.578  13.475  0.00  0.00    +0.000 HD
ENDBRANCH  10  12
ENDBRANCH   7  10
ENDBRANCH   1   2
BRANCH   1  14
ATOM     14  C   UNL     1      44.259   4.204   9.238  0.00  0.00    +0.000 C 
BRANCH  14  19
ATOM     15  C   UNL     1      46.624   2.572   6.701  0.00  0.00    +0.000 A 
ATOM     16  C   UNL     1      46.744   1.285   7.241  0.00  0.00    +0.000 A 
ATOM     17  C   UNL     1      46.034   0.932   8.388  0.00  0.00    +0.000 A 
ATOM     18  C   UNL     1      45.203   1.862   9.017  0.00  0.00    +0.000 A 
ATOM     19  C   UNL     1      45.072   3.158   8.502  0.00  0.00    +0.000 A 
ATOM     20  C   UNL     1      45.780   3.499   7.338  0.00  0.00    +0.000 A 
BRANCH  15  21
ATOM     21  C   UNL     1      47.377   2.948   5.448  0.00  0.00    +0.000 C 
BRANCH  21  22
ATOM     22  N   UNL     1      48.409   1.970   5.126  0.00  0.00    +0.000 NA
ATOM     23  H   UNL     1      48.766   2.160   4.190  0.00  0.00    +0.000 HD
ATOM     24  H   UNL     1      47.981   1.046   5.085  0.00  0.00    +0.000 HD
ENDBRANCH  21  22
ENDBRANCH  15  21
ENDBRANCH  14  19
ENDBRANCH   1  14
TORSDOF 7
ENDMDL
MODEL 4
REMARK VINA RESULT:    -6.429      3.075      4.205
REMARK INTER + INTRA:          -9.326
REMARK INTER:                  -8.975
REMARK INTRA:                  -0.351
REMARK UNBOUND:                -0.642
REMARK  Name = 
REMARK  7 active torsions:
REMARK  status: ('A' for Active; 'I' for Inactive)
REMARK    1  A    between atoms: N_1  and  C_2
REMARK    2  A    between atoms: C_2  and  C_3
REMARK    3  A    between atoms: C_7  and  C_8
REMARK    4  A    between atoms: C_8  and  C_9
REMARK    5  A    between atoms: C_9  and  N_10
REMARK    6  A    between atoms: CA_15  and  C_16
REMARK    7  A    between atoms: C_16  and  OXT_18
REMARK                            x       y       z     vdW  Elec       q    Type
REMARK                         _______ _______ _______ _____ _____    ______ ____
ROOT
ATOM      1  C   UNL     1      46.200   5.821  12.569  0.00  0.00    +0.000 C 
ENDROOT
BRANCH   1   2
ATOM      2  N   UNL     1      47.189   6.786  13.070  0.00  0.00    +0.000 N 
ATOM      3  C   UNL     1      47.789   6.367  14.276  0.00  0.00    +0.000 A 
ATOM      4  C   UNL     1      48.762   7.175  14.867  0.00  0.00    +0.000 A 
ATOM      5  C   UNL     1      49.389   6.753  16.041  0.00  0.00    +0.000 A 
ATOM      6  C   UNL     1      49.039   5.535  16.605  0.00  0.00    +0.000 A 
ATOM      7  CA  UNL     1      48.068   4.796  15.957  0.00  0.00    +0.000 A 
ATOM      8  N   UNL     1      47.441   5.179  14.811  0.00  0.00    +0.000 NA
ATOM      9  H   UNL     1      46.804   7.720  13.195  0.00  0.00    +0.000 HD
BRANCH   7  10
ATOM     10  C   UNL     1      47.618   3.482  16.502  0.00  0.00    +0.000 C 
ATOM     11  O   UNL     1      46.630   3.316  17.196  0.00  0.00    +0.000 OA
BRANCH  10  12
ATOM     12  OXT UNL     1      48.452   2.488  16.111  0.00  0.00    +0.000 OA
ATOM     13  HXT UNL     1      48.093   1.627  16.437  0.00  0.00    +0.000 HD
ENDBRANCH  10  12
ENDBRANCH   7  10
ENDBRANCH   1   2
BRANCH   1  14
ATOM     14  C   UNL     1      45.658   6.199  11.189  0.00  0.00    +0.000 C 
BRANCH  14  19
ATOM     15  C   UNL     1      45.337   3.507   8.480  0.00  0.00    +0.000 A 
ATOM     16  C   UNL     1      44.539   2.563   9.138  0.00  0.00    +0.000 A 
ATOM     17  C   UNL     1      44.070   2.812  10.427  0.00  0.00    +0.000 A 
ATOM     18  C   UNL     1      44.401   4.001  11.081  0.00  0.00    +0.000 A 
ATOM     19  C   UNL     1      45.206   4.957  10.448  0.00  0.00    +0.000 A 
ATOM     20  C   UNL     1      45.659   4.704   9.143  0.00  0.00    +0.000 A 
BRANCH  15  21
ATOM     21  C   UNL     1      45.828   3.247   7.076  0.00  0.00    +0.000 C 
BRANCH  21  22
ATOM     22  N   UNL     1      46.900   4.161   6.702  0.00  0.00    +0.000 NA
ATOM     23  H   UNL     1      46.824   5.009   7.262  0.00  0.00    +0.000 HD
ATOM     24  H   UNL     1      46.762   4.446   5.733  0.00  0.00    +0.000 HD
ENDBRANCH  21  22
ENDBRANCH  15  21
ENDBRANCH  14  19
ENDBRANCH   1  14
TORSDOF 7
ENDMDL
MODEL 5
REMARK VINA RESULT:    -6.307      3.599      5.201
REMARK INTER + INTRA:          -9.161
REMARK INTER:                  -8.661
REMARK INTRA:                  -0.500
REMARK UNBOUND:                -0.642
REMARK  Name = 
REMARK  7 active torsions:
REMARK  status: ('A' for Active; 'I' for Inactive)
REMARK    1  A    between atoms: N_1  and  C_2
REMARK    2  A    between atoms: C_2  and  C_3
REMARK    3  A    between atoms: C_7  and  C_8
REMARK    4  A    between atoms: C_8  and  C_9
REMARK    5  A    between atoms: C_9  and  N_10
REMARK    6  A    between atoms: CA_15  and  C_16
REMARK    7  A    between atoms: C_16  and  OXT_18
REMARK                            x       y       z     vdW  Elec       q    Type
REMARK                         _______ _______ _______ _____ _____    ______ ____
ROOT
ATOM      1  C   UNL     1      48.093   6.504  12.506  0.00  0.00    +0.000 C 
ENDROOT
BRANCH   1   2
ATOM      2  N   UNL     1      48.626   7.373  13.563  0.00  0.00    +0.000 N 
ATOM      3  C   UNL     1      48.538   6.784  14.842  0.00  0.00    +0.000 A 
ATOM      4  C   UNL     1      49.020   7.486  15.948  0.00  0.00    +0.000 A 
ATOM      5  C   UNL     1      48.972   6.898  17.214  0.00  0.00    +0.000 A 
ATOM      6  C   UNL     1      48.447   5.622  17.356  0.00  0.00    +0.000 A 
ATOM      7  CA  UNL     1      47.993   4.995  16.211  0.00  0.00    +0.000 A 
ATOM      8  N   UNL     1      48.029   5.541  14.965  0.00  0.00    +0.000 NA
ATOM      9  H   UNL     1      48.182   8.289  13.586  0.00  0.00    +0.000 HD
BRANCH   7  10
ATOM     10  C   UNL     1      47.397   3.628  16.274  0.00  0.00    +0.000 C 
ATOM     11  O   UNL     1      46.642   3.236  17.146  0.00  0.00    +0.000 OA
BRANCH  10  12
ATOM     12  OXT UNL     1      47.800   2.880  15.219  0.00  0.00    +0.000 OA
ATOM     13  HXT UNL     1      48.267   3.465  14.575  0.00  0.00    +0.000 HD
ENDBRANCH  10  12
ENDBRANCH   7  10
ENDBRANCH   1   2
BRANCH   1  14
ATOM     14  C   UNL     1      46.810   7.058  11.882  0.00  0.00    +0.000 C 
BRANCH  14  19
ATOM     15  C   UNL     1      44.327   4.167  11.473  0.00  0.00    +0.000 A 
ATOM     16  C   UNL     1      44.360   3.985  10.084  0.00  0.00    +0.000 A 
ATOM     17  C   UNL     1      45.208   4.757   9.291  0.00  0.00    +0.000 A 
ATOM     18  C   UNL     1      46.027   5.728   9.872  0.00  0.00    +0.000 A 
ATOM     19  C   UNL     1      46.007   5.936  11.257  0.00  0.00    +0.000 A 
ATOM     20  C   UNL     1      45.160   5.142  12.048  0.00  0.00    +0.000 A 
BRANCH  15  21
ATOM     21  C   UNL     1      43.424   3.318  12.333  0.00  0.00    +0.000 C 
BRANCH  21  22
ATOM     22  N   UNL     1      43.047   2.080  11.662  0.00  0.00    +0.000 NA
ATOM     23  H   UNL     1      43.885   1.522  11.499  0.00  0.00    +0.000 HD
ATOM     24  H   UNL     1      42.673   2.308  10.743  0.00  0.00    +0.000 HD
ENDBRANCH  21  22
ENDBRANCH  15  21
ENDBRANCH  14  19
ENDBRANCH   1  14
TORSDOF 7
ENDMDL
MODEL 6
REMARK VINA RESULT:    -6.263      3.492      5.307
REMARK INTER + INTRA:          -9.102
REMARK INTER:                  -8.529
REMARK INTRA:                  -0.573
REMARK UNBOUND:                -0.642
REMARK  Name = 
REMARK  7 active torsions:
REMARK  status: ('A' for Active; 'I' for Inactive)
REMARK    1  A    between atoms: N_1  and  C_2
REMARK    2  A    between atoms: C_2  and  C_3
REMARK    3  A    between atoms: C_7  and  C_8
REMARK    4  A    between atoms: C_8  and  C_9
REMARK    5  A    between atoms: C_9  and  N_10
REMARK    6  A    between atoms: CA_15  and  C_16
REMARK    7  A    between atoms: C_16  and  OXT_18
REMARK                            x       y       z     vdW  Elec       q    Type
REMARK                         _______ _______ _______ _____ _____    ______ ____
ROOT
ATOM      1  C   UNL     1      48.521   6.648  12.835  0.00  0.00    +0.000 C 
ENDROOT
BRANCH   1   2
ATOM      2  N   UNL     1      48.986   7.445  13.978  0.00  0.00    +0.000 N 
ATOM      3  C   UNL     1      48.765   6.798  15.212  0.00  0.00    +0.000 A 
ATOM      4  C   UNL     1      49.169   7.428  16.391  0.00  0.00    +0.000 A 
ATOM      5  C   UNL     1      48.989   6.782  17.616  0.00  0.00    +0.000 A 
ATOM      6  C   UNL     1      48.413   5.520  17.645  0.00  0.00    +0.000 A 
ATOM      7  CA  UNL     1      48.042   4.967  16.435  0.00  0.00    +0.000 A 
ATOM      8  N   UNL     1      48.207   5.571  15.226  0.00  0.00    +0.000 NA
ATOM      9  H   UNL     1      48.571   8.374  14.009  0.00  0.00    +0.000 HD
BRANCH   7  10
ATOM     10  C   UNL     1      47.400   3.621  16.375  0.00  0.00    +0.000 C 
ATOM     11  O   UNL     1      46.632   3.177  17.210  0.00  0.00    +0.000 OA
BRANCH  10  12
ATOM     12  OXT UNL     1      47.776   2.958  15.255  0.00  0.00    +0.000 OA
ATOM     13  HXT UNL     1      47.724   3.578  14.488  0.00  0.00    +0.000 HD
ENDBRANCH  10  12
ENDBRANCH   7  10
ENDBRANCH   1   2
BRANCH   1  14
ATOM     14  C   UNL     1      47.462   7.376  12.003  0.00  0.00    +0.000 C 
BRANCH  14  19
ATOM     15  C   UNL     1      44.834   4.997  10.545  0.00  0.00    +0.000 A 
ATOM     16  C   UNL     1      44.036   4.762  11.671  0.00  0.00    +0.000 A 
ATOM     17  C   UNL     1      44.315   5.399  12.880  0.00  0.00    +0.000 A 
ATOM     18  C   UNL     1      45.401   6.271  12.982  0.00  0.00    +0.000 A 
ATOM     19  C   UNL     1      46.221   6.517  11.873  0.00  0.00    +0.000 A 
ATOM     20  C   UNL     1      45.921   5.882  10.656  0.00  0.00    +0.000 A 
BRANCH  15  21
ATOM     21  C   UNL     1      44.520   4.322   9.232  0.00  0.00    +0.000 C 
BRANCH  21  22
ATOM     22  N   UNL     1      45.494   4.665   8.203  0.00  0.00    +0.000 NA
ATOM     23  H   UNL     1      46.425   4.681   8.618  0.00  0.00    +0.000 HD
ATOM     24  H   UNL     1      45.309   5.614   7.882  0.00  0.00    +0.000 HD
ENDBRANCH  21  22
ENDBRANCH  15  21
ENDBRANCH  14  19
ENDBRANCH   1  14
TORSDOF 7
ENDMDL
MODEL 7
REMARK VINA RESULT:    -6.207      4.159      7.536
REMARK INTER + INTRA:          -9.027
REMARK INTER:                  -8.649
REMARK INTRA:                  -0.377
REMARK UNBOUND:                -0.642
REMARK  Name = 
REMARK  7 active torsions:
REMARK  status: ('A' for Active; 'I' for Inactive)
REMARK    1  A    between atoms: N_1  and  C_2
REMARK    2  A    between atoms: C_2  and  C_3
REMARK    3  A    between atoms: C_7  and  C_8
REMARK    4  A    between atoms: C_8  and  C_9
REMARK    5  A    between atoms: C_9  and  N_10
REMARK    6  A    between atoms: CA_15  and  C_16
REMARK    7  A    between atoms: C_16  and  OXT_18
REMARK                            x       y       z     vdW  Elec       q    Type
REMARK                         _______ _______ _______ _____ _____    ______ ____
ROOT
ATOM      1  C   UNL     1      47.129   4.041  15.005  0.00  0.00    +0.000 C 
ENDROOT
BRANCH   1   2
ATOM      2  N   UNL     1      47.005   5.385  14.424  0.00  0.00    +0.000 N 
ATOM      3  C   UNL     1      46.131   5.416  13.317  0.00  0.00    +0.000 A 
ATOM      4  C   UNL     1      45.900   6.630  12.669  0.00  0.00    +0.000 A 
ATOM      5  C   UNL     1      45.008   6.680  11.595  0.00  0.00    +0.000 A 
ATOM      6  C   UNL     1      44.361   5.522  11.188  0.00  0.00    +0.000 A 
ATOM      7  CA  UNL     1      44.645   4.363  11.885  0.00  0.00    +0.000 A 
ATOM      8  N   UNL     1      45.506   4.284  12.936  0.00  0.00    +0.000 NA
ATOM      9  H   UNL     1      47.901   5.785  14.153  0.00  0.00    +0.000 HD
BRANCH   7  10
ATOM     10  C   UNL     1      44.007   3.068  11.505  0.00  0.00    +0.000 C 
ATOM     11  O   UNL     1      43.738   2.732  10.365  0.00  0.00    +0.000 OA
BRANCH  10  12
ATOM     12  OXT UNL     1      43.777   2.306  12.600  0.00  0.00    +0.000 OA
ATOM     13  HXT UNL     1      44.173   1.412  12.453  0.00  0.00    +0.000 HD
ENDBRANCH  10  12
ENDBRANCH   7  10
ENDBRANCH   1   2
BRANCH   1  14
ATOM     14  C   UNL     1      47.194   4.066  16.534  0.00  0.00    +0.000 C 
BRANCH  14  19
ATOM     15  C   UNL     1      50.620   2.584  17.400  0.00  0.00    +0.000 A 
ATOM     16  C   UNL     1      51.354   3.748  17.660  0.00  0.00    +0.000 A 
ATOM     17  C   UNL     1      50.739   4.999  17.601  0.00  0.00    +0.000 A 
ATOM     18  C   UNL     1      49.386   5.103  17.271  0.00  0.00    +0.000 A 
ATOM     19  C   UNL     1      48.632   3.955  16.998  0.00  0.00    +0.000 A 
ATOM     20  C   UNL     1      49.258   2.700  17.076  0.00  0.00    +0.000 A 
BRANCH  15  21
ATOM     21  C   UNL     1      51.282   1.230  17.484  0.00  0.00    +0.000 C 
BRANCH  21  22
ATOM     22  N   UNL     1      52.507   1.276  18.272  0.00  0.00    +0.000 NA
ATOM     23  H   UNL     1      53.241   1.718  17.719  0.00  0.00    +0.000 HD
ATOM     24  H   UNL     1      52.818   0.322  18.447  0.00  0.00    +0.000 HD
ENDBRANCH  21  22
ENDBRANCH  15  21
ENDBRANCH  14  19
ENDBRANCH   1  14
TORSDOF 7
ENDMDL
MODEL 8
REMARK VINA RESULT:    -5.943      3.014      6.397
REMARK INTER + INTRA:          -8.670
REMARK INTER:                  -8.180
REMARK INTRA:                  -0.490
REMARK UNBOUND:                -0.642
REMARK  Name = 
REMARK  7 active torsions:
REMARK  status: ('A' for Active; 'I' for Inactive)
REMARK    1  A    between atoms: N_1  and  C_2
REMARK    2  A    between atoms: C_2  and  C_3
REMARK    3  A    between atoms: C_7  and  C_8
REMARK    4  A    between atoms: C_8  and  C_9
REMARK    5  A    between atoms: C_9  and  N_10
REMARK    6  A    between atoms: CA_15  and  C_16
REMARK    7  A    between atoms: C_16  and  OXT_18
REMARK                            x       y       z     vdW  Elec       q    Type
REMARK                         _______ _______ _______ _____ _____    ______ ____
ROOT
ATOM      1  C   UNL     1      45.006   7.626  12.069  0.00  0.00    +0.000 C 
ENDROOT
BRANCH   1   2
ATOM      2  N   UNL     1      44.380   6.548  12.846  0.00  0.00    +0.000 N 
ATOM      3  C   UNL     1      44.217   5.365  12.094  0.00  0.00    +0.000 A 
ATOM      4  C   UNL     1      43.649   4.246  12.704  0.00  0.00    +0.000 A 
ATOM      5  C   UNL     1      43.516   3.059  11.981  0.00  0.00    +0.000 A 
ATOM      6  C   UNL     1      43.952   3.006  10.666  0.00  0.00    +0.000 A 
ATOM      7  CA  UNL     1      44.504   4.158  10.137  0.00  0.00    +0.000 A 
ATOM      8  N   UNL     1      44.649   5.328  10.818  0.00  0.00    +0.000 NA
ATOM      9  H   UNL     1      43.484   6.816  13.246  0.00  0.00    +0.000 HD
BRANCH   7  10
ATOM     10  C   UNL     1      44.984   4.196   8.725  0.00  0.00    +0.000 C 
ATOM     11  O   UNL     1      45.902   4.886   8.319  0.00  0.00    +0.000 OA
BRANCH  10  12
ATOM     12  OXT UNL     1      44.267   3.347   7.950  0.00  0.00    +0.000 OA
ATOM     13  HXT UNL     1      44.390   3.602   7.003  0.00  0.00    +0.000 HD
ENDBRANCH  10  12
ENDBRANCH   7  10
ENDBRANCH   1   2
BRANCH   1  14
ATOM     14  C   UNL     1      45.733   8.642  12.953  0.00  0.00    +0.000 C 
BRANCH  14  19
ATOM     15  C   UNL     1      49.227   7.554  14.093  0.00  0.00    +0.000 A 
ATOM     16  C   UNL     1      49.943   7.664  12.894  0.00  0.00    +0.000 A 
ATOM     17  C   UNL     1      49.316   8.128  11.738  0.00  0.00    +0.000 A 
ATOM     18  C   UNL     1      47.963   8.477  11.761  0.00  0.00    +0.000 A 
ATOM     19  C   UNL     1      47.223   8.368  12.945  0.00  0.00    +0.000 A 
ATOM     20  C   UNL     1      47.869   7.915  14.107  0.00  0.00    +0.000 A 
BRANCH  15  21
ATOM     21  C   UNL     1      49.911   7.072  15.349  0.00  0.00    +0.000 C 
BRANCH  21  22
ATOM     22  N   UNL     1      49.239   5.909  15.916  0.00  0.00    +0.000 NA
ATOM     23  H   UNL     1      48.268   5.901  15.604  0.00  0.00    +0.000 HD
ATOM     24  H   UNL     1      49.212   6.010  16.930  0.00  0.00    +0.000 HD
ENDBRANCH  21  22
ENDBRANCH  15  21
ENDBRANCH  14  19
ENDBRANCH   1  14
TORSDOF 7
ENDMDL
MODEL 9
REMARK VINA RESULT:    -5.901      3.085      6.294
REMARK INTER + INTRA:          -8.613
REMARK INTER:                  -8.170
REMARK INTRA:                  -0.443
REMARK UNBOUND:                -0.642
REMARK  Name = 
REMARK  7 active torsions:
REMARK  status: ('A' for Active; 'I' for Inactive)
REMARK    1  A    between atoms: N_1  and  C_2
REMARK    2  A    between atoms: C_2  and  C_3
REMARK    3  A    between atoms: C_7  and  C_8
REMARK    4  A    between atoms: C_8  and  C_9
REMARK    5  A    between atoms: C_9  and  N_10
REMARK    6  A    between atoms: CA_15  and  C_16
REMARK    7  A    between atoms: C_16  and  OXT_18
REMARK                            x       y       z     vdW  Elec       q    Type
REMARK                         _______ _______ _______ _____ _____    ______ ____
ROOT
ATOM      1  C   UNL     1      45.078   7.605  11.993  0.00  0.00    +0.000 C 
ENDROOT
BRANCH   1   2
ATOM      2  N   UNL     1      44.383   6.595  12.801  0.00  0.00    +0.000 N 
ATOM      3  C   UNL     1      44.201   5.380  12.108  0.00  0.00    +0.000 A 
ATOM      4  C   UNL     1      43.568   4.317  12.754  0.00  0.00    +0.000 A 
ATOM      5  C   UNL     1      43.416   3.098  12.090  0.00  0.00    +0.000 A 
ATOM      6  C   UNL     1      43.899   2.957  10.798  0.00  0.00    +0.000 A 
ATOM      7  CA  UNL     1      44.515   4.057  10.231  0.00  0.00    +0.000 A 
ATOM      8  N   UNL     1      44.680   5.256  10.853  0.00  0.00    +0.000 NA
ATOM      9  H   UNL     1      43.483   6.917  13.150  0.00  0.00    +0.000 HD
BRANCH   7  10
ATOM     10  C   UNL     1      45.049   4.000   8.838  0.00  0.00    +0.000 C 
ATOM     11  O   UNL     1      44.951   3.041   8.093  0.00  0.00    +0.000 OA
BRANCH  10  12
ATOM     12  OXT UNL     1      45.650   5.167   8.506  0.00  0.00    +0.000 OA
ATOM     13  HXT UNL     1      45.294   5.470   7.636  0.00  0.00    +0.000 HD
ENDBRANCH  10  12
ENDBRANCH   7  10
ENDBRANCH   1   2
BRANCH   1  14
ATOM     14  C   UNL     1      45.462   8.845  12.805  0.00  0.00    +0.000 C 
BRANCH  14  19
ATOM     15  C   UNL     1      49.065   9.255  11.563  0.00  0.00    +0.000 A 
ATOM     16  C   UNL     1      49.010  10.541  11.012  0.00  0.00    +0.000 A 
ATOM     17  C   UNL     1      47.834  11.289  11.079  0.00  0.00    +0.000 A 
ATOM     18  C   UNL     1      46.695  10.757  11.688  0.00  0.00    +0.000 A 
ATOM     19  C   UNL     1      46.721   9.469  12.239  0.00  0.00    +0.000 A 
ATOM     20  C   UNL     1      47.915   8.732  12.180  0.00  0.00    +0.000 A 
BRANCH  15  21
ATOM     21  C   UNL     1      50.343   8.454  11.507  0.00  0.00    +0.000 C 
BRANCH  21  22
ATOM     22  N   UNL     1      50.202   7.166  12.176  0.00  0.00    +0.000 NA
ATOM     23  H   UNL     1      49.259   6.812  12.020  0.00  0.00    +0.000 HD
ATOM     24  H   UNL     1      50.290   7.310  13.181  0.00  0.00    +0.000 HD
ENDBRANCH  21  22
ENDBRANCH  15  21
ENDBRANCH  14  19
ENDBRANCH   1  14
TORSDOF 7
ENDMDL
