MODEL 1
REMARK VINA RESULT:    -7.049      0.000      0.000
REMARK INTER + INTRA:         -10.613
REMARK INTER:                  -9.522
REMARK INTRA:                  -1.091
REMARK UNBOUND:                -1.091
REMARK  Name = 
REMARK  10 active torsions:
REMARK  status: ('A' for Active; 'I' for Inactive)
REMARK    1  A    between atoms: C_1  and  C_2
REMARK    2  A    between atoms: C_4  and  S_5
REMARK    3  A    between atoms: S_5  and  C_6
REMARK    4  A    between atoms: C_11  and  O_12
REMARK    5  A    between atoms: O_12  and  C_13
REMARK    6  A    between atoms: C_13  and  C_14
REMARK    7  A    between atoms: C_14  and  C_15
REMARK    8  A    between atoms: C_14  and  C_16
REMARK    9  A    between atoms: C_14  and  C_17
REMARK   10  A    between atoms: C_21  and  C_22
REMARK                            x       y       z     vdW  Elec       q    Type
REMARK                         _______ _______ _______ _____ _____    ______ ____
ROOT
ATOM      1  C   UNL     1      49.333   7.124  16.090  0.00  0.00    +0.000 C 
ATOM      2  C   UNL     1      49.192   8.435  16.911  0.00  0.00    +0.000 C 
ATOM      3  C   UNL     1      50.781   7.058  15.561  0.00  0.00    +0.000 C 
ENDROOT
BRANCH   1   4
ATOM      4  C   UNL     1      49.036   5.914  16.982  0.00  0.00    +0.000 A 
ATOM      5  C   UNL     1      48.160   6.004  18.067  0.00  0.00    +0.000 A 
ATOM      6  C   UNL     1      47.905   4.878  18.849  0.00  0.00    +0.000 A 
ATOM      7  C   UNL     1      48.516   3.674  18.533  0.00  0.00    +0.000 A 
ATOM      8  C   UNL     1      49.364   3.649  17.439  0.00  0.00    +0.000 A 
ATOM      9  N   UNL     1      49.637   4.738  16.664  0.00  0.00    +0.000 NA
BRANCH   8  10
ATOM     10  C   UNL     1      50.041   2.369  17.054  0.00  0.00    +0.000 C 
ATOM     11  N   UNL     1      50.998   1.925  17.921  0.00  0.00    +0.000 N 
ATOM     12  O   UNL     1      49.762   1.754  16.031  0.00  0.00    +0.000 OA
ATOM     13  H   UNL     1      51.211   2.463  18.754  0.00  0.00    +0.000 HD
ATOM     14  H   UNL     1      51.496   1.069  17.717  0.00  0.00    +0.000 HD
ENDBRANCH   8  10
ENDBRANCH   1   4
BRANCH   1  15
ATOM     15  C   UNL     1      48.333   7.241  14.903  0.00  0.00    +0.000 C 
BRANCH  15  16
ATOM     16  O   UNL     1      48.602   6.318  13.843  0.00  0.00    +0.000 OA
BRANCH  16  23
ATOM     17  C   UNL     1      46.964   3.762  14.603  0.00  0.00    +0.000 C 
ATOM     18  C   UNL     1      46.753   4.685  13.444  0.00  0.00    +0.000 A 
ATOM     19  N   UNL     1      45.659   4.351  12.712  0.00  0.00    +0.000 NA
ATOM     20  C   UNL     1      45.312   5.160  11.688  0.00  0.00    +0.000 A 
ATOM     21  C   UNL     1      45.999   6.298  11.319  0.00  0.00    +0.000 A 
ATOM     22  C   UNL     1      47.125   6.621  12.070  0.00  0.00    +0.000 A 
ATOM     23  C   UNL     1      47.531   5.817  13.151  0.00  0.00    +0.000 A 
BRANCH  20  24
ATOM     24  S   UNL     1      43.828   4.665  10.846  0.00  0.00    +0.000 S 
ATOM     25  C   UNL     1      43.356   3.136  11.621  0.00  0.00    +0.000 C 
ATOM     26  O   UNL     1      42.809   5.653  11.151  0.00  0.00    +0.000 OA
ATOM     27  O   UNL     1      44.196   4.372   9.472  0.00  0.00    +0.000 OA
ENDBRANCH  20  24
ENDBRANCH  16  23
ENDBRANCH  15  16
ENDBRANCH   1  15
TORSDOF 6
ENDMDL
MODEL 2
REMARK VINA RESULT:    -7.008      1.246      1.861
REMARK INTER + INTRA:         -10.557
REMARK INTER:                  -9.644
REMARK INTRA:                  -0.912
REMARK UNBOUND:                -1.091
REMARK  Name = 
REMARK  10 active torsions:
REMARK  status: ('A' for Active; 'I' for Inactive)
REMARK    1  A    between atoms: C_1  and  C_2
REMARK    2  A    between atoms: C_4  and  S_5
REMARK    3  A    between atoms: S_5  and  C_6
REMARK    4  A    between atoms: C_11  and  O_12
REMARK    5  A    between atoms: O_12  and  C_13
REMARK    6  A    between atoms: C_13  and  C_14
REMARK    7  A    between atoms: C_14  and  C_15
REMARK    8  A    between atoms: C_14  and  C_16
REMARK    9  A    between atoms: C_14  and  C_17
REMARK   10  A    between atoms: C_21  and  C_22
REMARK                            x       y       z     vdW  Elec       q    Type
REMARK                         _______ _______ _______ _____ _____    ______ ____
ROOT
ATOM      1  C   UNL     1      49.134   6.614  16.272  0.00  0.00    +0.000 C 
ATOM      2  C   UNL     1      48.614   7.653  17.304  0.00  0.00    +0.000 C 
ATOM      3  C   UNL     1      50.648   6.850  16.096  0.00  0.00    +0.000 C 
ENDROOT
BRANCH   1   4
ATOM      4  C   UNL     1      48.872   5.193  16.784  0.00  0.00    +0.000 A 
ATOM      5  C   UNL     1      47.578   4.745  17.063  0.00  0.00    +0.000 A 
ATOM      6  C   UNL     1      47.378   3.441  17.516  0.00  0.00    +0.000 A 
ATOM      7  C   UNL     1      48.467   2.597  17.671  0.00  0.00    +0.000 A 
ATOM      8  C   UNL     1      49.720   3.099  17.366  0.00  0.00    +0.000 A 
ATOM      9  N   UNL     1      49.944   4.372  16.931  0.00  0.00    +0.000 NA
BRANCH   8  10
ATOM     10  C   UNL     1      50.927   2.221  17.511  0.00  0.00    +0.000 C 
ATOM     11  N   UNL     1      51.959   2.753  18.232  0.00  0.00    +0.000 N 
ATOM     12  O   UNL     1      50.993   1.101  17.020  0.00  0.00    +0.000 OA
ATOM     13  H   UNL     1      51.874   3.687  18.617  0.00  0.00    +0.000 HD
ATOM     14  H   UNL     1      52.804   2.213  18.363  0.00  0.00    +0.000 HD
ENDBRANCH   8  10
ENDBRANCH   1   4
BRANCH   1  15
ATOM     15  C   UNL     1      48.386   6.908  14.939  0.00  0.00    +0.000 C 
BRANCH  15  16
ATOM     16  O   UNL     1      48.449   5.827  14.004  0.00  0.00    +0.000 OA
BRANCH  16  23
ATOM     17  C   UNL     1      47.571   7.521  11.523  0.00  0.00    +0.000 C 
ATOM     18  C   UNL     1      46.905   6.311  12.100  0.00  0.00    +0.000 A 
ATOM     19  N   UNL     1      45.831   5.917  11.368  0.00  0.00    +0.000 NA
ATOM     20  C   UNL     1      45.195   4.784  11.738  0.00  0.00    +0.000 A 
ATOM     21  C   UNL     1      45.548   4.003  12.820  0.00  0.00    +0.000 A 
ATOM     22  C   UNL     1      46.642   4.427  13.567  0.00  0.00    +0.000 A 
ATOM     23  C   UNL     1      47.346   5.597  13.225  0.00  0.00    +0.000 A 
BRANCH  20  24
ATOM     24  S   UNL     1      43.851   4.326  10.670  0.00  0.00    +0.000 S 
ATOM     25  C   UNL     1      44.592   4.136   9.065  0.00  0.00    +0.000 C 
ATOM     26  O   UNL     1      43.382   3.023  11.101  0.00  0.00    +0.000 OA
ATOM     27  O   UNL     1      42.949   5.463  10.611  0.00  0.00    +0.000 OA
ENDBRANCH  20  24
ENDBRANCH  16  23
ENDBRANCH  15  16
ENDBRANCH   1  15
TORSDOF 6
ENDMDL
MODEL 3
REMARK VINA RESULT:    -6.688      1.747      2.302
REMARK INTER + INTRA:         -10.125
REMARK INTER:                  -9.058
REMARK INTRA:                  -1.067
REMARK UNBOUND:                -1.091
REMARK  Name = 
REMARK  10 active torsions:
REMARK  status: ('A' for Active; 'I' for Inactive)
REMARK    1  A    between atoms: C_1  and  C_2
REMARK    2  A    between atoms: C_4  and  S_5
REMARK    3  A    between atoms: S_5  and  C_6
REMARK    4  A    between atoms: C_11  and  O_12
REMARK    5  A    between atoms: O_12  and  C_13
REMARK    6  A    between atoms: C_13  and  C_14
REMARK    7  A    between atoms: C_14  and  C_15
REMARK    8  A    between atoms: C_14  and  C_16
REMARK    9  A    between atoms: C_14  and  C_17
REMARK   10  A    between atoms: C_21  and  C_22
REMARK                            x       y       z     vdW  Elec       q    Type
REMARK                         _______ _______ _______ _____ _____    ______ ____
ROOT
ATOM      1  C   UNL     1      49.586   7.602  15.330  0.00  0.00    +0.000 C 
ATOM      2  C   UNL     1      49.097   9.072  15.448  0.00  0.00    +0.000 C 
ATOM      3  C   UNL     1      51.123   7.609  15.471  0.00  0.00    +0.000 C 
ENDROOT
BRANCH   1   4
ATOM      4  C   UNL     1      48.953   6.750  16.435  0.00  0.00    +0.000 A 
ATOM      5  C   UNL     1      48.662   7.285  17.693  0.00  0.00    +0.000 A 
ATOM      6  C   UNL     1      48.075   6.482  18.670  0.00  0.00    +0.000 A 
ATOM      7  C   UNL     1      47.773   5.160  18.377  0.00  0.00    +0.000 A 
ATOM      8  C   UNL     1      48.076   4.695  17.109  0.00  0.00    +0.000 A 
ATOM      9  N   UNL     1      48.659   5.457  16.139  0.00  0.00    +0.000 NA
BRANCH   8  10
ATOM     10  C   UNL     1      47.762   3.276  16.744  0.00  0.00    +0.000 C 
ATOM     11  N   UNL     1      46.914   2.623  17.593  0.00  0.00    +0.000 N 
ATOM     12  O   UNL     1      48.229   2.729  15.752  0.00  0.00    +0.000 OA
ATOM     13  H   UNL     1      46.553   3.103  18.410  0.00  0.00    +0.000 HD
ATOM     14  H   UNL     1      46.665   1.661  17.406  0.00  0.00    +0.000 HD
ENDBRANCH   8  10
ENDBRANCH   1   4
BRANCH   1  15
ATOM     15  C   UNL     1      49.181   7.119  13.907  0.00  0.00    +0.000 C 
BRANCH  15  16
ATOM     16  O   UNL     1      48.026   7.786  13.389  0.00  0.00    +0.000 OA
BRANCH  16  23
ATOM     17  C   UNL     1      45.240   8.868  12.461  0.00  0.00    +0.000 C 
ATOM     18  C   UNL     1      45.642   7.450  12.719  0.00  0.00    +0.000 A 
ATOM     19  N   UNL     1      44.647   6.572  12.432  0.00  0.00    +0.000 NA
ATOM     20  C   UNL     1      44.916   5.253  12.541  0.00  0.00    +0.000 A 
ATOM     21  C   UNL     1      46.128   4.729  12.942  0.00  0.00    +0.000 A 
ATOM     22  C   UNL     1      47.134   5.641  13.245  0.00  0.00    +0.000 A 
ATOM     23  C   UNL     1      46.912   7.027  13.144  0.00  0.00    +0.000 A 
BRANCH  20  24
ATOM     24  S   UNL     1      43.565   4.198  12.074  0.00  0.00    +0.000 S 
ATOM     25  C   UNL     1      43.919   3.725  10.397  0.00  0.00    +0.000 C 
ATOM     26  O   UNL     1      43.643   3.006  12.899  0.00  0.00    +0.000 OA
ATOM     27  O   UNL     1      42.368   5.020  12.061  0.00  0.00    +0.000 OA
ENDBRANCH  20  24
ENDBRANCH  16  23
ENDBRANCH  15  16
ENDBRANCH   1  15
TORSDOF 6
ENDMDL
MODEL 4
REMARK VINA RESULT:    -6.675      1.354      2.075
REMARK INTER + INTRA:         -10.107
REMARK INTER:                  -9.318
REMARK INTRA:                  -0.789
REMARK UNBOUND:                -1.091
REMARK  Name = 
REMARK  10 active torsions:
REMARK  status: ('A' for Active; 'I' for Inactive)
REMARK    1  A    between atoms: C_1  and  C_2
REMARK    2  A    between atoms: C_4  and  S_5
REMARK    3  A    between atoms: S_5  and  C_6
REMARK    4  A    between atoms: C_11  and  O_12
REMARK    5  A    between atoms: O_12  and  C_13
REMARK    6  A    between atoms: C_13  and  C_14
REMARK    7  A    between atoms: C_14  and  C_15
REMARK    8  A    between atoms: C_14  and  C_16
REMARK    9  A    between atoms: C_14  and  C_17
REMARK   10  A    between atoms: C_21  and  C_22
REMARK                            x       y       z     vdW  Elec       q    Type
REMARK                         _______ _______ _______ _____ _____    ______ ____
ROOT
ATOM      1  C   UNL     1      49.321   6.515  16.800  0.00  0.00    +0.000 C 
ATOM      2  C   UNL     1      48.609   7.190  18.005  0.00  0.00    +0.000 C 
ATOM      3  C   UNL     1      50.062   7.620  16.018  0.00  0.00    +0.000 C 
ENDROOT
BRANCH   1   4
ATOM      4  C   UNL     1      50.313   5.461  17.303  0.00  0.00    +0.000 A 
ATOM      5  C   UNL     1      51.400   5.808  18.110  0.00  0.00    +0.000 A 
ATOM      6  C   UNL     1      52.275   4.819  18.558  0.00  0.00    +0.000 A 
ATOM      7  C   UNL     1      52.049   3.496  18.208  0.00  0.00    +0.000 A 
ATOM      8  C   UNL     1      50.948   3.218  17.416  0.00  0.00    +0.000 A 
ATOM      9  N   UNL     1      50.083   4.167  16.956  0.00  0.00    +0.000 NA
BRANCH   8  10
ATOM     10  C   UNL     1      50.659   1.803  17.018  0.00  0.00    +0.000 C 
ATOM     11  N   UNL     1      51.314   0.843  17.736  0.00  0.00    +0.000 N 
ATOM     12  O   UNL     1      49.888   1.515  16.110  0.00  0.00    +0.000 OA
ATOM     13  H   UNL     1      51.953   1.116  18.475  0.00  0.00    +0.000 HD
ATOM     14  H   UNL     1      51.166  -0.132  17.514  0.00  0.00    +0.000 HD
ENDBRANCH   8  10
ENDBRANCH   1   4
BRANCH   1  15
ATOM     15  C   UNL     1      48.198   5.895  15.919  0.00  0.00    +0.000 C 
BRANCH  15  16
ATOM     16  O   UNL     1      48.389   6.117  14.518  0.00  0.00    +0.000 OA
BRANCH  16  23
ATOM     17  C   UNL     1      47.400   7.829  12.092  0.00  0.00    +0.000 C 
ATOM     18  C   UNL     1      46.873   6.513  12.572  0.00  0.00    +0.000 A 
ATOM     19  N   UNL     1      45.889   6.031  11.771  0.00  0.00    +0.000 NA
ATOM     20  C   UNL     1      45.390   4.806  12.049  0.00  0.00    +0.000 A 
ATOM     21  C   UNL     1      45.797   4.014  13.103  0.00  0.00    +0.000 A 
ATOM     22  C   UNL     1      46.797   4.528  13.923  0.00  0.00    +0.000 A 
ATOM     23  C   UNL     1      47.357   5.795  13.678  0.00  0.00    +0.000 A 
BRANCH  20  24
ATOM     24  S   UNL     1      44.159   4.247  10.896  0.00  0.00    +0.000 S 
ATOM     25  C   UNL     1      43.363   2.881  11.711  0.00  0.00    +0.000 C 
ATOM     26  O   UNL     1      43.184   5.312  10.756  0.00  0.00    +0.000 OA
ATOM     27  O   UNL     1      44.866   3.724   9.740  0.00  0.00    +0.000 OA
ENDBRANCH  20  24
ENDBRANCH  16  23
ENDBRANCH  15  16
ENDBRANCH   1  15
TORSDOF 6
ENDMDL
MODEL 5
REMARK VINA RESULT:    -6.446      3.303      7.957
REMARK INTER + INTRA:          -9.798
REMARK INTER:                  -8.882
REMARK INTRA:                  -0.915
REMARK UNBOUND:                -1.091
REMARK  Name = 
REMARK  10 active torsions:
REMARK  status: ('A' for Active; 'I' for Inactive)
REMARK    1  A    between atoms: C_1  and  C_2
REMARK    2  A    between atoms: C_4  and  S_5
REMARK    3  A    between atoms: S_5  and  C_6
REMARK    4  A    between atoms: C_11  and  O_12
REMARK    5  A    between atoms: O_12  and  C_13
REMARK    6  A    between atoms: C_13  and  C_14
REMARK    7  A    between atoms: C_14  and  C_15
REMARK    8  A    between atoms: C_14  and  C_16
REMARK    9  A    between atoms: C_14  and  C_17
REMARK   10  A    between atoms: C_21  and  C_22
REMARK                            x       y       z     vdW  Elec       q    Type
REMARK                         _______ _______ _______ _____ _____    ______ ____
ROOT
ATOM      1  C   UNL     1      44.172   5.266  11.708  0.00  0.00    +0.000 C 
ATOM      2  C   UNL     1      44.787   6.605  11.215  0.00  0.00    +0.000 C 
ATOM      3  C   UNL     1      42.654   5.484  11.876  0.00  0.00    +0.000 C 
ENDROOT
BRANCH   1   4
ATOM      4  C   UNL     1      44.442   4.158  10.684  0.00  0.00    +0.000 A 
ATOM      5  C   UNL     1      43.885   2.884  10.824  0.00  0.00    +0.000 A 
ATOM      6  C   UNL     1      44.143   1.905   9.865  0.00  0.00    +0.000 A 
ATOM      7  C   UNL     1      44.942   2.211   8.774  0.00  0.00    +0.000 A 
ATOM      8  C   UNL     1      45.453   3.495   8.689  0.00  0.00    +0.000 A 
ATOM      9  N   UNL     1      45.223   4.468   9.617  0.00  0.00    +0.000 NA
BRANCH   8  10
ATOM     10  C   UNL     1      46.314   3.875   7.523  0.00  0.00    +0.000 C 
ATOM     11  N   UNL     1      46.221   3.059   6.431  0.00  0.00    +0.000 N 
ATOM     12  O   UNL     1      47.056   4.850   7.539  0.00  0.00    +0.000 OA
ATOM     13  H   UNL     1      45.604   2.255   6.454  0.00  0.00    +0.000 HD
ATOM     14  H   UNL     1      46.781   3.258   5.612  0.00  0.00    +0.000 HD
ENDBRANCH   8  10
ENDBRANCH   1   4
BRANCH   1  15
ATOM     15  C   UNL     1      44.826   4.966  13.089  0.00  0.00    +0.000 C 
BRANCH  15  16
ATOM     16  O   UNL     1      46.195   4.561  12.991  0.00  0.00    +0.000 OA
BRANCH  16  23
ATOM     17  C   UNL     1      48.088   7.053  12.989  0.00  0.00    +0.000 C 
ATOM     18  C   UNL     1      47.902   6.034  14.069  0.00  0.00    +0.000 A 
ATOM     19  N   UNL     1      48.625   6.325  15.181  0.00  0.00    +0.000 NA
ATOM     20  C   UNL     1      48.476   5.526  16.259  0.00  0.00    +0.000 A 
ATOM     21  C   UNL     1      47.651   4.420  16.309  0.00  0.00    +0.000 A 
ATOM     22  C   UNL     1      46.926   4.128  15.157  0.00  0.00    +0.000 A 
ATOM     23  C   UNL     1      47.039   4.929  14.006  0.00  0.00    +0.000 A 
BRANCH  20  24
ATOM     24  S   UNL     1      49.414   6.040  17.677  0.00  0.00    +0.000 S 
ATOM     25  C   UNL     1      51.069   5.476  17.354  0.00  0.00    +0.000 C 
ATOM     26  O   UNL     1      49.430   7.491  17.680  0.00  0.00    +0.000 OA
ATOM     27  O   UNL     1      48.906   5.297  18.816  0.00  0.00    +0.000 OA
ENDBRANCH  20  24
ENDBRANCH  16  23
ENDBRANCH  15  16
ENDBRANCH   1  15
TORSDOF 6
ENDMDL
MODEL 6
REMARK VINA RESULT:    -6.072      1.974      2.895
REMARK INTER + INTRA:          -9.292
REMARK INTER:                  -8.567
REMARK INTRA:                  -0.725
REMARK UNBOUND:                -1.091
REMARK  Name = 
REMARK  10 active torsions:
REMARK  status: ('A' for Active; 'I' for Inactive)
REMARK    1  A    between atoms: C_1  and  C_2
REMARK    2  A    between atoms: C_4  and  S_5
REMARK    3  A    between atoms: S_5  and  C_6
REMARK    4  A    between atoms: C_11  and  O_12
REMARK    5  A    between atoms: O_12  and  C_13
REMARK    6  A    between atoms: C_13  and  C_14
REMARK    7  A    between atoms: C_14  and  C_15
REMARK    8  A    between atoms: C_14  and  C_16
REMARK    9  A    between atoms: C_14  and  C_17
REMARK   10  A    between atoms: C_21  and  C_22
REMARK                            x       y       z     vdW  Elec       q    Type
REMARK                         _______ _______ _______ _____ _____    ______ ____
ROOT
ATOM      1  C   UNL     1      48.434   5.040  17.128  0.00  0.00    +0.000 C 
ATOM      2  C   UNL     1      47.482   4.971  18.354  0.00  0.00    +0.000 C 
ATOM      3  C   UNL     1      48.953   6.489  17.022  0.00  0.00    +0.000 C 
ENDROOT
BRANCH   1   4
ATOM      4  C   UNL     1      49.603   4.068  17.319  0.00  0.00    +0.000 A 
ATOM      5  C   UNL     1      49.440   2.690  17.156  0.00  0.00    +0.000 A 
ATOM      6  C   UNL     1      50.530   1.837  17.325  0.00  0.00    +0.000 A 
ATOM      7  C   UNL     1      51.771   2.368  17.641  0.00  0.00    +0.000 A 
ATOM      8  C   UNL     1      51.868   3.743  17.777  0.00  0.00    +0.000 A 
ATOM      9  N   UNL     1      50.816   4.598  17.626  0.00  0.00    +0.000 NA
BRANCH   8  10
ATOM     10  C   UNL     1      53.190   4.365  18.111  0.00  0.00    +0.000 C 
ATOM     11  N   UNL     1      53.173   5.272  19.132  0.00  0.00    +0.000 N 
ATOM     12  O   UNL     1      54.222   4.085  17.513  0.00  0.00    +0.000 OA
ATOM     13  H   UNL     1      52.300   5.487  19.600  0.00  0.00    +0.000 HD
ATOM     14  H   UNL     1      54.033   5.731  19.404  0.00  0.00    +0.000 HD
ENDBRANCH   8  10
ENDBRANCH   1   4
BRANCH   1  15
ATOM     15  C   UNL     1      47.570   4.688  15.882  0.00  0.00    +0.000 C 
BRANCH  15  16
ATOM     16  O   UNL     1      47.925   5.437  14.716  0.00  0.00    +0.000 OA
BRANCH  16  23
ATOM     17  C   UNL     1      47.850   7.423  12.299  0.00  0.00    +0.000 C 
ATOM     18  C   UNL     1      47.026   6.192  12.511  0.00  0.00    +0.000 A 
ATOM     19  N   UNL     1      46.214   5.929  11.454  0.00  0.00    +0.000 NA
ATOM     20  C   UNL     1      45.482   4.794  11.487  0.00  0.00    +0.000 A 
ATOM     21  C   UNL     1      45.486   3.887  12.528  0.00  0.00    +0.000 A 
ATOM     22  C   UNL     1      46.313   4.178  13.608  0.00  0.00    +0.000 A 
ATOM     23  C   UNL     1      47.102   5.343  13.626  0.00  0.00    +0.000 A 
BRANCH  20  24
ATOM     24  S   UNL     1      44.512   4.516  10.025  0.00  0.00    +0.000 S 
ATOM     25  C   UNL     1      44.351   2.749   9.918  0.00  0.00    +0.000 C 
ATOM     26  O   UNL     1      43.194   5.070  10.270  0.00  0.00    +0.000 OA
ATOM     27  O   UNL     1      45.310   4.958   8.895  0.00  0.00    +0.000 OA
ENDBRANCH  20  24
ENDBRANCH  16  23
ENDBRANCH  15  16
ENDBRANCH   1  15
TORSDOF 6
ENDMDL
MODEL 7
REMARK VINA RESULT:    -5.668      3.729      8.384
REMARK INTER + INTRA:          -8.747
REMARK INTER:                  -7.864
REMARK INTRA:                  -0.884
REMARK UNBOUND:                -1.091
REMARK  Name = 
REMARK  10 active torsions:
REMARK  status: ('A' for Active; 'I' for Inactive)
REMARK    1  A    between atoms: C_1  and  C_2
REMARK    2  A    between atoms: C_4  and  S_5
REMARK    3  A    between atoms: S_5  and  C_6
REMARK    4  A    between atoms: C_11  and  O_12
REMARK    5  A    between atoms: O_12  and  C_13
REMARK    6  A    between atoms: C_13  and  C_14
REMARK    7  A    between atoms: C_14  and  C_15
REMARK    8  A    between atoms: C_14  and  C_16
REMARK    9  A    between atoms: C_14  and  C_17
REMARK   10  A    between atoms: C_21  and  C_22
REMARK                            x       y       z     vdW  Elec       q    Type
REMARK                         _______ _______ _______ _____ _____    ______ ____
ROOT
ATOM      1  C   UNL     1      44.667   6.219  11.490  0.00  0.00    +0.000 C 
ATOM      2  C   UNL     1      43.291   5.575  11.164  0.00  0.00    +0.000 C 
ATOM      3  C   UNL     1      45.656   5.791  10.385  0.00  0.00    +0.000 C 
ENDROOT
BRANCH   1   4
ATOM      4  C   UNL     1      44.535   7.745  11.525  0.00  0.00    +0.000 A 
ATOM      5  C   UNL     1      45.563   8.556  12.013  0.00  0.00    +0.000 A 
ATOM      6  C   UNL     1      45.411   9.942  12.018  0.00  0.00    +0.000 A 
ATOM      7  C   UNL     1      44.243  10.503  11.525  0.00  0.00    +0.000 A 
ATOM      8  C   UNL     1      43.268   9.645  11.045  0.00  0.00    +0.000 A 
ATOM      9  N   UNL     1      43.388   8.286  11.038  0.00  0.00    +0.000 NA
BRANCH   8  10
ATOM     10  C   UNL     1      41.992  10.206  10.495  0.00  0.00    +0.000 C 
ATOM     11  N   UNL     1      40.846   9.747  11.082  0.00  0.00    +0.000 N 
ATOM     12  O   UNL     1      41.967  11.020   9.581  0.00  0.00    +0.000 OA
ATOM     13  H   UNL     1      40.902   9.066  11.831  0.00  0.00    +0.000 HD
ATOM     14  H   UNL     1      39.951  10.083  10.754  0.00  0.00    +0.000 HD
ENDBRANCH   8  10
ENDBRANCH   1   4
BRANCH   1  15
ATOM     15  C   UNL     1      45.111   5.633  12.862  0.00  0.00    +0.000 C 
BRANCH  15  16
ATOM     16  O   UNL     1      46.449   5.128  12.857  0.00  0.00    +0.000 OA
BRANCH  16  23
ATOM     17  C   UNL     1      48.594   7.284  13.594  0.00  0.00    +0.000 C 
ATOM     18  C   UNL     1      48.120   6.130  14.421  0.00  0.00    +0.000 A 
ATOM     19  N   UNL     1      48.683   6.117  15.657  0.00  0.00    +0.000 NA
ATOM     20  C   UNL     1      48.270   5.173  16.530  0.00  0.00    +0.000 A 
ATOM     21  C   UNL     1      47.325   4.205  16.252  0.00  0.00    +0.000 A 
ATOM     22  C   UNL     1      46.767   4.224  14.977  0.00  0.00    +0.000 A 
ATOM     23  C   UNL     1      47.155   5.188  14.028  0.00  0.00    +0.000 A 
BRANCH  20  24
ATOM     24  S   UNL     1      49.021   5.293  18.135  0.00  0.00    +0.000 S 
ATOM     25  C   UNL     1      47.750   5.965  19.181  0.00  0.00    +0.000 C 
ATOM     26  O   UNL     1      49.300   3.941  18.583  0.00  0.00    +0.000 OA
ATOM     27  O   UNL     1      50.082   6.280  18.035  0.00  0.00    +0.000 OA
ENDBRANCH  20  24
ENDBRANCH  16  23
ENDBRANCH  15  16
ENDBRANCH   1  15
TORSDOF 6
ENDMDL
MODEL 8
REMARK VINA RESULT:    -5.640      3.474      7.901
REMARK INTER + INTRA:          -8.709
REMARK INTER:                  -7.797
REMARK INTRA:                  -0.912
REMARK UNBOUND:                -1.091
REMARK  Name = 
REMARK  10 active torsions:
REMARK  status: ('A' for Active; 'I' for Inactive)
REMARK    1  A    between atoms: C_1  and  C_2
REMARK    2  A    between atoms: C_4  and  S_5
REMARK    3  A    between atoms: S_5  and  C_6
REMARK    4  A    between atoms: C_11  and  O_12
REMARK    5  A    between atoms: O_12  and  C_13
REMARK    6  A    between atoms: C_13  and  C_14
REMARK    7  A    between atoms: C_14  and  C_15
REMARK    8  A    between atoms: C_14  and  C_16
REMARK    9  A    between atoms: C_14  and  C_17
REMARK   10  A    between atoms: C_21  and  C_22
REMARK                            x       y       z     vdW  Elec       q    Type
REMARK                         _______ _______ _______ _____ _____    ______ ____
ROOT
ATOM      1  C   UNL     1      46.633   6.731  12.717  0.00  0.00    +0.000 C 
ATOM      2  C   UNL     1      47.786   7.016  11.716  0.00  0.00    +0.000 C 
ATOM      3  C   UNL     1      46.144   8.089  13.264  0.00  0.00    +0.000 C 
ENDROOT
BRANCH   1   4
ATOM      4  C   UNL     1      45.489   6.001  12.003  0.00  0.00    +0.000 A 
ATOM      5  C   UNL     1      44.233   5.857  12.597  0.00  0.00    +0.000 A 
ATOM      6  C   UNL     1      43.213   5.198  11.912  0.00  0.00    +0.000 A 
ATOM      7  C   UNL     1      43.454   4.702  10.639  0.00  0.00    +0.000 A 
ATOM      8  C   UNL     1      44.716   4.889  10.103  0.00  0.00    +0.000 A 
ATOM      9  N   UNL     1      45.734   5.522  10.756  0.00  0.00    +0.000 NA
BRANCH   8  10
ATOM     10  C   UNL     1      45.022   4.378   8.728  0.00  0.00    +0.000 C 
ATOM     11  N   UNL     1      44.150   3.447   8.238  0.00  0.00    +0.000 N 
ATOM     12  O   UNL     1      45.986   4.763   8.078  0.00  0.00    +0.000 OA
ATOM     13  H   UNL     1      43.367   3.143   8.806  0.00  0.00    +0.000 HD
ATOM     14  H   UNL     1      44.302   3.059   7.317  0.00  0.00    +0.000 HD
ENDBRANCH   8  10
ENDBRANCH   1   4
BRANCH   1  15
ATOM     15  C   UNL     1      47.250   5.881  13.865  0.00  0.00    +0.000 C 
BRANCH  15  16
ATOM     16  O   UNL     1      48.567   6.298  14.234  0.00  0.00    +0.000 OA
BRANCH  16  23
ATOM     17  C   UNL     1      49.130   9.188  15.297  0.00  0.00    +0.000 C 
ATOM     18  C   UNL     1      49.028   7.917  16.081  0.00  0.00    +0.000 A 
ATOM     19  N   UNL     1      49.137   8.128  17.418  0.00  0.00    +0.000 NA
ATOM     20  C   UNL     1      48.975   7.068  18.241  0.00  0.00    +0.000 A 
ATOM     21  C   UNL     1      48.721   5.779  17.819  0.00  0.00    +0.000 A 
ATOM     22  C   UNL     1      48.624   5.577  16.446  0.00  0.00    +0.000 A 
ATOM     23  C   UNL     1      48.780   6.644  15.542  0.00  0.00    +0.000 A 
BRANCH  20  24
ATOM     24  S   UNL     1      49.068   7.472  19.968  0.00  0.00    +0.000 S 
ATOM     25  C   UNL     1      47.563   8.353  20.310  0.00  0.00    +0.000 C 
ATOM     26  O   UNL     1      49.031   6.223  20.706  0.00  0.00    +0.000 OA
ATOM     27  O   UNL     1      50.173   8.401  20.129  0.00  0.00    +0.000 OA
ENDBRANCH  20  24
ENDBRANCH  16  23
ENDBRANCH  15  16
ENDBRANCH   1  15
TORSDOF 6
ENDMDL
MODEL 9
REMARK VINA RESULT:    -5.629      3.307      7.576
REMARK INTER + INTRA:          -8.694
REMARK INTER:                  -7.899
REMARK INTRA:                  -0.796
REMARK UNBOUND:                -1.091
REMARK  Name = 
REMARK  10 active torsions:
REMARK  status: ('A' for Active; 'I' for Inactive)
REMARK    1  A    between atoms: C_1  and  C_2
REMARK    2  A    between atoms: C_4  and  S_5
REMARK    3  A    between atoms: S_5  and  C_6
REMARK    4  A    between atoms: C_11  and  O_12
REMARK    5  A    between atoms: O_12  and  C_13
REMARK    6  A    between atoms: C_13  and  C_14
REMARK    7  A    between atoms: C_14  and  C_15
REMARK    8  A    between atoms: C_14  and  C_16
REMARK    9  A    between atoms: C_14  and  C_17
REMARK   10  A    between atoms: C_21  and  C_22
REMARK                            x       y       z     vdW  Elec       q    Type
REMARK                         _______ _______ _______ _____ _____    ______ ____
ROOT
ATOM      1  C   UNL     1      46.636   6.570  12.491  0.00  0.00    +0.000 C 
ATOM      2  C   UNL     1      47.298   7.026  11.161  0.00  0.00    +0.000 C 
ATOM      3  C   UNL     1      46.208   7.839  13.258  0.00  0.00    +0.000 C 
ENDROOT
BRANCH   1   4
ATOM      4  C   UNL     1      45.418   5.690  12.194  0.00  0.00    +0.000 A 
ATOM      5  C   UNL     1      44.307   5.672  13.041  0.00  0.00    +0.000 A 
ATOM      6  C   UNL     1      43.211   4.867  12.732  0.00  0.00    +0.000 A 
ATOM      7  C   UNL     1      43.230   4.101  11.576  0.00  0.00    +0.000 A 
ATOM      8  C   UNL     1      44.356   4.173  10.774  0.00  0.00    +0.000 A 
ATOM      9  N   UNL     1      45.445   4.944  11.059  0.00  0.00    +0.000 NA
BRANCH   8  10
ATOM     10  C   UNL     1      44.420   3.369   9.511  0.00  0.00    +0.000 C 
ATOM     11  N   UNL     1      44.148   4.056   8.361  0.00  0.00    +0.000 N 
ATOM     12  O   UNL     1      44.697   2.176   9.499  0.00  0.00    +0.000 OA
ATOM     13  H   UNL     1      43.913   5.041   8.407  0.00  0.00    +0.000 HD
ATOM     14  H   UNL     1      44.170   3.570   7.474  0.00  0.00    +0.000 HD
ENDBRANCH   8  10
ENDBRANCH   1   4
BRANCH   1  15
ATOM     15  C   UNL     1      47.735   5.808  13.288  0.00  0.00    +0.000 C 
BRANCH  15  16
ATOM     16  O   UNL     1      47.238   5.166  14.466  0.00  0.00    +0.000 OA
BRANCH  16  23
ATOM     17  C   UNL     1      47.105   3.391  17.041  0.00  0.00    +0.000 C 
ATOM     18  C   UNL     1      47.877   4.656  16.828  0.00  0.00    +0.000 A 
ATOM     19  N   UNL     1      48.643   4.978  17.902  0.00  0.00    +0.000 NA
ATOM     20  C   UNL     1      49.455   6.053  17.800  0.00  0.00    +0.000 A 
ATOM     21  C   UNL     1      49.551   6.862  16.685  0.00  0.00    +0.000 A 
ATOM     22  C   UNL     1      48.750   6.526  15.598  0.00  0.00    +0.000 A 
ATOM     23  C   UNL     1      47.889   5.414  15.646  0.00  0.00    +0.000 A 
BRANCH  20  24
ATOM     24  S   UNL     1      50.460   6.339  19.236  0.00  0.00    +0.000 S 
ATOM     25  C   UNL     1      51.371   4.828  19.459  0.00  0.00    +0.000 C 
ATOM     26  O   UNL     1      51.407   7.385  18.898  0.00  0.00    +0.000 OA
ATOM     27  O   UNL     1      49.558   6.485  20.365  0.00  0.00    +0.000 OA
ENDBRANCH  20  24
ENDBRANCH  16  23
ENDBRANCH  15  16
ENDBRANCH   1  15
TORSDOF 6
ENDMDL
