MODEL 1
REMARK VINA RESULT:    -8.307      0.000      0.000
REMARK INTER + INTRA:         -11.353
REMARK INTER:                 -10.735
REMARK INTRA:                  -0.618
REMARK UNBOUND:                -0.618
REMARK  Name = 
REMARK  5 active torsions:
REMARK  status: ('A' for Active; 'I' for Inactive)
REMARK    1  A    between atoms: C_2  and  C_4
REMARK    2  A    between atoms: C_7  and  N_8
REMARK    3  A    between atoms: N_8  and  C_9
REMARK    4  A    between atoms: C_9  and  C_10
REMARK    5  A    between atoms: C_14  and  N_15
REMARK                            x       y       z     vdW  Elec       q    Type
REMARK                         _______ _______ _______ _____ _____    ______ ____
ROOT
ATOM      1  N   UNL     1      43.815   4.792   9.839  0.00  0.00    +0.000 N 
ATOM      2  H   UNL     1      44.080   5.775   9.836  0.00  0.00    +0.000 HD
ENDROOT
BRANCH   1   6
ATOM      3  C   UNL     1      46.456   2.503   7.668  0.00  0.00    +0.000 A 
ATOM      4  C   UNL     1      46.448   3.883   7.538  0.00  0.00    +0.000 A 
ATOM      5  N   UNL     1      45.586   4.679   8.230  0.00  0.00    +0.000 NA
ATOM      6  C   UNL     1      44.720   4.056   9.058  0.00  0.00    +0.000 A 
ATOM      7  C   UNL     1      44.750   2.658   9.176  0.00  0.00    +0.000 A 
ATOM      8  N   UNL     1      45.597   1.845   8.493  0.00  0.00    +0.000 NA
BRANCH   3  10
ATOM      9  N   UNL     1      48.538   2.353   6.443  0.00  0.00    +0.000 N 
ATOM     10  C   UNL     1      47.435   1.685   6.900  0.00  0.00    +0.000 C 
ATOM     11  O   UNL     1      47.265   0.491   6.688  0.00  0.00    +0.000 OA
ATOM     12  H   UNL     1      49.234   1.858   5.903  0.00  0.00    +0.000 HD
ATOM     13  H   UNL     1      48.643   3.344   6.630  0.00  0.00    +0.000 HD
ENDBRANCH   3  10
ENDBRANCH   1   6
BRANCH   1  14
ATOM     14  C   UNL     1      43.633   4.293  11.201  0.00  0.00    +0.000 C 
BRANCH  14  15
ATOM     15  C   UNL     1      44.865   4.540  12.036  0.00  0.00    +0.000 A 
ATOM     16  C   UNL     1      45.419   3.499  12.771  0.00  0.00    +0.000 A 
ATOM     17  N   UNL     1      46.511   3.624  13.549  0.00  0.00    +0.000 NA
ATOM     18  C   UNL     1      47.075   4.857  13.607  0.00  0.00    +0.000 A 
ATOM     19  C   UNL     1      46.616   6.001  12.949  0.00  0.00    +0.000 A 
ATOM     20  C   UNL     1      45.470   5.804  12.166  0.00  0.00    +0.000 A 
BRANCH  19  21
ATOM     21  N   UNL     1      47.231   7.230  13.050  0.00  0.00    +0.000 N 
ATOM     22  C   UNL     1      46.497   8.481  13.293  0.00  0.00    +0.000 C 
ATOM     23  C   UNL     1      46.812   9.500  12.188  0.00  0.00    +0.000 C 
ATOM     24  O   UNL     1      48.229   9.716  12.065  0.00  0.00    +0.000 OA
ATOM     25  C   UNL     1      48.895   8.481  11.745  0.00  0.00    +0.000 C 
ATOM     26  C   UNL     1      48.674   7.412  12.832  0.00  0.00    +0.000 C 
ENDBRANCH  19  21
ENDBRANCH  14  15
ENDBRANCH   1  14
TORSDOF 5
ENDMDL
MODEL 2
REMARK VINA RESULT:    -8.088      1.971      2.892
REMARK INTER + INTRA:         -11.070
REMARK INTER:                 -10.407
REMARK INTRA:                  -0.663
REMARK UNBOUND:                -0.618
REMARK  Name = 
REMARK  5 active torsions:
REMARK  status: ('A' for Active; 'I' for Inactive)
REMARK    1  A    between atoms: C_2  and  C_4
REMARK    2  A    between atoms: C_7  and  N_8
REMARK    3  A    between atoms: N_8  and  C_9
REMARK    4  A    between atoms: C_9  and  C_10
REMARK    5  A    between atoms: C_14  and  N_15
REMARK                            x       y       z     vdW  Elec       q    Type
REMARK                         _______ _______ _______ _____ _____    ______ ____
ROOT
ATOM      1  N   UNL     1      43.661   4.797   9.719  0.00  0.00    +0.000 N 
ATOM      2  H   UNL     1      43.831   5.771   9.477  0.00  0.00    +0.000 HD
ENDROOT
BRANCH   1   6
ATOM      3  C   UNL     1      46.329   2.271   7.869  0.00  0.00    +0.000 A 
ATOM      4  C   UNL     1      46.322   3.624   7.576  0.00  0.00    +0.000 A 
ATOM      5  N   UNL     1      45.452   4.497   8.158  0.00  0.00    +0.000 NA
ATOM      6  C   UNL     1      44.576   3.975   9.043  0.00  0.00    +0.000 A 
ATOM      7  C   UNL     1      44.604   2.601   9.326  0.00  0.00    +0.000 A 
ATOM      8  N   UNL     1      45.460   1.714   8.756  0.00  0.00    +0.000 NA
BRANCH   3  10
ATOM      9  N   UNL     1      48.393   1.985   6.638  0.00  0.00    +0.000 N 
ATOM     10  C   UNL     1      47.318   1.368   7.216  0.00  0.00    +0.000 C 
ATOM     11  O   UNL     1      47.179   0.152   7.196  0.00  0.00    +0.000 OA
ATOM     12  H   UNL     1      49.093   1.430   6.166  0.00  0.00    +0.000 HD
ATOM     13  H   UNL     1      48.473   2.995   6.666  0.00  0.00    +0.000 HD
ENDBRANCH   3  10
ENDBRANCH   1   6
BRANCH   1  14
ATOM     14  C   UNL     1      43.620   4.607  11.168  0.00  0.00    +0.000 C 
BRANCH  14  15
ATOM     15  C   UNL     1      44.621   5.502  11.858  0.00  0.00    +0.000 A 
ATOM     16  C   UNL     1      44.656   6.858  11.555  0.00  0.00    +0.000 A 
ATOM     17  N   UNL     1      45.515   7.732  12.112  0.00  0.00    +0.000 NA
ATOM     18  C   UNL     1      46.396   7.226  13.012  0.00  0.00    +0.000 A 
ATOM     19  C   UNL     1      46.498   5.885  13.395  0.00  0.00    +0.000 A 
ATOM     20  C   UNL     1      45.582   5.028  12.769  0.00  0.00    +0.000 A 
BRANCH  19  21
ATOM     21  N   UNL     1      47.418   5.430  14.314  0.00  0.00    +0.000 N 
ATOM     22  C   UNL     1      47.303   4.131  14.993  0.00  0.00    +0.000 C 
ATOM     23  C   UNL     1      47.330   4.328  16.515  0.00  0.00    +0.000 C 
ATOM     24  O   UNL     1      48.500   5.055  16.927  0.00  0.00    +0.000 OA
ATOM     25  C   UNL     1      48.528   6.351  16.303  0.00  0.00    +0.000 C 
ATOM     26  C   UNL     1      48.554   6.246  14.766  0.00  0.00    +0.000 C 
ENDBRANCH  19  21
ENDBRANCH  14  15
ENDBRANCH   1  14
TORSDOF 5
ENDMDL
MODEL 3
REMARK VINA RESULT:    -7.435      2.397      3.399
REMARK INTER + INTRA:         -10.226
REMARK INTER:                  -9.804
REMARK INTRA:                  -0.422
REMARK UNBOUND:                -0.618
REMARK  Name = 
REMARK  5 active torsions:
REMARK  status: ('A' for Active; 'I' for Inactive)
REMARK    1  A    between atoms: C_2  and  C_4
REMARK    2  A    between atoms: C_7  and  N_8
REMARK    3  A    between atoms: N_8  and  C_9
REMARK    4  A    between atoms: C_9  and  C_10
REMARK    5  A    between atoms: C_14  and  N_15
REMARK                            x       y       z     vdW  Elec       q    Type
REMARK                         _______ _______ _______ _____ _____    ______ ____
ROOT
ATOM      1  N   UNL     1      44.379   5.117  10.038  0.00  0.00    +0.000 N 
ATOM      2  H   UNL     1      44.786   6.030   9.842  0.00  0.00    +0.000 HD
ENDROOT
BRANCH   1   6
ATOM      3  C   UNL     1      46.349   2.124   8.016  0.00  0.00    +0.000 A 
ATOM      4  C   UNL     1      46.466   3.443   7.610  0.00  0.00    +0.000 A 
ATOM      5  N   UNL     1      45.827   4.465   8.244  0.00  0.00    +0.000 NA
ATOM      6  C   UNL     1      45.054   4.132   9.299  0.00  0.00    +0.000 A 
ATOM      7  C   UNL     1      44.952   2.789   9.694  0.00  0.00    +0.000 A 
ATOM      8  N   UNL     1      45.578   1.755   9.076  0.00  0.00    +0.000 NA
BRANCH   3  10
ATOM      9  N   UNL     1      46.766  -0.232   7.648  0.00  0.00    +0.000 N 
ATOM     10  C   UNL     1      47.088   1.050   7.297  0.00  0.00    +0.000 C 
ATOM     11  O   UNL     1      47.933   1.296   6.445  0.00  0.00    +0.000 OA
ATOM     12  H   UNL     1      47.242  -1.006   7.207  0.00  0.00    +0.000 HD
ATOM     13  H   UNL     1      46.067  -0.400   8.364  0.00  0.00    +0.000 HD
ENDBRANCH   3  10
ENDBRANCH   1   6
BRANCH   1  14
ATOM     14  C   UNL     1      44.305   4.864  11.475  0.00  0.00    +0.000 C 
BRANCH  14  15
ATOM     15  C   UNL     1      45.554   5.345  12.173  0.00  0.00    +0.000 A 
ATOM     16  C   UNL     1      46.430   6.194  11.508  0.00  0.00    +0.000 A 
ATOM     17  N   UNL     1      47.571   6.670  12.044  0.00  0.00    +0.000 NA
ATOM     18  C   UNL     1      47.859   6.269  13.307  0.00  0.00    +0.000 A 
ATOM     19  C   UNL     1      47.092   5.399  14.088  0.00  0.00    +0.000 A 
ATOM     20  C   UNL     1      45.925   4.933  13.466  0.00  0.00    +0.000 A 
BRANCH  19  21
ATOM     21  N   UNL     1      47.440   5.024  15.367  0.00  0.00    +0.000 N 
ATOM     22  C   UNL     1      48.295   5.841  16.241  0.00  0.00    +0.000 C 
ATOM     23  C   UNL     1      49.502   5.019  16.715  0.00  0.00    +0.000 C 
ATOM     24  O   UNL     1      49.086   3.797  17.349  0.00  0.00    +0.000 OA
ATOM     25  C   UNL     1      48.324   2.993  16.430  0.00  0.00    +0.000 C 
ATOM     26  C   UNL     1      47.060   3.725  15.941  0.00  0.00    +0.000 C 
ENDBRANCH  19  21
ENDBRANCH  14  15
ENDBRANCH   1  14
TORSDOF 5
ENDMDL
MODEL 4
REMARK VINA RESULT:    -7.115      3.521      8.141
REMARK INTER + INTRA:          -9.812
REMARK INTER:                  -9.359
REMARK INTRA:                  -0.454
REMARK UNBOUND:                -0.618
REMARK  Name = 
REMARK  5 active torsions:
REMARK  status: ('A' for Active; 'I' for Inactive)
REMARK    1  A    between atoms: C_2  and  C_4
REMARK    2  A    between atoms: C_7  and  N_8
REMARK    3  A    between atoms: N_8  and  C_9
REMARK    4  A    between atoms: C_9  and  C_10
REMARK    5  A    between atoms: C_14  and  N_15
REMARK                            x       y       z     vdW  Elec       q    Type
REMARK                         _______ _______ _______ _____ _____    ______ ____
ROOT
ATOM      1  N   UNL     1      47.086   3.251  14.204  0.00  0.00    +0.000 N 
ATOM      2  H   UNL     1      47.780   2.830  13.589  0.00  0.00    +0.000 HD
ENDROOT
BRANCH   1   6
ATOM      3  C   UNL     1      48.616   3.869  17.973  0.00  0.00    +0.000 A 
ATOM      4  C   UNL     1      49.097   2.842  17.178  0.00  0.00    +0.000 A 
ATOM      5  N   UNL     1      48.616   2.595  15.928  0.00  0.00    +0.000 NA
ATOM      6  C   UNL     1      47.626   3.404  15.491  0.00  0.00    +0.000 A 
ATOM      7  C   UNL     1      47.157   4.440  16.313  0.00  0.00    +0.000 A 
ATOM      8  N   UNL     1      47.620   4.702  17.563  0.00  0.00    +0.000 NA
BRANCH   3  10
ATOM      9  N   UNL     1      48.423   3.702  20.380  0.00  0.00    +0.000 N 
ATOM     10  C   UNL     1      49.195   4.104  19.325  0.00  0.00    +0.000 C 
ATOM     11  O   UNL     1      50.292   4.625  19.484  0.00  0.00    +0.000 OA
ATOM     12  H   UNL     1      48.754   3.846  21.324  0.00  0.00    +0.000 HD
ATOM     13  H   UNL     1      47.516   3.281  20.212  0.00  0.00    +0.000 HD
ENDBRANCH   3  10
ENDBRANCH   1   6
BRANCH   1  14
ATOM     14  C   UNL     1      46.529   4.471  13.623  0.00  0.00    +0.000 C 
BRANCH  14  15
ATOM     15  C   UNL     1      45.428   4.147  12.643  0.00  0.00    +0.000 A 
ATOM     16  C   UNL     1      44.100   4.248  13.040  0.00  0.00    +0.000 A 
ATOM     17  N   UNL     1      43.052   3.975  12.241  0.00  0.00    +0.000 NA
ATOM     18  C   UNL     1      43.342   3.568  10.979  0.00  0.00    +0.000 A 
ATOM     19  C   UNL     1      44.623   3.393  10.448  0.00  0.00    +0.000 A 
ATOM     20  C   UNL     1      45.668   3.684  11.336  0.00  0.00    +0.000 A 
BRANCH  19  21
ATOM     21  N   UNL     1      44.856   2.972   9.157  0.00  0.00    +0.000 N 
ATOM     22  C   UNL     1      45.048   1.561   8.792  0.00  0.00    +0.000 C 
ATOM     23  C   UNL     1      46.385   1.384   8.056  0.00  0.00    +0.000 C 
ATOM     24  O   UNL     1      46.474   2.258   6.918  0.00  0.00    +0.000 OA
ATOM     25  C   UNL     1      46.364   3.631   7.332  0.00  0.00    +0.000 C 
ATOM     26  C   UNL     1      45.024   3.911   8.038  0.00  0.00    +0.000 C 
ENDBRANCH  19  21
ENDBRANCH  14  15
ENDBRANCH   1  14
TORSDOF 5
ENDMDL
MODEL 5
REMARK VINA RESULT:    -6.636      4.553      7.982
REMARK INTER + INTRA:          -9.194
REMARK INTER:                  -8.622
REMARK INTRA:                  -0.572
REMARK UNBOUND:                -0.618
REMARK  Name = 
REMARK  5 active torsions:
REMARK  status: ('A' for Active; 'I' for Inactive)
REMARK    1  A    between atoms: C_2  and  C_4
REMARK    2  A    between atoms: C_7  and  N_8
REMARK    3  A    between atoms: N_8  and  C_9
REMARK    4  A    between atoms: C_9  and  C_10
REMARK    5  A    between atoms: C_14  and  N_15
REMARK                            x       y       z     vdW  Elec       q    Type
REMARK                         _______ _______ _______ _____ _____    ______ ____
ROOT
ATOM      1  N   UNL     1      48.186   5.377  16.582  0.00  0.00    +0.000 N 
ATOM      2  H   UNL     1      47.310   4.968  16.264  0.00  0.00    +0.000 HD
ENDROOT
BRANCH   1   6
ATOM      3  C   UNL     1      51.012   2.504  17.411  0.00  0.00    +0.000 A 
ATOM      4  C   UNL     1      49.763   2.145  16.932  0.00  0.00    +0.000 A 
ATOM      5  N   UNL     1      48.794   3.061  16.651  0.00  0.00    +0.000 NA
ATOM      6  C   UNL     1      49.106   4.356  16.871  0.00  0.00    +0.000 A 
ATOM      7  C   UNL     1      50.379   4.696  17.354  0.00  0.00    +0.000 A 
ATOM      8  N   UNL     1      51.358   3.800  17.643  0.00  0.00    +0.000 NA
BRANCH   3  10
ATOM      9  N   UNL     1      51.558   0.238  18.064  0.00  0.00    +0.000 N 
ATOM     10  C   UNL     1      52.039   1.460  17.681  0.00  0.00    +0.000 C 
ATOM     11  O   UNL     1      53.239   1.679  17.570  0.00  0.00    +0.000 OA
ATOM     12  H   UNL     1      52.203  -0.509  18.275  0.00  0.00    +0.000 HD
ATOM     13  H   UNL     1      50.558   0.094  18.153  0.00  0.00    +0.000 HD
ENDBRANCH   3  10
ENDBRANCH   1   6
BRANCH   1  14
ATOM     14  C   UNL     1      48.670   6.393  15.649  0.00  0.00    +0.000 C 
BRANCH  14  15
ATOM     15  C   UNL     1      47.944   6.303  14.329  0.00  0.00    +0.000 A 
ATOM     16  C   UNL     1      48.376   7.069  13.253  0.00  0.00    +0.000 A 
ATOM     17  N   UNL     1      47.790   7.062  12.040  0.00  0.00    +0.000 NA
ATOM     18  C   UNL     1      46.708   6.256  11.895  0.00  0.00    +0.000 A 
ATOM     19  C   UNL     1      46.144   5.454  12.891  0.00  0.00    +0.000 A 
ATOM     20  C   UNL     1      46.795   5.517  14.131  0.00  0.00    +0.000 A 
BRANCH  19  21
ATOM     21  N   UNL     1      45.038   4.657  12.684  0.00  0.00    +0.000 N 
ATOM     22  C   UNL     1      45.121   3.284  12.165  0.00  0.00    +0.000 C 
ATOM     23  C   UNL     1      44.250   3.143  10.908  0.00  0.00    +0.000 C 
ATOM     24  O   UNL     1      42.894   3.547  11.163  0.00  0.00    +0.000 OA
ATOM     25  C   UNL     1      42.855   4.921  11.587  0.00  0.00    +0.000 C 
ATOM     26  C   UNL     1      43.665   5.145  12.878  0.00  0.00    +0.000 C 
ENDBRANCH  19  21
ENDBRANCH  14  15
ENDBRANCH   1  14
TORSDOF 5
ENDMDL
MODEL 6
REMARK VINA RESULT:    -6.312      5.159      6.841
REMARK INTER + INTRA:          -8.775
REMARK INTER:                  -8.254
REMARK INTRA:                  -0.521
REMARK UNBOUND:                -0.618
REMARK  Name = 
REMARK  5 active torsions:
REMARK  status: ('A' for Active; 'I' for Inactive)
REMARK    1  A    between atoms: C_2  and  C_4
REMARK    2  A    between atoms: C_7  and  N_8
REMARK    3  A    between atoms: N_8  and  C_9
REMARK    4  A    between atoms: C_9  and  C_10
REMARK    5  A    between atoms: C_14  and  N_15
REMARK                            x       y       z     vdW  Elec       q    Type
REMARK                         _______ _______ _______ _____ _____    ______ ____
ROOT
ATOM      1  N   UNL     1      47.164   5.059  15.164  0.00  0.00    +0.000 N 
ATOM      2  H   UNL     1      48.135   5.232  14.912  0.00  0.00    +0.000 HD
ENDROOT
BRANCH   1   6
ATOM      3  C   UNL     1      44.927   4.178  11.826  0.00  0.00    +0.000 A 
ATOM      4  C   UNL     1      45.592   3.175  12.513  0.00  0.00    +0.000 A 
ATOM      5  N   UNL     1      46.350   3.421  13.618  0.00  0.00    +0.000 NA
ATOM      6  C   UNL     1      46.433   4.708  14.018  0.00  0.00    +0.000 A 
ATOM      7  C   UNL     1      45.749   5.707  13.308  0.00  0.00    +0.000 A 
ATOM      8  N   UNL     1      44.991   5.484  12.203  0.00  0.00    +0.000 NA
BRANCH   3  10
ATOM      9  N   UNL     1      43.834   4.885   9.785  0.00  0.00    +0.000 N 
ATOM     10  C   UNL     1      44.097   3.845  10.636  0.00  0.00    +0.000 C 
ATOM     11  O   UNL     1      43.672   2.715  10.429  0.00  0.00    +0.000 OA
ATOM     12  H   UNL     1      43.265   4.728   8.966  0.00  0.00    +0.000 HD
ATOM     13  H   UNL     1      44.195   5.810   9.991  0.00  0.00    +0.000 HD
ENDBRANCH   3  10
ENDBRANCH   1   6
BRANCH   1  14
ATOM     14  C   UNL     1      47.061   4.112  16.273  0.00  0.00    +0.000 C 
BRANCH  14  15
ATOM     15  C   UNL     1      48.420   3.575  16.651  0.00  0.00    +0.000 A 
ATOM     16  C   UNL     1      48.755   2.264  16.333  0.00  0.00    +0.000 A 
ATOM     17  N   UNL     1      49.937   1.695  16.635  0.00  0.00    +0.000 NA
ATOM     18  C   UNL     1      50.831   2.470  17.300  0.00  0.00    +0.000 A 
ATOM     19  C   UNL     1      50.626   3.790  17.710  0.00  0.00    +0.000 A 
ATOM     20  C   UNL     1      49.371   4.318  17.374  0.00  0.00    +0.000 A 
BRANCH  19  21
ATOM     21  N   UNL     1      51.572   4.528  18.388  0.00  0.00    +0.000 N 
ATOM     22  C   UNL     1      52.726   5.158  17.729  0.00  0.00    +0.000 C 
ATOM     23  C   UNL     1      54.031   4.687  18.388  0.00  0.00    +0.000 C 
ATOM     24  O   UNL     1      54.016   4.926  19.805  0.00  0.00    +0.000 OA
ATOM     25  C   UNL     1      52.921   4.223  20.419  0.00  0.00    +0.000 C 
ATOM     26  C   UNL     1      51.562   4.673  19.851  0.00  0.00    +0.000 C 
ENDBRANCH  19  21
ENDBRANCH  14  15
ENDBRANCH   1  14
TORSDOF 5
ENDMDL
MODEL 7
REMARK VINA RESULT:    -6.292      3.299      7.659
REMARK INTER + INTRA:          -8.749
REMARK INTER:                  -8.323
REMARK INTRA:                  -0.426
REMARK UNBOUND:                -0.618
REMARK  Name = 
REMARK  5 active torsions:
REMARK  status: ('A' for Active; 'I' for Inactive)
REMARK    1  A    between atoms: C_2  and  C_4
REMARK    2  A    between atoms: C_7  and  N_8
REMARK    3  A    between atoms: N_8  and  C_9
REMARK    4  A    between atoms: C_9  and  C_10
REMARK    5  A    between atoms: C_14  and  N_15
REMARK                            x       y       z     vdW  Elec       q    Type
REMARK                         _______ _______ _______ _____ _____    ______ ____
ROOT
ATOM      1  N   UNL     1      48.743   7.507  14.008  0.00  0.00    +0.000 N 
ATOM      2  H   UNL     1      48.149   8.322  14.152  0.00  0.00    +0.000 HD
ENDROOT
BRANCH   1   6
ATOM      3  C   UNL     1      48.255   4.855  17.115  0.00  0.00    +0.000 A 
ATOM      4  C   UNL     1      47.735   4.574  15.862  0.00  0.00    +0.000 A 
ATOM      5  N   UNL     1      47.866   5.426  14.806  0.00  0.00    +0.000 NA
ATOM      6  C   UNL     1      48.528   6.579  15.039  0.00  0.00    +0.000 A 
ATOM      7  C   UNL     1      49.049   6.840  16.316  0.00  0.00    +0.000 A 
ATOM      8  N   UNL     1      48.928   6.008  17.382  0.00  0.00    +0.000 NA
BRANCH   3  10
ATOM      9  N   UNL     1      47.209   2.862  18.004  0.00  0.00    +0.000 N 
ATOM     10  C   UNL     1      48.100   3.876  18.226  0.00  0.00    +0.000 C 
ATOM     11  O   UNL     1      48.727   3.971  19.274  0.00  0.00    +0.000 OA
ATOM     12  H   UNL     1      47.047   2.173  18.724  0.00  0.00    +0.000 HD
ATOM     13  H   UNL     1      46.700   2.818  17.128  0.00  0.00    +0.000 HD
ENDBRANCH   3  10
ENDBRANCH   1   6
BRANCH   1  14
ATOM     14  C   UNL     1      48.591   6.970  12.657  0.00  0.00    +0.000 C 
BRANCH  14  15
ATOM     15  C   UNL     1      47.164   7.095  12.183  0.00  0.00    +0.000 A 
ATOM     16  C   UNL     1      46.506   8.314  12.294  0.00  0.00    +0.000 A 
ATOM     17  N   UNL     1      45.233   8.522  11.906  0.00  0.00    +0.000 NA
ATOM     18  C   UNL     1      44.576   7.453  11.390  0.00  0.00    +0.000 A 
ATOM     19  C   UNL     1      45.095   6.163  11.243  0.00  0.00    +0.000 A 
ATOM     20  C   UNL     1      46.420   6.014  11.676  0.00  0.00    +0.000 A 
BRANCH  19  21
ATOM     21  N   UNL     1      44.375   5.114  10.714  0.00  0.00    +0.000 N 
ATOM     22  C   UNL     1      43.195   4.534  11.371  0.00  0.00    +0.000 C 
ATOM     23  C   UNL     1      43.392   3.025  11.573  0.00  0.00    +0.000 C 
ATOM     24  O   UNL     1      43.702   2.368  10.332  0.00  0.00    +0.000 OA
ATOM     25  C   UNL     1      44.909   2.910   9.768  0.00  0.00    +0.000 C 
ATOM     26  C   UNL     1      44.781   4.418   9.483  0.00  0.00    +0.000 C 
ENDBRANCH  19  21
ENDBRANCH  14  15
ENDBRANCH   1  14
TORSDOF 5
ENDMDL
MODEL 8
REMARK VINA RESULT:    -6.050      3.741      5.801
REMARK INTER + INTRA:          -8.436
REMARK INTER:                  -7.871
REMARK INTRA:                  -0.565
REMARK UNBOUND:                -0.618
REMARK  Name = 
REMARK  5 active torsions:
REMARK  status: ('A' for Active; 'I' for Inactive)
REMARK    1  A    between atoms: C_2  and  C_4
REMARK    2  A    between atoms: C_7  and  N_8
REMARK    3  A    between atoms: N_8  and  C_9
REMARK    4  A    between atoms: C_9  and  C_10
REMARK    5  A    between atoms: C_14  and  N_15
REMARK                            x       y       z     vdW  Elec       q    Type
REMARK                         _______ _______ _______ _____ _____    ______ ____
ROOT
ATOM      1  N   UNL     1      46.434   7.295  13.324  0.00  0.00    +0.000 N 
ATOM      2  H   UNL     1      45.865   8.132  13.210  0.00  0.00    +0.000 HD
ENDROOT
BRANCH   1   6
ATOM      3  C   UNL     1      44.674   3.993  11.614  0.00  0.00    +0.000 A 
ATOM      4  C   UNL     1      44.672   5.212  10.955  0.00  0.00    +0.000 A 
ATOM      5  N   UNL     1      45.235   6.333  11.486  0.00  0.00    +0.000 NA
ATOM      6  C   UNL     1      45.800   6.205  12.706  0.00  0.00    +0.000 A 
ATOM      7  C   UNL     1      45.793   4.959  13.353  0.00  0.00    +0.000 A 
ATOM      8  N   UNL     1      45.234   3.831  12.843  0.00  0.00    +0.000 NA
BRANCH   3  10
ATOM      9  N   UNL     1      44.726   2.295   9.889  0.00  0.00    +0.000 N 
ATOM     10  C   UNL     1      44.061   2.796  10.975  0.00  0.00    +0.000 C 
ATOM     11  O   UNL     1      43.026   2.291  11.391  0.00  0.00    +0.000 OA
ATOM     12  H   UNL     1      44.354   1.493   9.402  0.00  0.00    +0.000 HD
ATOM     13  H   UNL     1      45.576   2.743   9.566  0.00  0.00    +0.000 HD
ENDBRANCH   3  10
ENDBRANCH   1   6
BRANCH   1  14
ATOM     14  C   UNL     1      47.813   7.526  12.895  0.00  0.00    +0.000 C 
BRANCH  14  15
ATOM     15  C   UNL     1      48.774   7.333  14.043  0.00  0.00    +0.000 A 
ATOM     16  C   UNL     1      49.973   8.036  14.062  0.00  0.00    +0.000 A 
ATOM     17  N   UNL     1      50.895   7.926  15.037  0.00  0.00    +0.000 NA
ATOM     18  C   UNL     1      50.612   7.060  16.043  0.00  0.00    +0.000 A 
ATOM     19  C   UNL     1      49.465   6.267  16.145  0.00  0.00    +0.000 A 
ATOM     20  C   UNL     1      48.553   6.422  15.092  0.00  0.00    +0.000 A 
BRANCH  19  21
ATOM     21  N   UNL     1      49.235   5.401  17.192  0.00  0.00    +0.000 N 
ATOM     22  C   UNL     1      50.266   4.506  17.738  0.00  0.00    +0.000 C 
ATOM     23  C   UNL     1      49.775   3.052  17.702  0.00  0.00    +0.000 C 
ATOM     24  O   UNL     1      48.515   2.909  18.380  0.00  0.00    +0.000 OA
ATOM     25  C   UNL     1      47.517   3.738  17.759  0.00  0.00    +0.000 C 
ATOM     26  C   UNL     1      47.906   5.228  17.797  0.00  0.00    +0.000 C 
ENDBRANCH  19  21
ENDBRANCH  14  15
ENDBRANCH   1  14
TORSDOF 5
ENDMDL
MODEL 9
REMARK VINA RESULT:    -5.943      4.117      8.500
REMARK INTER + INTRA:          -8.299
REMARK INTER:                  -7.839
REMARK INTRA:                  -0.460
REMARK UNBOUND:                -0.618
REMARK  Name = 
REMARK  5 active torsions:
REMARK  status: ('A' for Active; 'I' for Inactive)
REMARK    1  A    between atoms: C_2  and  C_4
REMARK    2  A    between atoms: C_7  and  N_8
REMARK    3  A    between atoms: N_8  and  C_9
REMARK    4  A    between atoms: C_9  and  C_10
REMARK    5  A    between atoms: C_14  and  N_15
REMARK                            x       y       z     vdW  Elec       q    Type
REMARK                         _______ _______ _______ _____ _____    ______ ____
ROOT
ATOM      1  N   UNL     1      47.530   5.454  15.083  0.00  0.00    +0.000 N 
ATOM      2  H   UNL     1      47.526   4.530  14.657  0.00  0.00    +0.000 HD
ENDROOT
BRANCH   1   6
ATOM      3  C   UNL     1      49.627   5.386  18.623  0.00  0.00    +0.000 A 
ATOM      4  C   UNL     1      50.231   5.823  17.455  0.00  0.00    +0.000 A 
ATOM      5  N   UNL     1      49.578   5.856  16.259  0.00  0.00    +0.000 NA
ATOM      6  C   UNL     1      48.297   5.429  16.259  0.00  0.00    +0.000 A 
ATOM      7  C   UNL     1      47.705   4.993  17.455  0.00  0.00    +0.000 A 
ATOM      8  N   UNL     1      48.338   4.950  18.656  0.00  0.00    +0.000 NA
BRANCH   3  10
ATOM      9  N   UNL     1      50.076   4.389  20.782  0.00  0.00    +0.000 N 
ATOM     10  C   UNL     1      50.384   5.392  19.905  0.00  0.00    +0.000 C 
ATOM     11  O   UNL     1      51.229   6.241  20.161  0.00  0.00    +0.000 OA
ATOM     12  H   UNL     1      50.544   4.345  21.675  0.00  0.00    +0.000 HD
ATOM     13  H   UNL     1      49.366   3.706  20.540  0.00  0.00    +0.000 HD
ENDBRANCH   3  10
ENDBRANCH   1   6
BRANCH   1  14
ATOM     14  C   UNL     1      47.917   6.483  14.120  0.00  0.00    +0.000 C 
BRANCH  14  15
ATOM     15  C   UNL     1      46.800   6.754  13.141  0.00  0.00    +0.000 A 
ATOM     16  C   UNL     1      46.426   8.064  12.868  0.00  0.00    +0.000 A 
ATOM     17  N   UNL     1      45.439   8.404  12.018  0.00  0.00    +0.000 NA
ATOM     18  C   UNL     1      44.781   7.382  11.415  0.00  0.00    +0.000 A 
ATOM     19  C   UNL     1      45.024   6.020  11.611  0.00  0.00    +0.000 A 
ATOM     20  C   UNL     1      46.056   5.736  12.517  0.00  0.00    +0.000 A 
BRANCH  19  21
ATOM     21  N   UNL     1      44.317   5.025  10.971  0.00  0.00    +0.000 N 
ATOM     22  C   UNL     1      43.115   4.398  11.540  0.00  0.00    +0.000 C 
ATOM     23  C   UNL     1      43.300   2.876  11.616  0.00  0.00    +0.000 C 
ATOM     24  O   UNL     1      43.645   2.326  10.333  0.00  0.00    +0.000 OA
ATOM     25  C   UNL     1      44.871   2.907   9.855  0.00  0.00    +0.000 C 
ATOM     26  C   UNL     1      44.758   4.436   9.698  0.00  0.00    +0.000 C 
ENDBRANCH  19  21
ENDBRANCH  14  15
ENDBRANCH   1  14
TORSDOF 5
ENDMDL
