MODEL 1
REMARK VINA RESULT:    -7.633      0.000      0.000
REMARK INTER + INTRA:          -9.582
REMARK INTER:                  -9.195
REMARK INTRA:                  -0.387
REMARK UNBOUND:                -0.387
REMARK  Name = 
REMARK  4 active torsions:
REMARK  status: ('A' for Active; 'I' for Inactive)
REMARK    1  A    between atoms: N_1  and  C_2
REMARK    2  A    between atoms: C_2  and  C_3
REMARK    3  A    between atoms: C_6  and  C_7
REMARK    4  A    between atoms: C_7  and  N_8
REMARK                            x       y       z     vdW  Elec       q    Type
REMARK                         _______ _______ _______ _____ _____    ______ ____
ROOT
ATOM      1  C   UNL     1      46.604   2.748   6.888  0.00  0.00    +0.000 A 
ATOM      2  C   UNL     1      46.184   4.030   7.272  0.00  0.00    +0.000 A 
ATOM      3  C   UNL     1      45.441   4.221   8.441  0.00  0.00    +0.000 A 
ATOM      4  C   UNL     1      45.101   3.131   9.255  0.00  0.00    +0.000 A 
ATOM      5  C   UNL     1      45.530   1.852   8.877  0.00  0.00    +0.000 A 
ATOM      6  C   UNL     1      46.274   1.661   7.707  0.00  0.00    +0.000 A 
ENDROOT
BRANCH   1   7
ATOM      7  C   UNL     1      47.335   2.537   5.584  0.00  0.00    +0.000 C 
BRANCH   7   8
ATOM      8  N   UNL     1      48.554   1.756   5.751  0.00  0.00    +0.000 NA
ATOM      9  H   UNL     1      48.747   1.658   6.746  0.00  0.00    +0.000 HD
ATOM     10  H   UNL     1      49.334   2.285   5.360  0.00  0.00    +0.000 HD
ENDBRANCH   7   8
ENDBRANCH   1   7
BRANCH   4  11
ATOM     11  C   UNL     1      44.265   3.317  10.499  0.00  0.00    +0.000 C 
BRANCH  11  12
ATOM     12  N   UNL     1      45.033   3.918  11.581  0.00  0.00    +0.000 N 
ATOM     13  C   UNL     1      45.734   3.222  12.538  0.00  0.00    +0.000 A 
ATOM     14  C   UNL     1      46.343   4.139  13.369  0.00  0.00    +0.000 A 
ATOM     15  C   UNL     1      45.985   5.436  12.915  0.00  0.00    +0.000 A 
ATOM     16  C   UNL     1      46.287   6.750  13.309  0.00  0.00    +0.000 A 
ATOM     17  C   UNL     1      45.714   7.792  12.581  0.00  0.00    +0.000 A 
ATOM     18  C   UNL     1      44.865   7.487  11.525  0.00  0.00    +0.000 A 
ATOM     19  N   UNL     1      44.539   6.244  11.105  0.00  0.00    +0.000 NA
ATOM     20  C   UNL     1      45.137   5.268  11.821  0.00  0.00    +0.000 A 
ENDBRANCH  11  12
ENDBRANCH   4  11
TORSDOF 4
ENDMDL
MODEL 2
REMARK VINA RESULT:    -7.592      0.961      2.478
REMARK INTER + INTRA:          -9.532
REMARK INTER:                  -9.114
REMARK INTRA:                  -0.419
REMARK UNBOUND:                -0.387
REMARK  Name = 
REMARK  4 active torsions:
REMARK  status: ('A' for Active; 'I' for Inactive)
REMARK    1  A    between atoms: N_1  and  C_2
REMARK    2  A    between atoms: C_2  and  C_3
REMARK    3  A    between atoms: C_6  and  C_7
REMARK    4  A    between atoms: C_7  and  N_8
REMARK                            x       y       z     vdW  Elec       q    Type
REMARK                         _______ _______ _______ _____ _____    ______ ____
ROOT
ATOM      1  C   UNL     1      46.452   2.389   7.547  0.00  0.00    +0.000 A 
ATOM      2  C   UNL     1      45.743   1.618   8.480  0.00  0.00    +0.000 A 
ATOM      3  C   UNL     1      44.919   2.224   9.433  0.00  0.00    +0.000 A 
ATOM      4  C   UNL     1      44.783   3.618   9.474  0.00  0.00    +0.000 A 
ATOM      5  C   UNL     1      45.481   4.388   8.535  0.00  0.00    +0.000 A 
ATOM      6  C   UNL     1      46.307   3.782   7.581  0.00  0.00    +0.000 A 
ENDROOT
BRANCH   1   7
ATOM      7  C   UNL     1      47.404   1.736   6.574  0.00  0.00    +0.000 C 
BRANCH   7   8
ATOM      8  N   UNL     1      48.602   2.537   6.349  0.00  0.00    +0.000 NA
ATOM      9  H   UNL     1      48.923   2.906   7.241  0.00  0.00    +0.000 HD
ATOM     10  H   UNL     1      48.349   3.344   5.780  0.00  0.00    +0.000 HD
ENDBRANCH   7   8
ENDBRANCH   1   7
BRANCH   4  11
ATOM     11  C   UNL     1      43.927   4.288  10.523  0.00  0.00    +0.000 C 
BRANCH  11  12
ATOM     12  N   UNL     1      44.706   5.188  11.362  0.00  0.00    +0.000 N 
ATOM     13  C   UNL     1      44.724   6.559  11.252  0.00  0.00    +0.000 A 
ATOM     14  C   UNL     1      45.560   7.053  12.232  0.00  0.00    +0.000 A 
ATOM     15  C   UNL     1      46.084   5.946  12.949  0.00  0.00    +0.000 A 
ATOM     16  C   UNL     1      46.949   5.785  14.044  0.00  0.00    +0.000 A 
ATOM     17  C   UNL     1      47.229   4.484  14.462  0.00  0.00    +0.000 A 
ATOM     18  C   UNL     1      46.663   3.420  13.773  0.00  0.00    +0.000 A 
ATOM     19  N   UNL     1      45.828   3.517  12.714  0.00  0.00    +0.000 NA
ATOM     20  C   UNL     1      45.564   4.793  12.361  0.00  0.00    +0.000 A 
ENDBRANCH  11  12
ENDBRANCH   4  11
TORSDOF 4
ENDMDL
MODEL 3
REMARK VINA RESULT:    -6.514      1.947      5.847
REMARK INTER + INTRA:          -8.234
REMARK INTER:                  -7.798
REMARK INTRA:                  -0.435
REMARK UNBOUND:                -0.387
REMARK  Name = 
REMARK  4 active torsions:
REMARK  status: ('A' for Active; 'I' for Inactive)
REMARK    1  A    between atoms: N_1  and  C_2
REMARK    2  A    between atoms: C_2  and  C_3
REMARK    3  A    between atoms: C_6  and  C_7
REMARK    4  A    between atoms: C_7  and  N_8
REMARK                            x       y       z     vdW  Elec       q    Type
REMARK                         _______ _______ _______ _____ _____    ______ ____
ROOT
ATOM      1  C   UNL     1      47.023   6.178  13.151  0.00  0.00    +0.000 A 
ATOM      2  C   UNL     1      46.879   6.895  11.954  0.00  0.00    +0.000 A 
ATOM      3  C   UNL     1      45.971   6.481  10.975  0.00  0.00    +0.000 A 
ATOM      4  C   UNL     1      45.184   5.337  11.171  0.00  0.00    +0.000 A 
ATOM      5  C   UNL     1      45.320   4.627  12.371  0.00  0.00    +0.000 A 
ATOM      6  C   UNL     1      46.229   5.042  13.352  0.00  0.00    +0.000 A 
ENDROOT
BRANCH   1   7
ATOM      7  C   UNL     1      48.062   6.582  14.169  0.00  0.00    +0.000 C 
BRANCH   7   8
ATOM      8  N   UNL     1      49.392   6.707  13.585  0.00  0.00    +0.000 NA
ATOM      9  H   UNL     1      49.992   7.207  14.237  0.00  0.00    +0.000 HD
ATOM     10  H   UNL     1      49.326   7.292  12.752  0.00  0.00    +0.000 HD
ENDBRANCH   7   8
ENDBRANCH   1   7
BRANCH   4  11
ATOM     11  C   UNL     1      44.229   4.855  10.105  0.00  0.00    +0.000 C 
BRANCH  11  12
ATOM     12  N   UNL     1      44.666   3.597   9.517  0.00  0.00    +0.000 N 
ATOM     13  C   UNL     1      44.224   2.349   9.890  0.00  0.00    +0.000 A 
ATOM     14  C   UNL     1      44.851   1.418   9.090  0.00  0.00    +0.000 A 
ATOM     15  C   UNL     1      45.719   2.120   8.212  0.00  0.00    +0.000 A 
ATOM     16  C   UNL     1      46.594   1.759   7.175  0.00  0.00    +0.000 A 
ATOM     17  C   UNL     1      47.295   2.780   6.534  0.00  0.00    +0.000 A 
ATOM     18  C   UNL     1      47.115   4.089   6.961  0.00  0.00    +0.000 A 
ATOM     19  N   UNL     1      46.290   4.492   7.953  0.00  0.00    +0.000 NA
ATOM     20  C   UNL     1      45.612   3.474   8.526  0.00  0.00    +0.000 A 
ENDBRANCH  11  12
ENDBRANCH   4  11
TORSDOF 4
ENDMDL
MODEL 4
REMARK VINA RESULT:    -6.248      2.201      5.932
REMARK INTER + INTRA:          -7.913
REMARK INTER:                  -7.523
REMARK INTRA:                  -0.390
REMARK UNBOUND:                -0.387
REMARK  Name = 
REMARK  4 active torsions:
REMARK  status: ('A' for Active; 'I' for Inactive)
REMARK    1  A    between atoms: N_1  and  C_2
REMARK    2  A    between atoms: C_2  and  C_3
REMARK    3  A    between atoms: C_6  and  C_7
REMARK    4  A    between atoms: C_7  and  N_8
REMARK                            x       y       z     vdW  Elec       q    Type
REMARK                         _______ _______ _______ _____ _____    ______ ____
ROOT
ATOM      1  C   UNL     1      48.278   7.039  13.236  0.00  0.00    +0.000 A 
ATOM      2  C   UNL     1      47.566   5.950  13.760  0.00  0.00    +0.000 A 
ATOM      3  C   UNL     1      46.274   5.655  13.314  0.00  0.00    +0.000 A 
ATOM      4  C   UNL     1      45.663   6.445  12.330  0.00  0.00    +0.000 A 
ATOM      5  C   UNL     1      46.378   7.526  11.798  0.00  0.00    +0.000 A 
ATOM      6  C   UNL     1      47.671   7.821  12.245  0.00  0.00    +0.000 A 
ENDROOT
BRANCH   1   7
ATOM      7  C   UNL     1      49.639   7.402  13.779  0.00  0.00    +0.000 C 
BRANCH   7   8
ATOM      8  N   UNL     1      49.944   6.703  15.021  0.00  0.00    +0.000 NA
ATOM      9  H   UNL     1      50.589   5.942  14.820  0.00  0.00    +0.000 HD
ATOM     10  H   UNL     1      49.089   6.269  15.367  0.00  0.00    +0.000 HD
ENDBRANCH   7   8
ENDBRANCH   1   7
BRANCH   4  11
ATOM     11  C   UNL     1      44.253   6.163  11.868  0.00  0.00    +0.000 C 
BRANCH  11  12
ATOM     12  N   UNL     1      44.087   4.776  11.457  0.00  0.00    +0.000 N 
ATOM     13  C   UNL     1      43.417   3.810  12.173  0.00  0.00    +0.000 A 
ATOM     14  C   UNL     1      43.459   2.638  11.448  0.00  0.00    +0.000 A 
ATOM     15  C   UNL     1      44.195   2.891  10.262  0.00  0.00    +0.000 A 
ATOM     16  C   UNL     1      44.565   2.136   9.136  0.00  0.00    +0.000 A 
ATOM     17  C   UNL     1      45.320   2.771   8.150  0.00  0.00    +0.000 A 
ATOM     18  C   UNL     1      45.685   4.098   8.334  0.00  0.00    +0.000 A 
ATOM     19  N   UNL     1      45.360   4.869   9.395  0.00  0.00    +0.000 NA
ATOM     20  C   UNL     1      44.607   4.222  10.310  0.00  0.00    +0.000 A 
ENDBRANCH  11  12
ENDBRANCH   4  11
TORSDOF 4
ENDMDL
MODEL 5
REMARK VINA RESULT:    -5.902      1.482      2.099
REMARK INTER + INTRA:          -7.497
REMARK INTER:                  -7.124
REMARK INTRA:                  -0.373
REMARK UNBOUND:                -0.387
REMARK  Name = 
REMARK  4 active torsions:
REMARK  status: ('A' for Active; 'I' for Inactive)
REMARK    1  A    between atoms: N_1  and  C_2
REMARK    2  A    between atoms: C_2  and  C_3
REMARK    3  A    between atoms: C_6  and  C_7
REMARK    4  A    between atoms: C_7  and  N_8
REMARK                            x       y       z     vdW  Elec       q    Type
REMARK                         _______ _______ _______ _____ _____    ______ ____
ROOT
ATOM      1  C   UNL     1      45.520   3.468   8.219  0.00  0.00    +0.000 A 
ATOM      2  C   UNL     1      45.903   4.751   8.636  0.00  0.00    +0.000 A 
ATOM      3  C   UNL     1      45.594   5.210   9.920  0.00  0.00    +0.000 A 
ATOM      4  C   UNL     1      44.893   4.394  10.819  0.00  0.00    +0.000 A 
ATOM      5  C   UNL     1      44.520   3.108  10.406  0.00  0.00    +0.000 A 
ATOM      6  C   UNL     1      44.830   2.649   9.121  0.00  0.00    +0.000 A 
ENDROOT
BRANCH   1   7
ATOM      7  C   UNL     1      45.783   3.008   6.806  0.00  0.00    +0.000 C 
BRANCH   7   8
ATOM      8  N   UNL     1      46.767   3.842   6.125  0.00  0.00    +0.000 NA
ATOM      9  H   UNL     1      47.607   3.892   6.697  0.00  0.00    +0.000 HD
ATOM     10  H   UNL     1      46.401   4.793   6.070  0.00  0.00    +0.000 HD
ENDBRANCH   7   8
ENDBRANCH   1   7
BRANCH   4  11
ATOM     11  C   UNL     1      44.517   4.891  12.195  0.00  0.00    +0.000 C 
BRANCH  11  12
ATOM     12  N   UNL     1      45.651   5.499  12.877  0.00  0.00    +0.000 N 
ATOM     13  C   UNL     1      46.581   4.821  13.631  0.00  0.00    +0.000 A 
ATOM     14  C   UNL     1      47.505   5.736  14.091  0.00  0.00    +0.000 A 
ATOM     15  C   UNL     1      47.113   7.017  13.618  0.00  0.00    +0.000 A 
ATOM     16  C   UNL     1      47.630   8.319  13.721  0.00  0.00    +0.000 A 
ATOM     17  C   UNL     1      46.926   9.347  13.095  0.00  0.00    +0.000 A 
ATOM     18  C   UNL     1      45.747   9.043  12.426  0.00  0.00    +0.000 A 
ATOM     19  N   UNL     1      45.204   7.811  12.298  0.00  0.00    +0.000 NA
ATOM     20  C   UNL     1      45.934   6.845  12.896  0.00  0.00    +0.000 A 
ENDBRANCH  11  12
ENDBRANCH   4  11
TORSDOF 4
ENDMDL
MODEL 6
REMARK VINA RESULT:    -5.651      2.557      3.987
REMARK INTER + INTRA:          -7.194
REMARK INTER:                  -6.727
REMARK INTRA:                  -0.467
REMARK UNBOUND:                -0.387
REMARK  Name = 
REMARK  4 active torsions:
REMARK  status: ('A' for Active; 'I' for Inactive)
REMARK    1  A    between atoms: N_1  and  C_2
REMARK    2  A    between atoms: C_2  and  C_3
REMARK    3  A    between atoms: C_6  and  C_7
REMARK    4  A    between atoms: C_7  and  N_8
REMARK                            x       y       z     vdW  Elec       q    Type
REMARK                         _______ _______ _______ _____ _____    ______ ____
ROOT
ATOM      1  C   UNL     1      44.881   3.288  10.143  0.00  0.00    +0.000 A 
ATOM      2  C   UNL     1      45.179   4.564   9.641  0.00  0.00    +0.000 A 
ATOM      3  C   UNL     1      45.477   5.623  10.505  0.00  0.00    +0.000 A 
ATOM      4  C   UNL     1      45.486   5.428  11.893  0.00  0.00    +0.000 A 
ATOM      5  C   UNL     1      45.201   4.151  12.394  0.00  0.00    +0.000 A 
ATOM      6  C   UNL     1      44.902   3.092  11.529  0.00  0.00    +0.000 A 
ENDROOT
BRANCH   1   7
ATOM      7  C   UNL     1      44.479   2.170   9.211  0.00  0.00    +0.000 C 
BRANCH   7   8
ATOM      8  N   UNL     1      45.616   1.355   8.800  0.00  0.00    +0.000 NA
ATOM      9  H   UNL     1      45.867   1.600   7.845  0.00  0.00    +0.000 HD
ATOM     10  H   UNL     1      45.323   0.379   8.778  0.00  0.00    +0.000 HD
ENDBRANCH   7   8
ENDBRANCH   1   7
BRANCH   4  11
ATOM     11  C   UNL     1      45.768   6.571  12.839  0.00  0.00    +0.000 C 
BRANCH  11  12
ATOM     12  N   UNL     1      47.060   7.187  12.572  0.00  0.00    +0.000 N 
ATOM     13  C   UNL     1      48.278   6.556  12.679  0.00  0.00    +0.000 A 
ATOM     14  C   UNL     1      49.258   7.460  12.324  0.00  0.00    +0.000 A 
ATOM     15  C   UNL     1      48.618   8.687  12.010  0.00  0.00    +0.000 A 
ATOM     16  C   UNL     1      49.045   9.952  11.573  0.00  0.00    +0.000 A 
ATOM     17  C   UNL     1      48.072  10.931  11.372  0.00  0.00    +0.000 A 
ATOM     18  C   UNL     1      46.744  10.620  11.632  0.00  0.00    +0.000 A 
ATOM     19  N   UNL     1      46.278   9.424  12.055  0.00  0.00    +0.000 NA
ATOM     20  C   UNL     1      47.251   8.500  12.209  0.00  0.00    +0.000 A 
ENDBRANCH  11  12
ENDBRANCH   4  11
TORSDOF 4
ENDMDL
MODEL 7
REMARK VINA RESULT:    -5.519      4.516      7.603
REMARK INTER + INTRA:          -7.035
REMARK INTER:                  -6.763
REMARK INTRA:                  -0.272
REMARK UNBOUND:                -0.387
REMARK  Name = 
REMARK  4 active torsions:
REMARK  status: ('A' for Active; 'I' for Inactive)
REMARK    1  A    between atoms: N_1  and  C_2
REMARK    2  A    between atoms: C_2  and  C_3
REMARK    3  A    between atoms: C_6  and  C_7
REMARK    4  A    between atoms: C_7  and  N_8
REMARK                            x       y       z     vdW  Elec       q    Type
REMARK                         _______ _______ _______ _____ _____    ______ ____
ROOT
ATOM      1  C   UNL     1      50.733   2.393  17.364  0.00  0.00    +0.000 A 
ATOM      2  C   UNL     1      50.525   3.720  17.769  0.00  0.00    +0.000 A 
ATOM      3  C   UNL     1      49.352   4.400  17.424  0.00  0.00    +0.000 A 
ATOM      4  C   UNL     1      48.359   3.765  16.665  0.00  0.00    +0.000 A 
ATOM      5  C   UNL     1      48.562   2.436  16.271  0.00  0.00    +0.000 A 
ATOM      6  C   UNL     1      49.735   1.757  16.616  0.00  0.00    +0.000 A 
ENDROOT
BRANCH   1   7
ATOM      7  C   UNL     1      52.035   1.692  17.669  0.00  0.00    +0.000 C 
BRANCH   7   8
ATOM      8  N   UNL     1      51.837   0.304  18.067  0.00  0.00    +0.000 NA
ATOM      9  H   UNL     1      50.839   0.132  18.175  0.00  0.00    +0.000 HD
ATOM     10  H   UNL     1      52.251   0.169  18.989  0.00  0.00    +0.000 HD
ENDBRANCH   7   8
ENDBRANCH   1   7
BRANCH   4  11
ATOM     11  C   UNL     1      47.105   4.499  16.252  0.00  0.00    +0.000 C 
BRANCH  11  12
ATOM     12  N   UNL     1      47.294   5.232  15.008  0.00  0.00    +0.000 N 
ATOM     13  C   UNL     1      48.256   6.191  14.790  0.00  0.00    +0.000 A 
ATOM     14  C   UNL     1      48.128   6.634  13.490  0.00  0.00    +0.000 A 
ATOM     15  C   UNL     1      47.040   5.937  12.903  0.00  0.00    +0.000 A 
ATOM     16  C   UNL     1      46.432   5.921  11.637  0.00  0.00    +0.000 A 
ATOM     17  C   UNL     1      45.344   5.068  11.452  0.00  0.00    +0.000 A 
ATOM     18  C   UNL     1      44.904   4.298  12.521  0.00  0.00    +0.000 A 
ATOM     19  N   UNL     1      45.449   4.277  13.758  0.00  0.00    +0.000 NA
ATOM     20  C   UNL     1      46.514   5.097  13.883  0.00  0.00    +0.000 A 
ENDBRANCH  11  12
ENDBRANCH   4  11
TORSDOF 4
ENDMDL
MODEL 8
REMARK VINA RESULT:    -5.334      3.208      5.292
REMARK INTER + INTRA:          -6.812
REMARK INTER:                  -6.550
REMARK INTRA:                  -0.262
REMARK UNBOUND:                -0.387
REMARK  Name = 
REMARK  4 active torsions:
REMARK  status: ('A' for Active; 'I' for Inactive)
REMARK    1  A    between atoms: N_1  and  C_2
REMARK    2  A    between atoms: C_2  and  C_3
REMARK    3  A    between atoms: C_6  and  C_7
REMARK    4  A    between atoms: C_7  and  N_8
REMARK                            x       y       z     vdW  Elec       q    Type
REMARK                         _______ _______ _______ _____ _____    ______ ____
ROOT
ATOM      1  C   UNL     1      44.880   3.907  11.215  0.00  0.00    +0.000 A 
ATOM      2  C   UNL     1      45.236   5.066  10.509  0.00  0.00    +0.000 A 
ATOM      3  C   UNL     1      45.940   6.099  11.134  0.00  0.00    +0.000 A 
ATOM      4  C   UNL     1      46.305   5.997  12.484  0.00  0.00    +0.000 A 
ATOM      5  C   UNL     1      45.960   4.835  13.186  0.00  0.00    +0.000 A 
ATOM      6  C   UNL     1      45.256   3.800  12.560  0.00  0.00    +0.000 A 
ENDROOT
BRANCH   1   7
ATOM      7  C   UNL     1      44.050   2.831  10.558  0.00  0.00    +0.000 C 
BRANCH   7   8
ATOM      8  N   UNL     1      43.189   2.137  11.509  0.00  0.00    +0.000 NA
ATOM      9  H   UNL     1      42.914   2.789  12.240  0.00  0.00    +0.000 HD
ATOM     10  H   UNL     1      43.735   1.408  11.967  0.00  0.00    +0.000 HD
ENDBRANCH   7   8
ENDBRANCH   1   7
BRANCH   4  11
ATOM     11  C   UNL     1      47.031   7.122  13.183  0.00  0.00    +0.000 C 
BRANCH  11  12
ATOM     12  N   UNL     1      46.650   8.423  12.651  0.00  0.00    +0.000 N 
ATOM     13  C   UNL     1      45.382   8.955  12.687  0.00  0.00    +0.000 A 
ATOM     14  C   UNL     1      45.429  10.206  12.107  0.00  0.00    +0.000 A 
ATOM     15  C   UNL     1      46.765  10.435  11.687  0.00  0.00    +0.000 A 
ATOM     16  C   UNL     1      47.448  11.493  11.066  0.00  0.00    +0.000 A 
ATOM     17  C   UNL     1      48.808  11.325  10.809  0.00  0.00    +0.000 A 
ATOM     18  C   UNL     1      49.413  10.124  11.155  0.00  0.00    +0.000 A 
ATOM     19  N   UNL     1      48.806   9.073  11.750  0.00  0.00    +0.000 NA
ATOM     20  C   UNL     1      47.497   9.292  12.005  0.00  0.00    +0.000 A 
ENDBRANCH  11  12
ENDBRANCH   4  11
TORSDOF 4
ENDMDL
MODEL 9
REMARK VINA RESULT:    -5.231      4.387      6.371
REMARK INTER + INTRA:          -6.688
REMARK INTER:                  -6.201
REMARK INTRA:                  -0.487
REMARK UNBOUND:                -0.387
REMARK  Name = 
REMARK  4 active torsions:
REMARK  status: ('A' for Active; 'I' for Inactive)
REMARK    1  A    between atoms: N_1  and  C_2
REMARK    2  A    between atoms: C_2  and  C_3
REMARK    3  A    between atoms: C_6  and  C_7
REMARK    4  A    between atoms: C_7  and  N_8
REMARK                            x       y       z     vdW  Elec       q    Type
REMARK                         _______ _______ _______ _____ _____    ______ ____
ROOT
ATOM      1  C   UNL     1      44.336   5.597  11.988  0.00  0.00    +0.000 A 
ATOM      2  C   UNL     1      44.968   4.873  13.010  0.00  0.00    +0.000 A 
ATOM      3  C   UNL     1      46.278   5.173  13.398  0.00  0.00    +0.000 A 
ATOM      4  C   UNL     1      46.987   6.207  12.771  0.00  0.00    +0.000 A 
ATOM      5  C   UNL     1      46.352   6.938  11.758  0.00  0.00    +0.000 A 
ATOM      6  C   UNL     1      45.041   6.637  11.370  0.00  0.00    +0.000 A 
ENDROOT
BRANCH   1   7
ATOM      7  C   UNL     1      42.954   5.215  11.517  0.00  0.00    +0.000 C 
BRANCH   7   8
ATOM      8  N   UNL     1      41.981   6.280  11.734  0.00  0.00    +0.000 NA
ATOM      9  H   UNL     1      41.167   6.105  11.149  0.00  0.00    +0.000 HD
ATOM     10  H   UNL     1      42.385   7.158  11.409  0.00  0.00    +0.000 HD
ENDBRANCH   7   8
ENDBRANCH   1   7
BRANCH   4  11
ATOM     11  C   UNL     1      48.415   6.517  13.152  0.00  0.00    +0.000 C 
BRANCH  11  12
ATOM     12  N   UNL     1      48.490   7.302  14.376  0.00  0.00    +0.000 N 
ATOM     13  C   UNL     1      48.361   8.670  14.451  0.00  0.00    +0.000 A 
ATOM     14  C   UNL     1      48.468   9.035  15.776  0.00  0.00    +0.000 A 
ATOM     15  C   UNL     1      48.689   7.854  16.532  0.00  0.00    +0.000 A 
ATOM     16  C   UNL     1      48.856   7.558  17.894  0.00  0.00    +0.000 A 
ATOM     17  C   UNL     1      49.060   6.224  18.247  0.00  0.00    +0.000 A 
ATOM     18  C   UNL     1      49.109   5.264  17.245  0.00  0.00    +0.000 A 
ATOM     19  N   UNL     1      48.957   5.492  15.921  0.00  0.00    +0.000 NA
ATOM     20  C   UNL     1      48.735   6.792  15.629  0.00  0.00    +0.000 A 
ENDBRANCH  11  12
ENDBRANCH   4  11
TORSDOF 4
ENDMDL
