MODEL 1
REMARK VINA RESULT:    -9.261      0.000      0.000
REMARK INTER + INTRA:         -13.480
REMARK INTER:                 -12.509
REMARK INTRA:                  -0.971
REMARK UNBOUND:                -0.971
REMARK  Name = 
REMARK  6 active torsions:
REMARK  status: ('A' for Active; 'I' for Inactive)
REMARK    1  A    between atoms: C_2  and  C_19
REMARK    2  A    between atoms: N_3  and  C_4
REMARK    3  A    between atoms: C_4  and  C_5
REMARK    4  A    between atoms: C_8  and  N_9
REMARK    5  A    between atoms: N_9  and  C_10
REMARK    6  A    between atoms: C_10  and  C_11
REMARK                            x       y       z     vdW  Elec       q    Type
REMARK                         _______ _______ _______ _____ _____    ______ ____
ROOT
ATOM      1  C   UNL     1      45.726   4.607  13.437  0.00  0.00    +0.000 C 
ENDROOT
BRANCH   1   2
ATOM      2  C   UNL     1      44.736   5.686  12.946  0.00  0.00    +0.000 C 
ATOM      3  C   UNL     1      45.141   6.332  11.612  0.00  0.00    +0.000 C 
ATOM      4  C   UNL     1      45.068   5.353  10.442  0.00  0.00    +0.000 C 
ATOM      5  C   UNL     1      43.661   4.752  10.274  0.00  0.00    +0.000 C 
ATOM      6  C   UNL     1      43.082   4.237  11.605  0.00  0.00    +0.000 C 
ATOM      7  C   UNL     1      43.308   5.141  12.814  0.00  0.00    +0.000 C 
BRANCH   5   8
ATOM      8  N   UNL     1      43.733   3.685   9.257  0.00  0.00    +0.000 NA
ATOM      9  H   UNL     1      43.968   4.094   8.352  0.00  0.00    +0.000 HD
BRANCH   8  10
ATOM     10  C   UNL     1      44.764   2.677   9.560  0.00  0.00    +0.000 C 
BRANCH  10  11
ATOM     11  C   UNL     1      45.701   2.419   8.396  0.00  0.00    +0.000 A 
ATOM     12  C   UNL     1      45.937   3.407   7.445  0.00  0.00    +0.000 A 
ATOM     13  C   UNL     1      46.772   3.118   6.369  0.00  0.00    +0.000 A 
ATOM     14  C   UNL     1      47.345   1.854   6.271  0.00  0.00    +0.000 A 
ATOM     15  C   UNL     1      47.068   0.931   7.265  0.00  0.00    +0.000 A 
ATOM     16  N   UNL     1      46.266   1.184   8.322  0.00  0.00    +0.000 NA
ENDBRANCH  10  11
ENDBRANCH   8  10
ENDBRANCH   5   8
ENDBRANCH   1   2
BRANCH   1  19
ATOM     17  O   UNL     1      47.589   3.024  14.942  0.00  0.00    +0.000 OA
ATOM     18  C   UNL     1      47.320   4.158  15.312  0.00  0.00    +0.000 C 
ATOM     19  N   UNL     1      46.436   4.989  14.647  0.00  0.00    +0.000 N 
ATOM     20  H   UNL     1      46.368   5.951  14.946  0.00  0.00    +0.000 HD
BRANCH  18  21
ATOM     21  C   UNL     1      47.875   4.753  16.535  0.00  0.00    +0.000 A 
ATOM     22  C   UNL     1      47.546   4.287  17.800  0.00  0.00    +0.000 A 
ATOM     23  S   UNL     1      48.354   5.105  19.060  0.00  0.00    +0.000 S 
ATOM     24  C   UNL     1      49.188   6.095  17.954  0.00  0.00    +0.000 A 
ATOM     25  N   UNL     1      50.072   7.032  18.391  0.00  0.00    +0.000 NA
ATOM     26  C   UNL     1      50.644   7.700  17.445  0.00  0.00    +0.000 A 
ATOM     27  N   UNL     1      50.404   7.521  16.108  0.00  0.00    +0.000 N 
ATOM     28  C   UNL     1      49.458   6.643  15.621  0.00  0.00    +0.000 A 
ATOM     29  O   UNL     1      49.155   6.635  14.429  0.00  0.00    +0.000 OA
ATOM     30  C   UNL     1      48.837   5.822  16.644  0.00  0.00    +0.000 A 
ATOM     31  H   UNL     1      50.847   8.112  15.420  0.00  0.00    +0.000 HD
ENDBRANCH  18  21
ENDBRANCH   1  19
TORSDOF 6
ENDMDL
MODEL 2
REMARK VINA RESULT:    -9.096      1.267      2.103
REMARK INTER + INTRA:         -13.257
REMARK INTER:                 -12.377
REMARK INTRA:                  -0.880
REMARK UNBOUND:                -0.971
REMARK  Name = 
REMARK  6 active torsions:
REMARK  status: ('A' for Active; 'I' for Inactive)
REMARK    1  A    between atoms: C_2  and  C_19
REMARK    2  A    between atoms: N_3  and  C_4
REMARK    3  A    between atoms: C_4  and  C_5
REMARK    4  A    between atoms: C_8  and  N_9
REMARK    5  A    between atoms: N_9  and  C_10
REMARK    6  A    between atoms: C_10  and  C_11
REMARK                            x       y       z     vdW  Elec       q    Type
REMARK                         _______ _______ _______ _____ _____    ______ ____
ROOT
ATOM      1  C   UNL     1      45.668   4.672  13.484  0.00  0.00    +0.000 C 
ENDROOT
BRANCH   1   2
ATOM      2  C   UNL     1      44.734   5.771  12.930  0.00  0.00    +0.000 C 
ATOM      3  C   UNL     1      45.201   6.357  11.589  0.00  0.00    +0.000 C 
ATOM      4  C   UNL     1      45.124   5.343  10.448  0.00  0.00    +0.000 C 
ATOM      5  C   UNL     1      43.700   4.790  10.259  0.00  0.00    +0.000 C 
ATOM      6  C   UNL     1      43.064   4.341  11.588  0.00  0.00    +0.000 C 
ATOM      7  C   UNL     1      43.290   5.274  12.773  0.00  0.00    +0.000 C 
BRANCH   5   8
ATOM      8  N   UNL     1      43.759   3.688   9.279  0.00  0.00    +0.000 NA
ATOM      9  H   UNL     1      43.951   4.069   8.351  0.00  0.00    +0.000 HD
BRANCH   8  10
ATOM     10  C   UNL     1      44.824   2.715   9.579  0.00  0.00    +0.000 C 
BRANCH  10  11
ATOM     11  C   UNL     1      45.729   2.441   8.392  0.00  0.00    +0.000 A 
ATOM     12  C   UNL     1      45.924   3.409   7.412  0.00  0.00    +0.000 A 
ATOM     13  C   UNL     1      46.729   3.105   6.318  0.00  0.00    +0.000 A 
ATOM     14  C   UNL     1      47.315   1.847   6.232  0.00  0.00    +0.000 A 
ATOM     15  C   UNL     1      47.081   0.944   7.255  0.00  0.00    +0.000 A 
ATOM     16  N   UNL     1      46.308   1.212   8.330  0.00  0.00    +0.000 NA
ENDBRANCH  10  11
ENDBRANCH   8  10
ENDBRANCH   5   8
ENDBRANCH   1   2
BRANCH   1  19
ATOM     17  O   UNL     1      48.328   5.744  13.343  0.00  0.00    +0.000 OA
ATOM     18  C   UNL     1      47.776   5.632  14.428  0.00  0.00    +0.000 C 
ATOM     19  N   UNL     1      46.498   5.128  14.587  0.00  0.00    +0.000 N 
ATOM     20  H   UNL     1      46.070   5.189  15.500  0.00  0.00    +0.000 HD
BRANCH  18  21
ATOM     21  C   UNL     1      48.429   5.981  15.697  0.00  0.00    +0.000 A 
ATOM     22  C   UNL     1      49.141   7.162  15.863  0.00  0.00    +0.000 A 
ATOM     23  S   UNL     1      49.764   7.366  17.437  0.00  0.00    +0.000 S 
ATOM     24  C   UNL     1      49.084   5.894  17.956  0.00  0.00    +0.000 A 
ATOM     25  N   UNL     1      49.241   5.470  19.239  0.00  0.00    +0.000 NA
ATOM     26  C   UNL     1      48.661   4.347  19.498  0.00  0.00    +0.000 A 
ATOM     27  N   UNL     1      47.949   3.607  18.591  0.00  0.00    +0.000 N 
ATOM     28  C   UNL     1      47.832   3.953  17.261  0.00  0.00    +0.000 A 
ATOM     29  O   UNL     1      47.331   3.180  16.446  0.00  0.00    +0.000 OA
ATOM     30  C   UNL     1      48.412   5.244  16.936  0.00  0.00    +0.000 A 
ATOM     31  H   UNL     1      47.562   2.711  18.845  0.00  0.00    +0.000 HD
ENDBRANCH  18  21
ENDBRANCH   1  19
TORSDOF 6
ENDMDL
MODEL 3
REMARK VINA RESULT:    -8.886      1.762      2.196
REMARK INTER + INTRA:         -12.974
REMARK INTER:                 -12.100
REMARK INTRA:                  -0.874
REMARK UNBOUND:                -0.971
REMARK  Name = 
REMARK  6 active torsions:
REMARK  status: ('A' for Active; 'I' for Inactive)
REMARK    1  A    between atoms: C_2  and  C_19
REMARK    2  A    between atoms: N_3  and  C_4
REMARK    3  A    between atoms: C_4  and  C_5
REMARK    4  A    between atoms: C_8  and  N_9
REMARK    5  A    between atoms: N_9  and  C_10
REMARK    6  A    between atoms: C_10  and  C_11
REMARK                            x       y       z     vdW  Elec       q    Type
REMARK                         _______ _______ _______ _____ _____    ______ ____
ROOT
ATOM      1  C   UNL     1      46.246   4.144  13.522  0.00  0.00    +0.000 C 
ENDROOT
BRANCH   1   2
ATOM      2  C   UNL     1      45.222   5.276  13.289  0.00  0.00    +0.000 C 
ATOM      3  C   UNL     1      45.494   6.102  12.022  0.00  0.00    +0.000 C 
ATOM      4  C   UNL     1      45.292   5.293  10.741  0.00  0.00    +0.000 C 
ATOM      5  C   UNL     1      43.869   4.715  10.639  0.00  0.00    +0.000 C 
ATOM      6  C   UNL     1      43.424   4.019  11.939  0.00  0.00    +0.000 C 
ATOM      7  C   UNL     1      43.782   4.748  13.230  0.00  0.00    +0.000 C 
BRANCH   5   8
ATOM      8  N   UNL     1      43.824   3.799   9.483  0.00  0.00    +0.000 NA
ATOM      9  H   UNL     1      44.149   4.290   8.648  0.00  0.00    +0.000 HD
BRANCH   8  10
ATOM     10  C   UNL     1      44.688   2.618   9.657  0.00  0.00    +0.000 C 
BRANCH  10  11
ATOM     11  C   UNL     1      45.634   2.398   8.492  0.00  0.00    +0.000 A 
ATOM     12  C   UNL     1      45.862   3.410   7.565  0.00  0.00    +0.000 A 
ATOM     13  C   UNL     1      46.706   3.155   6.487  0.00  0.00    +0.000 A 
ATOM     14  C   UNL     1      47.296   1.901   6.365  0.00  0.00    +0.000 A 
ATOM     15  C   UNL     1      47.027   0.953   7.337  0.00  0.00    +0.000 A 
ATOM     16  N   UNL     1      46.216   1.173   8.395  0.00  0.00    +0.000 NA
ENDBRANCH  10  11
ENDBRANCH   8  10
ENDBRANCH   5   8
ENDBRANCH   1   2
BRANCH   1  19
ATOM     17  O   UNL     1      46.394   3.674  16.350  0.00  0.00    +0.000 OA
ATOM     18  C   UNL     1      47.309   4.253  15.783  0.00  0.00    +0.000 C 
ATOM     19  N   UNL     1      47.320   4.520  14.425  0.00  0.00    +0.000 N 
ATOM     20  H   UNL     1      48.168   4.887  14.017  0.00  0.00    +0.000 HD
BRANCH  18  21
ATOM     21  C   UNL     1      48.487   4.774  16.491  0.00  0.00    +0.000 A 
ATOM     22  C   UNL     1      48.631   6.120  16.797  0.00  0.00    +0.000 A 
ATOM     23  S   UNL     1      50.057   6.473  17.664  0.00  0.00    +0.000 S 
ATOM     24  C   UNL     1      50.518   4.834  17.678  0.00  0.00    +0.000 A 
ATOM     25  N   UNL     1      51.670   4.442  18.286  0.00  0.00    +0.000 NA
ATOM     26  C   UNL     1      51.888   3.171  18.234  0.00  0.00    +0.000 A 
ATOM     27  N   UNL     1      51.065   2.261  17.622  0.00  0.00    +0.000 N 
ATOM     28  C   UNL     1      49.932   2.620  16.922  0.00  0.00    +0.000 A 
ATOM     29  O   UNL     1      49.317   1.796  16.247  0.00  0.00    +0.000 OA
ATOM     30  C   UNL     1      49.610   4.033  17.009  0.00  0.00    +0.000 A 
ATOM     31  H   UNL     1      51.319   1.286  17.572  0.00  0.00    +0.000 HD
ENDBRANCH  18  21
ENDBRANCH   1  19
TORSDOF 6
ENDMDL
MODEL 4
REMARK VINA RESULT:    -8.214      1.725      2.532
REMARK INTER + INTRA:         -12.067
REMARK INTER:                 -11.081
REMARK INTRA:                  -0.985
REMARK UNBOUND:                -0.971
REMARK  Name = 
REMARK  6 active torsions:
REMARK  status: ('A' for Active; 'I' for Inactive)
REMARK    1  A    between atoms: C_2  and  C_19
REMARK    2  A    between atoms: N_3  and  C_4
REMARK    3  A    between atoms: C_4  and  C_5
REMARK    4  A    between atoms: C_8  and  N_9
REMARK    5  A    between atoms: N_9  and  C_10
REMARK    6  A    between atoms: C_10  and  C_11
REMARK                            x       y       z     vdW  Elec       q    Type
REMARK                         _______ _______ _______ _____ _____    ______ ____
ROOT
ATOM      1  C   UNL     1      45.692   6.402  12.601  0.00  0.00    +0.000 C 
ENDROOT
BRANCH   1   2
ATOM      2  C   UNL     1      44.719   5.365  13.204  0.00  0.00    +0.000 C 
ATOM      3  C   UNL     1      43.290   5.464  12.647  0.00  0.00    +0.000 C 
ATOM      4  C   UNL     1      43.209   5.077  11.172  0.00  0.00    +0.000 C 
ATOM      5  C   UNL     1      43.724   3.650  10.916  0.00  0.00    +0.000 C 
ATOM      6  C   UNL     1      45.080   3.385  11.596  0.00  0.00    +0.000 C 
ATOM      7  C   UNL     1      45.221   3.927  13.016  0.00  0.00    +0.000 C 
BRANCH   5   8
ATOM      8  N   UNL     1      43.790   3.436   9.458  0.00  0.00    +0.000 NA
ATOM      9  H   UNL     1      42.929   3.773   9.026  0.00  0.00    +0.000 HD
BRANCH   8  10
ATOM     10  C   UNL     1      44.907   4.160   8.826  0.00  0.00    +0.000 C 
BRANCH  10  11
ATOM     11  C   UNL     1      45.785   3.267   7.970  0.00  0.00    +0.000 A 
ATOM     12  C   UNL     1      46.024   1.947   8.340  0.00  0.00    +0.000 A 
ATOM     13  C   UNL     1      46.869   1.171   7.550  0.00  0.00    +0.000 A 
ATOM     14  C   UNL     1      47.449   1.732   6.417  0.00  0.00    +0.000 A 
ATOM     15  C   UNL     1      47.150   3.050   6.113  0.00  0.00    +0.000 A 
ATOM     16  N   UNL     1      46.333   3.825   6.858  0.00  0.00    +0.000 NA
ENDBRANCH  10  11
ENDBRANCH   8  10
ENDBRANCH   5   8
ENDBRANCH   1   2
BRANCH   1  19
ATOM     17  O   UNL     1      48.490   5.861  12.942  0.00  0.00    +0.000 OA
ATOM     18  C   UNL     1      47.934   6.663  13.678  0.00  0.00    +0.000 C 
ATOM     19  N   UNL     1      46.591   6.983  13.583  0.00  0.00    +0.000 N 
ATOM     20  H   UNL     1      46.242   7.747  14.145  0.00  0.00    +0.000 HD
BRANCH  18  21
ATOM     21  C   UNL     1      48.622   7.347  14.782  0.00  0.00    +0.000 A 
ATOM     22  C   UNL     1      49.072   8.655  14.675  0.00  0.00    +0.000 A 
ATOM     23  S   UNL     1      49.795   9.246  16.103  0.00  0.00    +0.000 S 
ATOM     24  C   UNL     1      49.510   7.779  16.918  0.00  0.00    +0.000 A 
ATOM     25  N   UNL     1      49.887   7.621  18.215  0.00  0.00    +0.000 NA
ATOM     26  C   UNL     1      49.596   6.465  18.712  0.00  0.00    +0.000 A 
ATOM     27  N   UNL     1      48.972   5.455  18.028  0.00  0.00    +0.000 N 
ATOM     28  C   UNL     1      48.646   5.538  16.690  0.00  0.00    +0.000 A 
ATOM     29  O   UNL     1      48.245   4.553  16.073  0.00  0.00    +0.000 OA
ATOM     30  C   UNL     1      48.894   6.844  16.105  0.00  0.00    +0.000 A 
ATOM     31  H   UNL     1      48.819   4.556  18.460  0.00  0.00    +0.000 HD
ENDBRANCH  18  21
ENDBRANCH   1  19
TORSDOF 6
ENDMDL
MODEL 5
REMARK VINA RESULT:    -7.756      1.939      2.385
REMARK INTER + INTRA:         -11.448
REMARK INTER:                 -10.580
REMARK INTRA:                  -0.868
REMARK UNBOUND:                -0.971
REMARK  Name = 
REMARK  6 active torsions:
REMARK  status: ('A' for Active; 'I' for Inactive)
REMARK    1  A    between atoms: C_2  and  C_19
REMARK    2  A    between atoms: N_3  and  C_4
REMARK    3  A    between atoms: C_4  and  C_5
REMARK    4  A    between atoms: C_8  and  N_9
REMARK    5  A    between atoms: N_9  and  C_10
REMARK    6  A    between atoms: C_10  and  C_11
REMARK                            x       y       z     vdW  Elec       q    Type
REMARK                         _______ _______ _______ _____ _____    ______ ____
ROOT
ATOM      1  C   UNL     1      46.867   6.529  12.154  0.00  0.00    +0.000 C 
ENDROOT
BRANCH   1   2
ATOM      2  C   UNL     1      45.394   6.308  12.563  0.00  0.00    +0.000 C 
ATOM      3  C   UNL     1      44.434   6.195  11.370  0.00  0.00    +0.000 C 
ATOM      4  C   UNL     1      44.672   4.932  10.544  0.00  0.00    +0.000 C 
ATOM      5  C   UNL     1      44.537   3.652  11.389  0.00  0.00    +0.000 C 
ATOM      6  C   UNL     1      45.323   3.738  12.711  0.00  0.00    +0.000 C 
ATOM      7  C   UNL     1      45.223   5.068  13.451  0.00  0.00    +0.000 C 
BRANCH   5   8
ATOM      8  N   UNL     1      44.970   2.507  10.566  0.00  0.00    +0.000 NA
ATOM      9  H   UNL     1      44.590   1.644  10.957  0.00  0.00    +0.000 HD
BRANCH   8  10
ATOM     10  C   UNL     1      44.501   2.597   9.172  0.00  0.00    +0.000 C 
BRANCH  10  11
ATOM     11  C   UNL     1      45.607   2.383   8.157  0.00  0.00    +0.000 A 
ATOM     12  C   UNL     1      45.868   3.341   7.182  0.00  0.00    +0.000 A 
ATOM     13  C   UNL     1      46.865   3.089   6.244  0.00  0.00    +0.000 A 
ATOM     14  C   UNL     1      47.572   1.893   6.304  0.00  0.00    +0.000 A 
ATOM     15  C   UNL     1      47.259   0.998   7.313  0.00  0.00    +0.000 A 
ATOM     16  N   UNL     1      46.300   1.216   8.238  0.00  0.00    +0.000 NA
ENDBRANCH  10  11
ENDBRANCH   8  10
ENDBRANCH   5   8
ENDBRANCH   1   2
BRANCH   1  19
ATOM     17  O   UNL     1      47.605   8.525  14.081  0.00  0.00    +0.000 OA
ATOM     18  C   UNL     1      48.097   7.408  14.147  0.00  0.00    +0.000 C 
ATOM     19  N   UNL     1      47.798   6.388  13.261  0.00  0.00    +0.000 N 
ATOM     20  H   UNL     1      48.149   5.462  13.462  0.00  0.00    +0.000 HD
BRANCH  18  21
ATOM     21  C   UNL     1      49.102   7.034  15.152  0.00  0.00    +0.000 A 
ATOM     22  C   UNL     1      48.775   6.311  16.291  0.00  0.00    +0.000 A 
ATOM     23  S   UNL     1      50.118   5.956  17.280  0.00  0.00    +0.000 S 
ATOM     24  C   UNL     1      51.184   6.738  16.208  0.00  0.00    +0.000 A 
ATOM     25  N   UNL     1      52.518   6.789  16.468  0.00  0.00    +0.000 NA
ATOM     26  C   UNL     1      53.209   7.398  15.564  0.00  0.00    +0.000 A 
ATOM     27  N   UNL     1      52.687   7.968  14.432  0.00  0.00    +0.000 N 
ATOM     28  C   UNL     1      51.334   8.014  14.167  0.00  0.00    +0.000 A 
ATOM     29  O   UNL     1      50.895   8.680  13.231  0.00  0.00    +0.000 OA
ATOM     30  C   UNL     1      50.521   7.283  15.123  0.00  0.00    +0.000 A 
ATOM     31  H   UNL     1      53.276   8.474  13.790  0.00  0.00    +0.000 HD
ENDBRANCH  18  21
ENDBRANCH   1  19
TORSDOF 6
ENDMDL
MODEL 6
REMARK VINA RESULT:    -7.541      3.077      8.180
REMARK INTER + INTRA:         -11.157
REMARK INTER:                 -10.023
REMARK INTRA:                  -1.135
REMARK UNBOUND:                -0.971
REMARK  Name = 
REMARK  6 active torsions:
REMARK  status: ('A' for Active; 'I' for Inactive)
REMARK    1  A    between atoms: C_2  and  C_19
REMARK    2  A    between atoms: N_3  and  C_4
REMARK    3  A    between atoms: C_4  and  C_5
REMARK    4  A    between atoms: C_8  and  N_9
REMARK    5  A    between atoms: N_9  and  C_10
REMARK    6  A    between atoms: C_10  and  C_11
REMARK                            x       y       z     vdW  Elec       q    Type
REMARK                         _______ _______ _______ _____ _____    ______ ____
ROOT
ATOM      1  C   UNL     1      46.088   8.155  13.116  0.00  0.00    +0.000 C 
ENDROOT
BRANCH   1   2
ATOM      2  C   UNL     1      47.319   8.680  12.344  0.00  0.00    +0.000 C 
ATOM      3  C   UNL     1      48.224   9.597  13.180  0.00  0.00    +0.000 C 
ATOM      4  C   UNL     1      48.921   8.854  14.317  0.00  0.00    +0.000 C 
ATOM      5  C   UNL     1      49.773   7.678  13.806  0.00  0.00    +0.000 C 
ATOM      6  C   UNL     1      49.008   6.791  12.806  0.00  0.00    +0.000 C 
ATOM      7  C   UNL     1      48.170   7.538  11.773  0.00  0.00    +0.000 C 
BRANCH   5   8
ATOM      8  N   UNL     1      50.246   6.908  14.973  0.00  0.00    +0.000 NA
ATOM      9  H   UNL     1      51.053   7.378  15.386  0.00  0.00    +0.000 HD
BRANCH   8  10
ATOM     10  C   UNL     1      49.225   6.789  16.029  0.00  0.00    +0.000 C 
BRANCH  10  11
ATOM     11  C   UNL     1      48.972   5.354  16.450  0.00  0.00    +0.000 A 
ATOM     12  C   UNL     1      47.731   4.762  16.235  0.00  0.00    +0.000 A 
ATOM     13  C   UNL     1      47.525   3.456  16.672  0.00  0.00    +0.000 A 
ATOM     14  C   UNL     1      48.560   2.780  17.310  0.00  0.00    +0.000 A 
ATOM     15  C   UNL     1      49.768   3.436  17.475  0.00  0.00    +0.000 A 
ATOM     16  N   UNL     1      49.998   4.700  17.059  0.00  0.00    +0.000 NA
ENDBRANCH  10  11
ENDBRANCH   8  10
ENDBRANCH   5   8
ENDBRANCH   1   2
BRANCH   1  19
ATOM     17  O   UNL     1      44.041   7.545  11.196  0.00  0.00    +0.000 OA
ATOM     18  C   UNL     1      44.652   6.636  11.741  0.00  0.00    +0.000 C 
ATOM     19  N   UNL     1      45.653   6.840  12.675  0.00  0.00    +0.000 N 
ATOM     20  H   UNL     1      46.192   6.042  12.979  0.00  0.00    +0.000 HD
BRANCH  18  21
ATOM     21  C   UNL     1      44.361   5.217  11.496  0.00  0.00    +0.000 A 
ATOM     22  C   UNL     1      43.605   4.454  12.375  0.00  0.00    +0.000 A 
ATOM     23  S   UNL     1      43.362   2.850  11.850  0.00  0.00    +0.000 S 
ATOM     24  C   UNL     1      44.241   3.128  10.419  0.00  0.00    +0.000 A 
ATOM     25  N   UNL     1      44.406   2.138   9.502  0.00  0.00    +0.000 NA
ATOM     26  C   UNL     1      45.078   2.491   8.458  0.00  0.00    +0.000 A 
ATOM     27  N   UNL     1      45.607   3.739   8.255  0.00  0.00    +0.000 N 
ATOM     28  C   UNL     1      45.538   4.749   9.192  0.00  0.00    +0.000 A 
ATOM     29  O   UNL     1      46.169   5.795   9.044  0.00  0.00    +0.000 OA
ATOM     30  C   UNL     1      44.733   4.419  10.354  0.00  0.00    +0.000 A 
ATOM     31  H   UNL     1      46.167   3.936   7.440  0.00  0.00    +0.000 HD
ENDBRANCH  18  21
ENDBRANCH   1  19
TORSDOF 6
ENDMDL
MODEL 7
REMARK VINA RESULT:    -7.405      4.449      9.027
REMARK INTER + INTRA:         -10.974
REMARK INTER:                 -10.025
REMARK INTRA:                  -0.949
REMARK UNBOUND:                -0.971
REMARK  Name = 
REMARK  6 active torsions:
REMARK  status: ('A' for Active; 'I' for Inactive)
REMARK    1  A    between atoms: C_2  and  C_19
REMARK    2  A    between atoms: N_3  and  C_4
REMARK    3  A    between atoms: C_4  and  C_5
REMARK    4  A    between atoms: C_8  and  N_9
REMARK    5  A    between atoms: N_9  and  C_10
REMARK    6  A    between atoms: C_10  and  C_11
REMARK                            x       y       z     vdW  Elec       q    Type
REMARK                         _______ _______ _______ _____ _____    ______ ____
ROOT
ATOM      1  C   UNL     1      48.301   5.477  15.933  0.00  0.00    +0.000 C 
ENDROOT
BRANCH   1   2
ATOM      2  C   UNL     1      47.815   4.760  17.211  0.00  0.00    +0.000 C 
ATOM      3  C   UNL     1      47.423   3.292  16.982  0.00  0.00    +0.000 C 
ATOM      4  C   UNL     1      48.622   2.415  16.625  0.00  0.00    +0.000 C 
ATOM      5  C   UNL     1      49.714   2.454  17.709  0.00  0.00    +0.000 C 
ATOM      6  C   UNL     1      50.052   3.892  18.147  0.00  0.00    +0.000 C 
ATOM      7  C   UNL     1      48.856   4.820  18.337  0.00  0.00    +0.000 C 
BRANCH   5   8
ATOM      8  N   UNL     1      50.900   1.743  17.195  0.00  0.00    +0.000 NA
ATOM      9  H   UNL     1      50.889   1.756  16.174  0.00  0.00    +0.000 HD
BRANCH   8  10
ATOM     10  C   UNL     1      52.166   2.364  17.623  0.00  0.00    +0.000 C 
BRANCH  10  11
ATOM     11  C   UNL     1      53.308   1.371  17.728  0.00  0.00    +0.000 A 
ATOM     12  C   UNL     1      54.564   1.682  17.215  0.00  0.00    +0.000 A 
ATOM     13  C   UNL     1      55.576   0.728  17.294  0.00  0.00    +0.000 A 
ATOM     14  C   UNL     1      55.307  -0.504  17.879  0.00  0.00    +0.000 A 
ATOM     15  C   UNL     1      54.034  -0.730  18.375  0.00  0.00    +0.000 A 
ATOM     16  N   UNL     1      53.035   0.176  18.316  0.00  0.00    +0.000 NA
ENDBRANCH  10  11
ENDBRANCH   8  10
ENDBRANCH   5   8
ENDBRANCH   1   2
BRANCH   1  19
ATOM     17  O   UNL     1      48.649   6.169  13.168  0.00  0.00    +0.000 OA
ATOM     18  C   UNL     1      47.529   5.933  13.598  0.00  0.00    +0.000 C 
ATOM     19  N   UNL     1      47.271   5.591  14.913  0.00  0.00    +0.000 N 
ATOM     20  H   UNL     1      46.338   5.288  15.154  0.00  0.00    +0.000 HD
BRANCH  18  21
ATOM     21  C   UNL     1      46.318   6.029  12.771  0.00  0.00    +0.000 A 
ATOM     22  C   UNL     1      45.837   7.243  12.301  0.00  0.00    +0.000 A 
ATOM     23  S   UNL     1      44.449   7.093  11.321  0.00  0.00    +0.000 S 
ATOM     24  C   UNL     1      44.458   5.398  11.475  0.00  0.00    +0.000 A 
ATOM     25  N   UNL     1      43.514   4.639  10.855  0.00  0.00    +0.000 NA
ATOM     26  C   UNL     1      43.650   3.369  11.043  0.00  0.00    +0.000 A 
ATOM     27  N   UNL     1      44.635   2.793  11.802  0.00  0.00    +0.000 N 
ATOM     28  C   UNL     1      45.563   3.523  12.516  0.00  0.00    +0.000 A 
ATOM     29  O   UNL     1      46.320   2.976  13.315  0.00  0.00    +0.000 OA
ATOM     30  C   UNL     1      45.490   4.954  12.281  0.00  0.00    +0.000 A 
ATOM     31  H   UNL     1      44.655   1.796  11.951  0.00  0.00    +0.000 HD
ENDBRANCH  18  21
ENDBRANCH   1  19
TORSDOF 6
ENDMDL
MODEL 8
REMARK VINA RESULT:    -7.391      2.399      3.117
REMARK INTER + INTRA:         -10.955
REMARK INTER:                 -10.120
REMARK INTRA:                  -0.835
REMARK UNBOUND:                -0.971
REMARK  Name = 
REMARK  6 active torsions:
REMARK  status: ('A' for Active; 'I' for Inactive)
REMARK    1  A    between atoms: C_2  and  C_19
REMARK    2  A    between atoms: N_3  and  C_4
REMARK    3  A    between atoms: C_4  and  C_5
REMARK    4  A    between atoms: C_8  and  N_9
REMARK    5  A    between atoms: N_9  and  C_10
REMARK    6  A    between atoms: C_10  and  C_11
REMARK                            x       y       z     vdW  Elec       q    Type
REMARK                         _______ _______ _______ _____ _____    ______ ____
ROOT
ATOM      1  C   UNL     1      46.494   6.246  12.170  0.00  0.00    +0.000 C 
ENDROOT
BRANCH   1   2
ATOM      2  C   UNL     1      45.357   5.568  12.966  0.00  0.00    +0.000 C 
ATOM      3  C   UNL     1      43.954   5.892  12.431  0.00  0.00    +0.000 C 
ATOM      4  C   UNL     1      43.702   5.295  11.047  0.00  0.00    +0.000 C 
ATOM      5  C   UNL     1      43.877   3.766  11.034  0.00  0.00    +0.000 C 
ATOM      6  C   UNL     1      45.182   3.320  11.721  0.00  0.00    +0.000 C 
ATOM      7  C   UNL     1      45.521   4.043  13.020  0.00  0.00    +0.000 C 
BRANCH   5   8
ATOM      8  N   UNL     1      43.809   3.305   9.634  0.00  0.00    +0.000 NA
ATOM      9  H   UNL     1      44.233   4.006   9.024  0.00  0.00    +0.000 HD
BRANCH   8  10
ATOM     10  C   UNL     1      44.533   2.041   9.413  0.00  0.00    +0.000 C 
BRANCH  10  11
ATOM     11  C   UNL     1      45.622   2.156   8.364  0.00  0.00    +0.000 A 
ATOM     12  C   UNL     1      45.787   3.334   7.642  0.00  0.00    +0.000 A 
ATOM     13  C   UNL     1      46.771   3.387   6.659  0.00  0.00    +0.000 A 
ATOM     14  C   UNL     1      47.560   2.266   6.424  0.00  0.00    +0.000 A 
ATOM     15  C   UNL     1      47.340   1.136   7.193  0.00  0.00    +0.000 A 
ATOM     16  N   UNL     1      46.396   1.057   8.156  0.00  0.00    +0.000 NA
ENDBRANCH  10  11
ENDBRANCH   8  10
ENDBRANCH   5   8
ENDBRANCH   1   2
BRANCH   1  19
ATOM     17  O   UNL     1      49.186   6.531  13.127  0.00  0.00    +0.000 OA
ATOM     18  C   UNL     1      48.386   7.441  13.288  0.00  0.00    +0.000 C 
ATOM     19  N   UNL     1      47.072   7.389  12.858  0.00  0.00    +0.000 N 
ATOM     20  H   UNL     1      46.516   8.230  12.916  0.00  0.00    +0.000 HD
BRANCH  18  21
ATOM     21  C   UNL     1      48.720   8.683  13.998  0.00  0.00    +0.000 A 
ATOM     22  C   UNL     1      48.902   9.889  13.336  0.00  0.00    +0.000 A 
ATOM     23  S   UNL     1      49.233  11.197  14.380  0.00  0.00    +0.000 S 
ATOM     24  C   UNL     1      49.122  10.198  15.754  0.00  0.00    +0.000 A 
ATOM     25  N   UNL     1      49.296  10.712  17.001  0.00  0.00    +0.000 NA
ATOM     26  C   UNL     1      49.169   9.847  17.951  0.00  0.00    +0.000 A 
ATOM     27  N   UNL     1      48.893   8.517  17.765  0.00  0.00    +0.000 N 
ATOM     28  C   UNL     1      48.790   7.935  16.518  0.00  0.00    +0.000 A 
ATOM     29  O   UNL     1      48.712   6.714  16.394  0.00  0.00    +0.000 OA
ATOM     30  C   UNL     1      48.860   8.882  15.420  0.00  0.00    +0.000 A 
ATOM     31  H   UNL     1      48.857   7.883  18.548  0.00  0.00    +0.000 HD
ENDBRANCH  18  21
ENDBRANCH   1  19
TORSDOF 6
ENDMDL
MODEL 9
REMARK VINA RESULT:    -7.113      3.337      9.030
REMARK INTER + INTRA:         -10.579
REMARK INTER:                  -9.400
REMARK INTRA:                  -1.179
REMARK UNBOUND:                -0.971
REMARK  Name = 
REMARK  6 active torsions:
REMARK  status: ('A' for Active; 'I' for Inactive)
REMARK    1  A    between atoms: C_2  and  C_19
REMARK    2  A    between atoms: N_3  and  C_4
REMARK    3  A    between atoms: C_4  and  C_5
REMARK    4  A    between atoms: C_8  and  N_9
REMARK    5  A    between atoms: N_9  and  C_10
REMARK    6  A    between atoms: C_10  and  C_11
REMARK                            x       y       z     vdW  Elec       q    Type
REMARK                         _______ _______ _______ _____ _____    ______ ____
ROOT
ATOM      1  C   UNL     1      48.742   5.853  16.453  0.00  0.00    +0.000 C 
ENDROOT
BRANCH   1   2
ATOM      2  C   UNL     1      48.306   6.633  17.713  0.00  0.00    +0.000 C 
ATOM      3  C   UNL     1      47.739   5.737  18.826  0.00  0.00    +0.000 C 
ATOM      4  C   UNL     1      48.798   4.820  19.435  0.00  0.00    +0.000 C 
ATOM      5  C   UNL     1      49.986   5.608  20.014  0.00  0.00    +0.000 C 
ATOM      6  C   UNL     1      50.516   6.673  19.036  0.00  0.00    +0.000 C 
ATOM      7  C   UNL     1      49.450   7.475  18.295  0.00  0.00    +0.000 C 
BRANCH   5   8
ATOM      8  N   UNL     1      51.036   4.646  20.400  0.00  0.00    +0.000 NA
ATOM      9  H   UNL     1      50.637   3.707  20.441  0.00  0.00    +0.000 HD
BRANCH   8  10
ATOM     10  C   UNL     1      52.152   4.604  19.439  0.00  0.00    +0.000 C 
BRANCH  10  11
ATOM     11  C   UNL     1      52.236   3.290  18.685  0.00  0.00    +0.000 A 
ATOM     12  C   UNL     1      51.239   2.926  17.785  0.00  0.00    +0.000 A 
ATOM     13  C   UNL     1      51.331   1.694  17.143  0.00  0.00    +0.000 A 
ATOM     14  C   UNL     1      52.412   0.863  17.416  0.00  0.00    +0.000 A 
ATOM     15  C   UNL     1      53.368   1.304  18.315  0.00  0.00    +0.000 A 
ATOM     16  N   UNL     1      53.306   2.495  18.950  0.00  0.00    +0.000 NA
ENDBRANCH  10  11
ENDBRANCH   8  10
ENDBRANCH   5   8
ENDBRANCH   1   2
BRANCH   1  19
ATOM     17  O   UNL     1      49.087   6.568  13.694  0.00  0.00    +0.000 OA
ATOM     18  C   UNL     1      47.989   6.210  14.095  0.00  0.00    +0.000 C 
ATOM     19  N   UNL     1      47.735   5.847  15.406  0.00  0.00    +0.000 N 
ATOM     20  H   UNL     1      46.835   5.443  15.624  0.00  0.00    +0.000 HD
BRANCH  18  21
ATOM     21  C   UNL     1      46.798   6.166  13.235  0.00  0.00    +0.000 A 
ATOM     22  C   UNL     1      46.259   7.308  12.659  0.00  0.00    +0.000 A 
ATOM     23  S   UNL     1      44.910   6.996  11.663  0.00  0.00    +0.000 S 
ATOM     24  C   UNL     1      45.016   5.322  11.951  0.00  0.00    +0.000 A 
ATOM     25  N   UNL     1      44.137   4.461  11.371  0.00  0.00    +0.000 NA
ATOM     26  C   UNL     1      44.343   3.220  11.663  0.00  0.00    +0.000 A 
ATOM     27  N   UNL     1      45.340   2.767  12.487  0.00  0.00    +0.000 N 
ATOM     28  C   UNL     1      46.201   3.606  13.162  0.00  0.00    +0.000 A 
ATOM     29  O   UNL     1      46.968   3.171  14.020  0.00  0.00    +0.000 OA
ATOM     30  C   UNL     1      46.050   5.008  12.813  0.00  0.00    +0.000 A 
ATOM     31  H   UNL     1      45.415   1.787  12.716  0.00  0.00    +0.000 HD
ENDBRANCH  18  21
ENDBRANCH   1  19
TORSDOF 6
ENDMDL
