MODEL 1
REMARK VINA RESULT:    -9.053      0.000      0.000
REMARK INTER + INTRA:         -11.828
REMARK INTER:                 -11.170
REMARK INTRA:                  -0.659
REMARK UNBOUND:                -0.659
REMARK  Name = 
REMARK  4 active torsions:
REMARK  status: ('A' for Active; 'I' for Inactive)
REMARK    1  A    between atoms: C_2  and  C_4
REMARK    2  A    between atoms: C_7  and  C_8
REMARK    3  A    between atoms: C_8  and  N_9
REMARK    4  A    between atoms: C_14  and  C_15
REMARK                            x       y       z     vdW  Elec       q    Type
REMARK                         _______ _______ _______ _____ _____    ______ ____
ROOT
ATOM      1  N   UNL     1      44.185   2.892  11.915  0.00  0.00    +0.000 N 
ATOM      2  C   UNL     1      45.160   3.743  12.407  0.00  0.00    +0.000 A 
ATOM      3  N   UNL     1      46.123   3.162  13.129  0.00  0.00    +0.000 NA
ATOM      4  C   UNL     1      47.051   3.969  13.668  0.00  0.00    +0.000 A 
ATOM      5  C   UNL     1      47.063   5.331  13.498  0.00  0.00    +0.000 A 
ATOM      6  C   UNL     1      46.045   5.855  12.727  0.00  0.00    +0.000 A 
ATOM      7  N   UNL     1      45.091   5.062  12.186  0.00  0.00    +0.000 NA
ATOM      8  H   UNL     1      44.593   1.962  11.911  0.00  0.00    +0.000 HD
ENDROOT
BRANCH   6   9
ATOM      9  C   UNL     1      45.901   7.295  12.451  0.00  0.00    +0.000 A 
ATOM     10  C   UNL     1      46.832   8.219  12.944  0.00  0.00    +0.000 A 
ATOM     11  N   UNL     1      46.792   9.563  12.740  0.00  0.00    +0.000 NA
ATOM     12  C   UNL     1      45.755  10.026  12.009  0.00  0.00    +0.000 A 
ATOM     13  C   UNL     1      44.777   9.207  11.479  0.00  0.00    +0.000 A 
ATOM     14  F   UNL     1      43.770   9.722  10.765  0.00  0.00    +0.000 F 
ATOM     15  C   UNL     1      44.847   7.836  11.699  0.00  0.00    +0.000 A 
ENDBRANCH   6   9
BRANCH   1  16
ATOM     16  C   UNL     1      43.614   3.294  10.639  0.00  0.00    +0.000 C 
BRANCH  16  20
ATOM     17  C   UNL     1      46.490   2.651   7.532  0.00  0.00    +0.000 A 
ATOM     18  C   UNL     1      45.999   3.939   7.741  0.00  0.00    +0.000 A 
ATOM     19  C   UNL     1      45.056   4.154   8.747  0.00  0.00    +0.000 A 
ATOM     20  C   UNL     1      44.621   3.076   9.519  0.00  0.00    +0.000 A 
ATOM     21  N   UNL     1      45.072   1.812   9.312  0.00  0.00    +0.000 NA
ATOM     22  C   UNL     1      45.986   1.627   8.323  0.00  0.00    +0.000 A 
BRANCH  17  24
ATOM     23  N   UNL     1      47.534   3.119   5.389  0.00  0.00    +0.000 N 
ATOM     24  C   UNL     1      47.503   2.329   6.504  0.00  0.00    +0.000 C 
ATOM     25  O   UNL     1      48.306   1.420   6.661  0.00  0.00    +0.000 OA
ATOM     26  H   UNL     1      48.300   2.957   4.748  0.00  0.00    +0.000 HD
ATOM     27  H   UNL     1      47.069   4.015   5.342  0.00  0.00    +0.000 HD
ENDBRANCH  17  24
ENDBRANCH  16  20
ENDBRANCH   1  16
TORSDOF 4
ENDMDL
MODEL 2
REMARK VINA RESULT:    -8.946      1.244      1.463
REMARK INTER + INTRA:         -11.697
REMARK INTER:                 -11.061
REMARK INTRA:                  -0.636
REMARK UNBOUND:                -0.659
REMARK  Name = 
REMARK  4 active torsions:
REMARK  status: ('A' for Active; 'I' for Inactive)
REMARK    1  A    between atoms: C_2  and  C_4
REMARK    2  A    between atoms: C_7  and  C_8
REMARK    3  A    between atoms: C_8  and  N_9
REMARK    4  A    between atoms: C_14  and  C_15
REMARK                            x       y       z     vdW  Elec       q    Type
REMARK                         _______ _______ _______ _____ _____    ______ ____
ROOT
ATOM      1  N   UNL     1      44.128   3.287  11.743  0.00  0.00    +0.000 N 
ATOM      2  C   UNL     1      45.187   3.961  12.328  0.00  0.00    +0.000 A 
ATOM      3  N   UNL     1      45.988   3.220  13.099  0.00  0.00    +0.000 NA
ATOM      4  C   UNL     1      46.990   3.857  13.726  0.00  0.00    +0.000 A 
ATOM      5  C   UNL     1      47.231   5.202  13.599  0.00  0.00    +0.000 A 
ATOM      6  C   UNL     1      46.371   5.897  12.773  0.00  0.00    +0.000 A 
ATOM      7  N   UNL     1      45.346   5.278  12.142  0.00  0.00    +0.000 NA
ATOM      8  H   UNL     1      44.382   2.305  11.740  0.00  0.00    +0.000 HD
ENDROOT
BRANCH   6   9
ATOM      9  C   UNL     1      46.479   7.347  12.531  0.00  0.00    +0.000 A 
ATOM     10  C   UNL     1      45.349   8.173  12.593  0.00  0.00    +0.000 A 
ATOM     11  N   UNL     1      45.345   9.518  12.393  0.00  0.00    +0.000 NA
ATOM     12  C   UNL     1      46.536  10.083  12.100  0.00  0.00    +0.000 A 
ATOM     13  C   UNL     1      47.712   9.363  12.006  0.00  0.00    +0.000 A 
ATOM     14  F   UNL     1      48.864   9.976  11.708  0.00  0.00    +0.000 F 
ATOM     15  C   UNL     1      47.687   7.990  12.222  0.00  0.00    +0.000 A 
ENDBRANCH   6   9
BRANCH   1  16
ATOM     16  C   UNL     1      43.727   3.799  10.442  0.00  0.00    +0.000 C 
BRANCH  16  20
ATOM     17  C   UNL     1      46.631   2.660   7.509  0.00  0.00    +0.000 A 
ATOM     18  C   UNL     1      46.303   4.008   7.645  0.00  0.00    +0.000 A 
ATOM     19  C   UNL     1      45.351   4.386   8.594  0.00  0.00    +0.000 A 
ATOM     20  C   UNL     1      44.745   3.406   9.383  0.00  0.00    +0.000 A 
ATOM     21  N   UNL     1      45.037   2.086   9.245  0.00  0.00    +0.000 NA
ATOM     22  C   UNL     1      45.963   1.744   8.310  0.00  0.00    +0.000 A 
BRANCH  17  24
ATOM     23  N   UNL     1      47.825   2.900   5.407  0.00  0.00    +0.000 N 
ATOM     24  C   UNL     1      47.638   2.167   6.545  0.00  0.00    +0.000 C 
ATOM     25  O   UNL     1      48.306   1.168   6.774  0.00  0.00    +0.000 OA
ATOM     26  H   UNL     1      48.592   2.613   4.811  0.00  0.00    +0.000 HD
ATOM     27  H   UNL     1      47.485   3.846   5.305  0.00  0.00    +0.000 HD
ENDBRANCH  17  24
ENDBRANCH  16  20
ENDBRANCH   1  16
TORSDOF 4
ENDMDL
MODEL 3
REMARK VINA RESULT:    -8.181      4.454      8.020
REMARK INTER + INTRA:         -10.752
REMARK INTER:                 -10.326
REMARK INTRA:                  -0.426
REMARK UNBOUND:                -0.659
REMARK  Name = 
REMARK  4 active torsions:
REMARK  status: ('A' for Active; 'I' for Inactive)
REMARK    1  A    between atoms: C_2  and  C_4
REMARK    2  A    between atoms: C_7  and  C_8
REMARK    3  A    between atoms: C_8  and  N_9
REMARK    4  A    between atoms: C_14  and  C_15
REMARK                            x       y       z     vdW  Elec       q    Type
REMARK                         _______ _______ _______ _____ _____    ______ ____
ROOT
ATOM      1  N   UNL     1      45.366   4.532  14.117  0.00  0.00    +0.000 N 
ATOM      2  C   UNL     1      44.704   4.612  12.904  0.00  0.00    +0.000 A 
ATOM      3  N   UNL     1      43.484   5.156  12.947  0.00  0.00    +0.000 NA
ATOM      4  C   UNL     1      42.794   5.195  11.796  0.00  0.00    +0.000 A 
ATOM      5  C   UNL     1      43.283   4.726  10.602  0.00  0.00    +0.000 A 
ATOM      6  C   UNL     1      44.555   4.193  10.635  0.00  0.00    +0.000 A 
ATOM      7  N   UNL     1      45.264   4.131  11.786  0.00  0.00    +0.000 NA
ATOM      8  H   UNL     1      44.932   5.218  14.725  0.00  0.00    +0.000 HD
ENDROOT
BRANCH   6   9
ATOM      9  C   UNL     1      45.229   3.637   9.448  0.00  0.00    +0.000 A 
ATOM     10  C   UNL     1      45.677   4.473   8.417  0.00  0.00    +0.000 A 
ATOM     11  N   UNL     1      46.313   4.060   7.288  0.00  0.00    +0.000 NA
ATOM     12  C   UNL     1      46.509   2.729   7.164  0.00  0.00    +0.000 A 
ATOM     13  C   UNL     1      46.102   1.813   8.116  0.00  0.00    +0.000 A 
ATOM     14  F   UNL     1      46.319   0.504   7.938  0.00  0.00    +0.000 F 
ATOM     15  C   UNL     1      45.459   2.265   9.263  0.00  0.00    +0.000 A 
ENDBRANCH   6   9
BRANCH   1  16
ATOM     16  C   UNL     1      46.813   4.650  14.029  0.00  0.00    +0.000 C 
BRANCH  16  20
ATOM     17  C   UNL     1      48.498   4.442  17.960  0.00  0.00    +0.000 A 
ATOM     18  C   UNL     1      48.777   5.552  17.164  0.00  0.00    +0.000 A 
ATOM     19  C   UNL     1      48.238   5.623  15.879  0.00  0.00    +0.000 A 
ATOM     20  C   UNL     1      47.434   4.580  15.416  0.00  0.00    +0.000 A 
ATOM     21  N   UNL     1      47.173   3.481  16.171  0.00  0.00    +0.000 NA
ATOM     22  C   UNL     1      47.714   3.434  17.417  0.00  0.00    +0.000 A 
BRANCH  17  24
ATOM     23  N   UNL     1      48.316   3.454  20.173  0.00  0.00    +0.000 N 
ATOM     24  C   UNL     1      49.009   4.287  19.339  0.00  0.00    +0.000 C 
ATOM     25  O   UNL     1      50.032   4.847  19.708  0.00  0.00    +0.000 OA
ATOM     26  H   UNL     1      48.738   3.272  21.075  0.00  0.00    +0.000 HD
ATOM     27  H   UNL     1      47.632   2.791  19.836  0.00  0.00    +0.000 HD
ENDBRANCH  17  24
ENDBRANCH  16  20
ENDBRANCH   1  16
TORSDOF 4
ENDMDL
MODEL 4
REMARK VINA RESULT:    -7.477      3.635      6.945
REMARK INTER + INTRA:          -9.884
REMARK INTER:                  -9.292
REMARK INTRA:                  -0.592
REMARK UNBOUND:                -0.659
REMARK  Name = 
REMARK  4 active torsions:
REMARK  status: ('A' for Active; 'I' for Inactive)
REMARK    1  A    between atoms: C_2  and  C_4
REMARK    2  A    between atoms: C_7  and  C_8
REMARK    3  A    between atoms: C_8  and  N_9
REMARK    4  A    between atoms: C_14  and  C_15
REMARK                            x       y       z     vdW  Elec       q    Type
REMARK                         _______ _______ _______ _____ _____    ______ ____
ROOT
ATOM      1  N   UNL     1      45.127   7.135  13.168  0.00  0.00    +0.000 N 
ATOM      2  C   UNL     1      44.526   6.023  12.601  0.00  0.00    +0.000 A 
ATOM      3  N   UNL     1      43.458   5.550  13.251  0.00  0.00    +0.000 NA
ATOM      4  C   UNL     1      42.889   4.439  12.757  0.00  0.00    +0.000 A 
ATOM      5  C   UNL     1      43.335   3.793  11.631  0.00  0.00    +0.000 A 
ATOM      6  C   UNL     1      44.433   4.351  11.007  0.00  0.00    +0.000 A 
ATOM      7  N   UNL     1      45.031   5.462  11.495  0.00  0.00    +0.000 NA
ATOM      8  H   UNL     1      44.426   7.566  13.762  0.00  0.00    +0.000 HD
ENDROOT
BRANCH   6   9
ATOM      9  C   UNL     1      45.047   3.782   9.794  0.00  0.00    +0.000 A 
ATOM     10  C   UNL     1      45.512   4.613   8.766  0.00  0.00    +0.000 A 
ATOM     11  N   UNL     1      46.098   4.188   7.615  0.00  0.00    +0.000 NA
ATOM     12  C   UNL     1      46.222   2.852   7.464  0.00  0.00    +0.000 A 
ATOM     13  C   UNL     1      45.793   1.941   8.411  0.00  0.00    +0.000 A 
ATOM     14  F   UNL     1      45.939   0.626   8.207  0.00  0.00    +0.000 F 
ATOM     15  C   UNL     1      45.203   2.404   9.582  0.00  0.00    +0.000 A 
ENDBRANCH   6   9
BRANCH   1  16
ATOM     16  C   UNL     1      45.739   8.047  12.215  0.00  0.00    +0.000 C 
BRANCH  16  20
ATOM     17  C   UNL     1      49.966   8.307  12.853  0.00  0.00    +0.000 A 
ATOM     18  C   UNL     1      49.493   7.642  11.721  0.00  0.00    +0.000 A 
ATOM     19  C   UNL     1      48.117   7.546  11.512  0.00  0.00    +0.000 A 
ATOM     20  C   UNL     1      47.242   8.115  12.439  0.00  0.00    +0.000 A 
ATOM     21  N   UNL     1      47.687   8.745  13.558  0.00  0.00    +0.000 NA
ATOM     22  C   UNL     1      49.031   8.819  13.742  0.00  0.00    +0.000 A 
BRANCH  17  24
ATOM     23  N   UNL     1      51.892   7.831  14.254  0.00  0.00    +0.000 N 
ATOM     24  C   UNL     1      51.404   8.473  13.150  0.00  0.00    +0.000 C 
ATOM     25  O   UNL     1      52.137   9.125  12.419  0.00  0.00    +0.000 OA
ATOM     26  H   UNL     1      52.896   7.863  14.382  0.00  0.00    +0.000 HD
ATOM     27  H   UNL     1      51.386   7.094  14.724  0.00  0.00    +0.000 HD
ENDBRANCH  17  24
ENDBRANCH  16  20
ENDBRANCH   1  16
TORSDOF 4
ENDMDL
MODEL 5
REMARK VINA RESULT:    -7.291      4.674      7.737
REMARK INTER + INTRA:          -9.655
REMARK INTER:                  -9.077
REMARK INTRA:                  -0.578
REMARK UNBOUND:                -0.659
REMARK  Name = 
REMARK  4 active torsions:
REMARK  status: ('A' for Active; 'I' for Inactive)
REMARK    1  A    between atoms: C_2  and  C_4
REMARK    2  A    between atoms: C_7  and  C_8
REMARK    3  A    between atoms: C_8  and  N_9
REMARK    4  A    between atoms: C_14  and  C_15
REMARK                            x       y       z     vdW  Elec       q    Type
REMARK                         _______ _______ _______ _____ _____    ______ ____
ROOT
ATOM      1  N   UNL     1      48.103   5.930  16.183  0.00  0.00    +0.000 N 
ATOM      2  C   UNL     1      47.909   6.044  14.817  0.00  0.00    +0.000 A 
ATOM      3  N   UNL     1      48.761   6.851  14.178  0.00  0.00    +0.000 NA
ATOM      4  C   UNL     1      48.562   7.027  12.862  0.00  0.00    +0.000 A 
ATOM      5  C   UNL     1      47.556   6.415  12.158  0.00  0.00    +0.000 A 
ATOM      6  C   UNL     1      46.726   5.584  12.884  0.00  0.00    +0.000 A 
ATOM      7  N   UNL     1      46.899   5.403  14.214  0.00  0.00    +0.000 NA
ATOM      8  H   UNL     1      49.064   6.207  16.359  0.00  0.00    +0.000 HD
ENDROOT
BRANCH   6   9
ATOM      9  C   UNL     1      45.591   4.856  12.290  0.00  0.00    +0.000 A 
ATOM     10  C   UNL     1      44.822   3.972  13.057  0.00  0.00    +0.000 A 
ATOM     11  N   UNL     1      43.755   3.260  12.606  0.00  0.00    +0.000 NA
ATOM     12  C   UNL     1      43.433   3.425  11.305  0.00  0.00    +0.000 A 
ATOM     13  C   UNL     1      44.127   4.265  10.455  0.00  0.00    +0.000 A 
ATOM     14  F   UNL     1      43.765   4.386   9.171  0.00  0.00    +0.000 F 
ATOM     15  C   UNL     1      45.210   4.985  10.945  0.00  0.00    +0.000 A 
ENDBRANCH   6   9
BRANCH   1  16
ATOM     16  C   UNL     1      47.749   4.635  16.742  0.00  0.00    +0.000 C 
BRANCH  16  20
ATOM     17  C   UNL     1      51.237   2.269  17.502  0.00  0.00    +0.000 A 
ATOM     18  C   UNL     1      51.249   3.619  17.849  0.00  0.00    +0.000 A 
ATOM     19  C   UNL     1      50.119   4.398  17.596  0.00  0.00    +0.000 A 
ATOM     20  C   UNL     1      49.002   3.811  16.999  0.00  0.00    +0.000 A 
ATOM     21  N   UNL     1      48.984   2.502  16.634  0.00  0.00    +0.000 NA
ATOM     22  C   UNL     1      50.099   1.767  16.885  0.00  0.00    +0.000 A 
BRANCH  17  24
ATOM     23  N   UNL     1      52.096   0.122  18.246  0.00  0.00    +0.000 N 
ATOM     24  C   UNL     1      52.379   1.362  17.746  0.00  0.00    +0.000 C 
ATOM     25  O   UNL     1      53.525   1.691  17.473  0.00  0.00    +0.000 OA
ATOM     26  H   UNL     1      52.873  -0.525  18.303  0.00  0.00    +0.000 HD
ATOM     27  H   UNL     1      51.164  -0.269  18.241  0.00  0.00    +0.000 HD
ENDBRANCH  17  24
ENDBRANCH  16  20
ENDBRANCH   1  16
TORSDOF 4
ENDMDL
MODEL 6
REMARK VINA RESULT:    -7.012      5.657      7.796
REMARK INTER + INTRA:          -9.311
REMARK INTER:                  -8.856
REMARK INTRA:                  -0.455
REMARK UNBOUND:                -0.659
REMARK  Name = 
REMARK  4 active torsions:
REMARK  status: ('A' for Active; 'I' for Inactive)
REMARK    1  A    between atoms: C_2  and  C_4
REMARK    2  A    between atoms: C_7  and  C_8
REMARK    3  A    between atoms: C_8  and  N_9
REMARK    4  A    between atoms: C_14  and  C_15
REMARK                            x       y       z     vdW  Elec       q    Type
REMARK                         _______ _______ _______ _____ _____    ______ ____
ROOT
ATOM      1  N   UNL     1      47.662   5.609  15.610  0.00  0.00    +0.000 N 
ATOM      2  C   UNL     1      48.591   5.509  16.633  0.00  0.00    +0.000 A 
ATOM      3  N   UNL     1      48.616   6.531  17.493  0.00  0.00    +0.000 NA
ATOM      4  C   UNL     1      49.545   6.489  18.461  0.00  0.00    +0.000 A 
ATOM      5  C   UNL     1      50.438   5.458  18.612  0.00  0.00    +0.000 A 
ATOM      6  C   UNL     1      50.340   4.432  17.695  0.00  0.00    +0.000 A 
ATOM      7  N   UNL     1      49.421   4.459  16.702  0.00  0.00    +0.000 NA
ATOM      8  H   UNL     1      46.959   6.268  15.928  0.00  0.00    +0.000 HD
ENDROOT
BRANCH   6   9
ATOM      9  C   UNL     1      51.225   3.253  17.704  0.00  0.00    +0.000 A 
ATOM     10  C   UNL     1      50.746   1.991  17.331  0.00  0.00    +0.000 A 
ATOM     11  N   UNL     1      51.481   0.847  17.300  0.00  0.00    +0.000 NA
ATOM     12  C   UNL     1      52.774   0.957  17.674  0.00  0.00    +0.000 A 
ATOM     13  C   UNL     1      53.349   2.150  18.067  0.00  0.00    +0.000 A 
ATOM     14  F   UNL     1      54.636   2.199  18.432  0.00  0.00    +0.000 F 
ATOM     15  C   UNL     1      52.575   3.305  18.084  0.00  0.00    +0.000 A 
ENDBRANCH   6   9
BRANCH   1  16
ATOM     16  C   UNL     1      47.121   4.338  15.155  0.00  0.00    +0.000 C 
BRANCH  16  20
ATOM     17  C   UNL     1      45.296   4.742  11.301  0.00  0.00    +0.000 A 
ATOM     18  C   UNL     1      46.084   5.785  11.788  0.00  0.00    +0.000 A 
ATOM     19  C   UNL     1      46.675   5.664  13.046  0.00  0.00    +0.000 A 
ATOM     20  C   UNL     1      46.463   4.503  13.793  0.00  0.00    +0.000 A 
ATOM     21  N   UNL     1      45.679   3.489  13.342  0.00  0.00    +0.000 NA
ATOM     22  C   UNL     1      45.110   3.634  12.117  0.00  0.00    +0.000 A 
BRANCH  17  24
ATOM     23  N   UNL     1      45.438   5.047   8.895  0.00  0.00    +0.000 N 
ATOM     24  C   UNL     1      44.645   4.773   9.974  0.00  0.00    +0.000 C 
ATOM     25  O   UNL     1      43.455   4.524   9.841  0.00  0.00    +0.000 OA
ATOM     26  H   UNL     1      45.002   4.956   7.986  0.00  0.00    +0.000 HD
ATOM     27  H   UNL     1      46.447   5.005   8.935  0.00  0.00    +0.000 HD
ENDBRANCH  17  24
ENDBRANCH  16  20
ENDBRANCH   1  16
TORSDOF 4
ENDMDL
MODEL 7
REMARK VINA RESULT:    -6.857      3.601      7.361
REMARK INTER + INTRA:          -9.119
REMARK INTER:                  -8.659
REMARK INTRA:                  -0.460
REMARK UNBOUND:                -0.659
REMARK  Name = 
REMARK  4 active torsions:
REMARK  status: ('A' for Active; 'I' for Inactive)
REMARK    1  A    between atoms: C_2  and  C_4
REMARK    2  A    between atoms: C_7  and  C_8
REMARK    3  A    between atoms: C_8  and  N_9
REMARK    4  A    between atoms: C_14  and  C_15
REMARK                            x       y       z     vdW  Elec       q    Type
REMARK                         _______ _______ _______ _____ _____    ______ ____
ROOT
ATOM      1  N   UNL     1      47.203   8.301  14.015  0.00  0.00    +0.000 N 
ATOM      2  C   UNL     1      46.290   8.180  12.980  0.00  0.00    +0.000 A 
ATOM      3  N   UNL     1      45.654   9.304  12.637  0.00  0.00    +0.000 NA
ATOM      4  C   UNL     1      44.721   9.207  11.676  0.00  0.00    +0.000 A 
ATOM      5  C   UNL     1      44.412   8.034  11.035  0.00  0.00    +0.000 A 
ATOM      6  C   UNL     1      45.122   6.920  11.433  0.00  0.00    +0.000 A 
ATOM      7  N   UNL     1      46.057   6.991  12.409  0.00  0.00    +0.000 NA
ATOM      8  H   UNL     1      47.452   9.283  14.062  0.00  0.00    +0.000 HD
ENDROOT
BRANCH   6   9
ATOM      9  C   UNL     1      44.912   5.580  10.857  0.00  0.00    +0.000 A 
ATOM     10  C   UNL     1      44.229   4.588  11.573  0.00  0.00    +0.000 A 
ATOM     11  N   UNL     1      43.978   3.327  11.128  0.00  0.00    +0.000 NA
ATOM     12  C   UNL     1      44.444   3.023   9.898  0.00  0.00    +0.000 A 
ATOM     13  C   UNL     1      45.135   3.921   9.107  0.00  0.00    +0.000 A 
ATOM     14  F   UNL     1      45.577   3.563   7.895  0.00  0.00    +0.000 F 
ATOM     15  C   UNL     1      45.372   5.205   9.585  0.00  0.00    +0.000 A 
ENDBRANCH   6   9
BRANCH   1  16
ATOM     16  C   UNL     1      48.343   7.403  13.926  0.00  0.00    +0.000 C 
BRANCH  16  20
ATOM     17  C   UNL     1      47.934   4.276  16.823  0.00  0.00    +0.000 A 
ATOM     18  C   UNL     1      48.616   5.440  17.178  0.00  0.00    +0.000 A 
ATOM     19  C   UNL     1      48.760   6.460  16.237  0.00  0.00    +0.000 A 
ATOM     20  C   UNL     1      48.223   6.293  14.959  0.00  0.00    +0.000 A 
ATOM     21  N   UNL     1      47.577   5.155  14.591  0.00  0.00    +0.000 NA
ATOM     22  C   UNL     1      47.455   4.175  15.525  0.00  0.00    +0.000 A 
BRANCH  17  24
ATOM     23  N   UNL     1      48.681   2.926  18.700  0.00  0.00    +0.000 N 
ATOM     24  C   UNL     1      47.717   3.151  17.757  0.00  0.00    +0.000 C 
ATOM     25  O   UNL     1      46.699   2.474  17.716  0.00  0.00    +0.000 OA
ATOM     26  H   UNL     1      48.468   2.225  19.399  0.00  0.00    +0.000 HD
ATOM     27  H   UNL     1      49.394   3.606  18.924  0.00  0.00    +0.000 HD
ENDBRANCH  17  24
ENDBRANCH  16  20
ENDBRANCH   1  16
TORSDOF 4
ENDMDL
MODEL 8
REMARK VINA RESULT:    -6.807      3.865      6.187
REMARK INTER + INTRA:          -9.058
REMARK INTER:                  -8.488
REMARK INTRA:                  -0.570
REMARK UNBOUND:                -0.659
REMARK  Name = 
REMARK  4 active torsions:
REMARK  status: ('A' for Active; 'I' for Inactive)
REMARK    1  A    between atoms: C_2  and  C_4
REMARK    2  A    between atoms: C_7  and  C_8
REMARK    3  A    between atoms: C_8  and  N_9
REMARK    4  A    between atoms: C_14  and  C_15
REMARK                            x       y       z     vdW  Elec       q    Type
REMARK                         _______ _______ _______ _____ _____    ______ ____
ROOT
ATOM      1  N   UNL     1      47.341   8.124  12.536  0.00  0.00    +0.000 N 
ATOM      2  C   UNL     1      48.197   7.777  13.568  0.00  0.00    +0.000 A 
ATOM      3  N   UNL     1      49.349   8.451  13.615  0.00  0.00    +0.000 NA
ATOM      4  C   UNL     1      50.224   8.097  14.570  0.00  0.00    +0.000 A 
ATOM      5  C   UNL     1      49.984   7.107  15.489  0.00  0.00    +0.000 A 
ATOM      6  C   UNL     1      48.765   6.467  15.387  0.00  0.00    +0.000 A 
ATOM      7  N   UNL     1      47.874   6.797  14.424  0.00  0.00    +0.000 NA
ATOM      8  H   UNL     1      47.614   9.055  12.240  0.00  0.00    +0.000 HD
ENDROOT
BRANCH   6   9
ATOM      9  C   UNL     1      48.348   5.376  16.285  0.00  0.00    +0.000 A 
ATOM     10  C   UNL     1      47.439   4.399  15.858  0.00  0.00    +0.000 A 
ATOM     11  N   UNL     1      46.999   3.352  16.605  0.00  0.00    +0.000 NA
ATOM     12  C   UNL     1      47.480   3.271  17.864  0.00  0.00    +0.000 A 
ATOM     13  C   UNL     1      48.376   4.182  18.391  0.00  0.00    +0.000 A 
ATOM     14  F   UNL     1      48.818   4.054  19.649  0.00  0.00    +0.000 F 
ATOM     15  C   UNL     1      48.814   5.239  17.602  0.00  0.00    +0.000 A 
ENDBRANCH   6   9
BRANCH   1  16
ATOM     16  C   UNL     1      45.927   7.992  12.848  0.00  0.00    +0.000 C 
BRANCH  16  20
ATOM     17  C   UNL     1      44.437   4.248  11.400  0.00  0.00    +0.000 A 
ATOM     18  C   UNL     1      45.239   5.024  10.564  0.00  0.00    +0.000 A 
ATOM     19  C   UNL     1      45.720   6.250  11.026  0.00  0.00    +0.000 A 
ATOM     20  C   UNL     1      45.388   6.674  12.314  0.00  0.00    +0.000 A 
ATOM     21  N   UNL     1      44.590   5.939  13.132  0.00  0.00    +0.000 NA
ATOM     22  C   UNL     1      44.129   4.753  12.656  0.00  0.00    +0.000 A 
BRANCH  17  24
ATOM     23  N   UNL     1      44.486   2.305   9.942  0.00  0.00    +0.000 N 
ATOM     24  C   UNL     1      43.896   2.930  11.005  0.00  0.00    +0.000 C 
ATOM     25  O   UNL     1      42.985   2.401  11.627  0.00  0.00    +0.000 OA
ATOM     26  H   UNL     1      44.179   1.359   9.753  0.00  0.00    +0.000 HD
ATOM     27  H   UNL     1      45.384   2.586   9.574  0.00  0.00    +0.000 HD
ENDBRANCH  17  24
ENDBRANCH  16  20
ENDBRANCH   1  16
TORSDOF 4
ENDMDL
MODEL 9
REMARK VINA RESULT:    -6.665      4.601      7.200
REMARK INTER + INTRA:          -8.882
REMARK INTER:                  -8.329
REMARK INTRA:                  -0.554
REMARK UNBOUND:                -0.659
REMARK  Name = 
REMARK  4 active torsions:
REMARK  status: ('A' for Active; 'I' for Inactive)
REMARK    1  A    between atoms: C_2  and  C_4
REMARK    2  A    between atoms: C_7  and  C_8
REMARK    3  A    between atoms: C_8  and  N_9
REMARK    4  A    between atoms: C_14  and  C_15
REMARK                            x       y       z     vdW  Elec       q    Type
REMARK                         _______ _______ _______ _____ _____    ______ ____
ROOT
ATOM      1  N   UNL     1      46.798   3.701  15.075  0.00  0.00    +0.000 N 
ATOM      2  C   UNL     1      46.470   4.525  14.011  0.00  0.00    +0.000 A 
ATOM      3  N   UNL     1      45.401   4.154  13.300  0.00  0.00    +0.000 NA
ATOM      4  C   UNL     1      45.093   4.901  12.229  0.00  0.00    +0.000 A 
ATOM      5  C   UNL     1      45.802   6.014  11.850  0.00  0.00    +0.000 A 
ATOM      6  C   UNL     1      46.883   6.343  12.643  0.00  0.00    +0.000 A 
ATOM      7  N   UNL     1      47.220   5.596  13.720  0.00  0.00    +0.000 NA
ATOM      8  H   UNL     1      45.955   3.183  15.303  0.00  0.00    +0.000 HD
ENDROOT
BRANCH   6   9
ATOM      9  C   UNL     1      47.757   7.499  12.377  0.00  0.00    +0.000 A 
ATOM     10  C   UNL     1      47.368   8.795  12.741  0.00  0.00    +0.000 A 
ATOM     11  N   UNL     1      48.103   9.922  12.546  0.00  0.00    +0.000 NA
ATOM     12  C   UNL     1      49.298   9.759  11.939  0.00  0.00    +0.000 A 
ATOM     13  C   UNL     1      49.778   8.530  11.532  0.00  0.00    +0.000 A 
ATOM     14  F   UNL     1      50.970   8.428  10.931  0.00  0.00    +0.000 F 
ATOM     15  C   UNL     1      49.008   7.393  11.750  0.00  0.00    +0.000 A 
ENDBRANCH   6   9
BRANCH   1  16
ATOM     16  C   UNL     1      47.400   4.383  16.209  0.00  0.00    +0.000 C 
BRANCH  16  20
ATOM     17  C   UNL     1      50.995   2.377  17.388  0.00  0.00    +0.000 A 
ATOM     18  C   UNL     1      50.822   3.715  17.742  0.00  0.00    +0.000 A 
ATOM     19  C   UNL     1      49.656   4.377  17.354  0.00  0.00    +0.000 A 
ATOM     20  C   UNL     1      48.691   3.688  16.617  0.00  0.00    +0.000 A 
ATOM     21  N   UNL     1      48.856   2.392  16.245  0.00  0.00    +0.000 NA
ATOM     22  C   UNL     1      50.002   1.771  16.630  0.00  0.00    +0.000 A 
BRANCH  17  24
ATOM     23  N   UNL     1      51.984   0.289  18.140  0.00  0.00    +0.000 N 
ATOM     24  C   UNL     1      52.187   1.588  17.769  0.00  0.00    +0.000 C 
ATOM     25  O   UNL     1      53.312   2.065  17.715  0.00  0.00    +0.000 OA
ATOM     26  H   UNL     1      52.815  -0.268  18.291  0.00  0.00    +0.000 HD
ATOM     27  H   UNL     1      51.121  -0.203  17.955  0.00  0.00    +0.000 HD
ENDBRANCH  17  24
ENDBRANCH  16  20
ENDBRANCH   1  16
TORSDOF 4
ENDMDL
