MODEL 1
REMARK VINA RESULT:    -8.410      0.000      0.000
REMARK INTER + INTRA:         -11.994
REMARK INTER:                 -11.606
REMARK INTRA:                  -0.388
REMARK UNBOUND:                -0.388
REMARK  Name = 
REMARK  7 active torsions:
REMARK  status: ('A' for Active; 'I' for Inactive)
REMARK    1  A    between atoms: N_1  and  C_2
REMARK    2  A    between atoms: C_2  and  C_3
REMARK    3  A    between atoms: C_3  and  N_4
REMARK    4  A    between atoms: C_3  and  C_17
REMARK    5  A    between atoms: C_5  and  C_7
REMARK    6  A    between atoms: C_20  and  C_21
REMARK    7  A    between atoms: C_21  and  C_22
REMARK                            x       y       z     vdW  Elec       q    Type
REMARK                         _______ _______ _______ _____ _____    ______ ____
ROOT
ATOM      1  C   UNL     1      46.046   7.513  12.771  0.00  0.00    +0.000 C 
ENDROOT
BRANCH   1   2
ATOM      2  C   UNL     1      45.778   6.331  11.852  0.00  0.00    +0.000 A 
ATOM      3  C   UNL     1      45.130   5.199  12.372  0.00  0.00    +0.000 A 
ATOM      4  C   UNL     1      44.761   4.138  11.541  0.00  0.00    +0.000 A 
ATOM      5  C   UNL     1      45.029   4.183  10.167  0.00  0.00    +0.000 A 
ATOM      6  C   UNL     1      45.729   5.281   9.656  0.00  0.00    +0.000 A 
ATOM      7  C   UNL     1      46.118   6.333  10.492  0.00  0.00    +0.000 A 
BRANCH   5   8
ATOM      8  C   UNL     1      44.564   3.074   9.249  0.00  0.00    +0.000 C 
BRANCH   8   9
ATOM      9  C   UNL     1      45.586   2.574   8.248  0.00  0.00    +0.000 A 
ATOM     10  C   UNL     1      45.906   3.317   7.111  0.00  0.00    +0.000 A 
ATOM     11  C   UNL     1      46.758   2.766   6.154  0.00  0.00    +0.000 A 
ATOM     12  C   UNL     1      47.274   1.493   6.355  0.00  0.00    +0.000 A 
ATOM     13  C   UNL     1      46.923   0.825   7.515  0.00  0.00    +0.000 A 
ATOM     14  N   UNL     1      46.093   1.331   8.456  0.00  0.00    +0.000 NA
ENDBRANCH   8   9
ENDBRANCH   5   8
ENDBRANCH   1   2
BRANCH   1  15
ATOM     15  N   UNL     1      46.716   7.072  13.983  0.00  0.00    +0.000 N 
ATOM     16  C   UNL     1      48.022   6.649  13.961  0.00  0.00    +0.000 C 
ATOM     17  O   UNL     1      48.696   6.668  12.933  0.00  0.00    +0.000 OA
ATOM     18  H   UNL     1      46.133   6.876  14.791  0.00  0.00    +0.000 HD
BRANCH  16  19
ATOM     19  C   UNL     1      48.604   6.214  15.235  0.00  0.00    +0.000 A 
ATOM     20  C   UNL     1      49.710   6.878  15.748  0.00  0.00    +0.000 A 
ATOM     21  S   UNL     1      50.254   6.250  17.235  0.00  0.00    +0.000 S 
ATOM     22  C   UNL     1      49.064   5.035  17.221  0.00  0.00    +0.000 A 
ATOM     23  N   UNL     1      48.996   4.108  18.213  0.00  0.00    +0.000 NA
ATOM     24  C   UNL     1      48.075   3.221  18.052  0.00  0.00    +0.000 A 
ATOM     25  N   UNL     1      47.200   3.183  16.995  0.00  0.00    +0.000 N 
ATOM     26  C   UNL     1      47.196   4.129  15.997  0.00  0.00    +0.000 A 
ATOM     27  O   UNL     1      46.353   4.117  15.104  0.00  0.00    +0.000 OA
ATOM     28  C   UNL     1      48.239   5.129  16.111  0.00  0.00    +0.000 A 
ATOM     29  H   UNL     1      46.488   2.472  16.940  0.00  0.00    +0.000 HD
ENDBRANCH  16  19
ENDBRANCH   1  15
BRANCH   1  30
ATOM     30  C   UNL     1      46.801   8.705  12.104  0.00  0.00    +0.000 C 
BRANCH  30  31
ATOM     31  N   UNL     1      46.715   9.961  12.861  0.00  0.00    +0.000 NA
ATOM     32  H   UNL     1      45.843   9.981  13.388  0.00  0.00    +0.000 HD
ATOM     33  H   UNL     1      46.678  10.747  12.213  0.00  0.00    +0.000 HD
ENDBRANCH  30  31
ENDBRANCH   1  30
TORSDOF 7
ENDMDL
MODEL 2
REMARK VINA RESULT:    -7.948      2.850      4.008
REMARK INTER + INTRA:         -11.355
REMARK INTER:                  -9.902
REMARK INTRA:                  -1.453
REMARK UNBOUND:                -0.388
REMARK  Name = 
REMARK  7 active torsions:
REMARK  status: ('A' for Active; 'I' for Inactive)
REMARK    1  A    between atoms: N_1  and  C_2
REMARK    2  A    between atoms: C_2  and  C_3
REMARK    3  A    between atoms: C_3  and  N_4
REMARK    4  A    between atoms: C_3  and  C_17
REMARK    5  A    between atoms: C_5  and  C_7
REMARK    6  A    between atoms: C_20  and  C_21
REMARK    7  A    between atoms: C_21  and  C_22
REMARK                            x       y       z     vdW  Elec       q    Type
REMARK                         _______ _______ _______ _____ _____    ______ ____
ROOT
ATOM      1  C   UNL     1      47.767   5.050  14.911  0.00  0.00    +0.000 C 
ENDROOT
BRANCH   1   2
ATOM      2  C   UNL     1      46.836   4.923  13.715  0.00  0.00    +0.000 A 
ATOM      3  C   UNL     1      46.791   5.966  12.775  0.00  0.00    +0.000 A 
ATOM      4  C   UNL     1      46.039   5.844  11.603  0.00  0.00    +0.000 A 
ATOM      5  C   UNL     1      45.314   4.676  11.341  0.00  0.00    +0.000 A 
ATOM      6  C   UNL     1      45.306   3.660  12.304  0.00  0.00    +0.000 A 
ATOM      7  C   UNL     1      46.042   3.791  13.486  0.00  0.00    +0.000 A 
BRANCH   5   8
ATOM      8  C   UNL     1      44.560   4.505  10.041  0.00  0.00    +0.000 C 
BRANCH   8   9
ATOM      9  C   UNL     1      45.270   3.708   8.965  0.00  0.00    +0.000 A 
ATOM     10  C   UNL     1      45.333   2.315   9.021  0.00  0.00    +0.000 A 
ATOM     11  C   UNL     1      46.099   1.629   8.081  0.00  0.00    +0.000 A 
ATOM     12  C   UNL     1      46.779   2.345   7.104  0.00  0.00    +0.000 A 
ATOM     13  C   UNL     1      46.654   3.723   7.104  0.00  0.00    +0.000 A 
ATOM     14  N   UNL     1      45.926   4.416   8.009  0.00  0.00    +0.000 NA
ENDBRANCH   8   9
ENDBRANCH   5   8
ENDBRANCH   1   2
BRANCH   1  15
ATOM     15  N   UNL     1      47.768   6.416  15.410  0.00  0.00    +0.000 N 
ATOM     16  C   UNL     1      48.940   7.111  15.575  0.00  0.00    +0.000 C 
ATOM     17  O   UNL     1      50.031   6.634  15.267  0.00  0.00    +0.000 OA
ATOM     18  H   UNL     1      46.913   6.756  15.837  0.00  0.00    +0.000 HD
BRANCH  16  19
ATOM     19  C   UNL     1      48.837   8.479  16.095  0.00  0.00    +0.000 A 
ATOM     20  C   UNL     1      49.284   9.543  15.322  0.00  0.00    +0.000 A 
ATOM     21  S   UNL     1      49.084  11.061  16.071  0.00  0.00    +0.000 S 
ATOM     22  C   UNL     1      48.443  10.345  17.474  0.00  0.00    +0.000 A 
ATOM     23  N   UNL     1      48.093  11.102  18.549  0.00  0.00    +0.000 NA
ATOM     24  C   UNL     1      47.663  10.426  19.559  0.00  0.00    +0.000 A 
ATOM     25  N   UNL     1      47.535   9.060  19.590  0.00  0.00    +0.000 N 
ATOM     26  C   UNL     1      47.826   8.259  18.511  0.00  0.00    +0.000 A 
ATOM     27  O   UNL     1      47.629   7.048  18.538  0.00  0.00    +0.000 OA
ATOM     28  C   UNL     1      48.350   8.968  17.360  0.00  0.00    +0.000 A 
ATOM     29  H   UNL     1      47.172   8.593  20.407  0.00  0.00    +0.000 HD
ENDBRANCH  16  19
ENDBRANCH   1  15
BRANCH   1  30
ATOM     30  C   UNL     1      47.507   4.024  16.056  0.00  0.00    +0.000 C 
BRANCH  30  31
ATOM     31  N   UNL     1      46.780   4.585  17.204  0.00  0.00    +0.000 NA
ATOM     32  H   UNL     1      47.211   5.465  17.480  0.00  0.00    +0.000 HD
ATOM     33  H   UNL     1      46.868   3.957  18.001  0.00  0.00    +0.000 HD
ENDBRANCH  30  31
ENDBRANCH   1  30
TORSDOF 7
ENDMDL
MODEL 3
REMARK VINA RESULT:    -7.701      2.303      3.399
REMARK INTER + INTRA:         -11.015
REMARK INTER:                 -10.489
REMARK INTRA:                  -0.526
REMARK UNBOUND:                -0.388
REMARK  Name = 
REMARK  7 active torsions:
REMARK  status: ('A' for Active; 'I' for Inactive)
REMARK    1  A    between atoms: N_1  and  C_2
REMARK    2  A    between atoms: C_2  and  C_3
REMARK    3  A    between atoms: C_3  and  N_4
REMARK    4  A    between atoms: C_3  and  C_17
REMARK    5  A    between atoms: C_5  and  C_7
REMARK    6  A    between atoms: C_20  and  C_21
REMARK    7  A    between atoms: C_21  and  C_22
REMARK                            x       y       z     vdW  Elec       q    Type
REMARK                         _______ _______ _______ _____ _____    ______ ____
ROOT
ATOM      1  C   UNL     1      45.087   7.492  12.308  0.00  0.00    +0.000 C 
ENDROOT
BRANCH   1   2
ATOM      2  C   UNL     1      45.044   6.242  11.442  0.00  0.00    +0.000 A 
ATOM      3  C   UNL     1      44.070   5.266  11.704  0.00  0.00    +0.000 A 
ATOM      4  C   UNL     1      43.919   4.158  10.865  0.00  0.00    +0.000 A 
ATOM      5  C   UNL     1      44.738   3.999   9.741  0.00  0.00    +0.000 A 
ATOM      6  C   UNL     1      45.750   4.937   9.511  0.00  0.00    +0.000 A 
ATOM      7  C   UNL     1      45.915   6.035  10.363  0.00  0.00    +0.000 A 
BRANCH   5   8
ATOM      8  C   UNL     1      44.531   2.845   8.787  0.00  0.00    +0.000 C 
BRANCH   8   9
ATOM      9  C   UNL     1      45.706   2.510   7.890  0.00  0.00    +0.000 A 
ATOM     10  C   UNL     1      46.004   3.286   6.770  0.00  0.00    +0.000 A 
ATOM     11  C   UNL     1      47.016   2.873   5.905  0.00  0.00    +0.000 A 
ATOM     12  C   UNL     1      47.710   1.702   6.178  0.00  0.00    +0.000 A 
ATOM     13  C   UNL     1      47.367   0.995   7.317  0.00  0.00    +0.000 A 
ATOM     14  N   UNL     1      46.385   1.366   8.170  0.00  0.00    +0.000 NA
ENDBRANCH   8   9
ENDBRANCH   5   8
ENDBRANCH   1   2
BRANCH   1  15
ATOM     15  N   UNL     1      46.425   7.696  12.838  0.00  0.00    +0.000 N 
ATOM     16  C   UNL     1      47.027   6.753  13.632  0.00  0.00    +0.000 C 
ATOM     17  O   UNL     1      46.488   5.679  13.893  0.00  0.00    +0.000 OA
ATOM     18  H   UNL     1      46.806   8.636  12.788  0.00  0.00    +0.000 HD
BRANCH  16  19
ATOM     19  C   UNL     1      48.375   7.057  14.126  0.00  0.00    +0.000 A 
ATOM     20  C   UNL     1      48.666   6.896  15.474  0.00  0.00    +0.000 A 
ATOM     21  S   UNL     1      50.275   7.287  15.876  0.00  0.00    +0.000 S 
ATOM     22  C   UNL     1      50.624   7.736  14.273  0.00  0.00    +0.000 A 
ATOM     23  N   UNL     1      51.850   8.216  13.932  0.00  0.00    +0.000 NA
ATOM     24  C   UNL     1      51.962   8.559  12.694  0.00  0.00    +0.000 A 
ATOM     25  N   UNL     1      50.963   8.452  11.758  0.00  0.00    +0.000 N 
ATOM     26  C   UNL     1      49.726   7.925  12.045  0.00  0.00    +0.000 A 
ATOM     27  O   UNL     1      48.877   7.768  11.173  0.00  0.00    +0.000 OA
ATOM     28  C   UNL     1      49.536   7.557  13.434  0.00  0.00    +0.000 A 
ATOM     29  H   UNL     1      51.123   8.721  10.800  0.00  0.00    +0.000 HD
ENDBRANCH  16  19
ENDBRANCH   1  15
BRANCH   1  30
ATOM     30  C   UNL     1      44.540   8.783  11.624  0.00  0.00    +0.000 C 
BRANCH  30  31
ATOM     31  N   UNL     1      43.234   8.603  10.973  0.00  0.00    +0.000 NA
ATOM     32  H   UNL     1      42.971   7.619  11.007  0.00  0.00    +0.000 HD
ATOM     33  H   UNL     1      43.310   8.848   9.987  0.00  0.00    +0.000 HD
ENDBRANCH  30  31
ENDBRANCH   1  30
TORSDOF 7
ENDMDL
MODEL 4
REMARK VINA RESULT:    -7.677      1.477      2.131
REMARK INTER + INTRA:         -10.981
REMARK INTER:                 -10.504
REMARK INTRA:                  -0.477
REMARK UNBOUND:                -0.388
REMARK  Name = 
REMARK  7 active torsions:
REMARK  status: ('A' for Active; 'I' for Inactive)
REMARK    1  A    between atoms: N_1  and  C_2
REMARK    2  A    between atoms: C_2  and  C_3
REMARK    3  A    between atoms: C_3  and  N_4
REMARK    4  A    between atoms: C_3  and  C_17
REMARK    5  A    between atoms: C_5  and  C_7
REMARK    6  A    between atoms: C_20  and  C_21
REMARK    7  A    between atoms: C_21  and  C_22
REMARK                            x       y       z     vdW  Elec       q    Type
REMARK                         _______ _______ _______ _____ _____    ______ ____
ROOT
ATOM      1  C   UNL     1      45.689   6.717  12.876  0.00  0.00    +0.000 C 
ENDROOT
BRANCH   1   2
ATOM      2  C   UNL     1      45.503   5.742  11.723  0.00  0.00    +0.000 A 
ATOM      3  C   UNL     1      44.811   4.542  11.953  0.00  0.00    +0.000 A 
ATOM      4  C   UNL     1      44.516   3.670  10.901  0.00  0.00    +0.000 A 
ATOM      5  C   UNL     1      44.906   3.977   9.592  0.00  0.00    +0.000 A 
ATOM      6  C   UNL     1      45.650   5.141   9.369  0.00  0.00    +0.000 A 
ATOM      7  C   UNL     1      45.963   6.003  10.425  0.00  0.00    +0.000 A 
BRANCH   5   8
ATOM      8  C   UNL     1      44.524   3.077   8.438  0.00  0.00    +0.000 C 
BRANCH   8   9
ATOM      9  C   UNL     1      45.674   2.552   7.602  0.00  0.00    +0.000 A 
ATOM     10  C   UNL     1      46.400   1.428   7.996  0.00  0.00    +0.000 A 
ATOM     11  C   UNL     1      47.525   1.052   7.264  0.00  0.00    +0.000 A 
ATOM     12  C   UNL     1      47.898   1.800   6.156  0.00  0.00    +0.000 A 
ATOM     13  C   UNL     1      47.119   2.893   5.819  0.00  0.00    +0.000 A 
ATOM     14  N   UNL     1      46.027   3.287   6.514  0.00  0.00    +0.000 NA
ENDBRANCH   8   9
ENDBRANCH   5   8
ENDBRANCH   1   2
BRANCH   1  15
ATOM     15  N   UNL     1      46.166   6.020  14.059  0.00  0.00    +0.000 N 
ATOM     16  C   UNL     1      47.469   5.599  14.159  0.00  0.00    +0.000 C 
ATOM     17  O   UNL     1      48.299   5.831  13.281  0.00  0.00    +0.000 OA
ATOM     18  H   UNL     1      45.467   5.662  14.701  0.00  0.00    +0.000 HD
BRANCH  16  19
ATOM     19  C   UNL     1      47.851   4.895  15.388  0.00  0.00    +0.000 A 
ATOM     20  C   UNL     1      47.526   3.554  15.541  0.00  0.00    +0.000 A 
ATOM     21  S   UNL     1      48.047   2.891  17.021  0.00  0.00    +0.000 S 
ATOM     22  C   UNL     1      48.678   4.385  17.532  0.00  0.00    +0.000 A 
ATOM     23  N   UNL     1      49.246   4.523  18.760  0.00  0.00    +0.000 NA
ATOM     24  C   UNL     1      49.642   5.718  19.033  0.00  0.00    +0.000 A 
ATOM     25  N   UNL     1      49.537   6.792  18.183  0.00  0.00    +0.000 N 
ATOM     26  C   UNL     1      49.019   6.689  16.913  0.00  0.00    +0.000 A 
ATOM     27  O   UNL     1      49.008   7.646  16.145  0.00  0.00    +0.000 OA
ATOM     28  C   UNL     1      48.524   5.370  16.571  0.00  0.00    +0.000 A 
ATOM     29  H   UNL     1      49.886   7.699  18.451  0.00  0.00    +0.000 HD
ENDBRANCH  16  19
ENDBRANCH   1  15
BRANCH   1  30
ATOM     30  C   UNL     1      46.576   7.958  12.548  0.00  0.00    +0.000 C 
BRANCH  30  31
ATOM     31  N   UNL     1      46.400   9.078  13.484  0.00  0.00    +0.000 NA
ATOM     32  H   UNL     1      46.956   9.872  13.172  0.00  0.00    +0.000 HD
ATOM     33  H   UNL     1      46.760   8.814  14.400  0.00  0.00    +0.000 HD
ENDBRANCH  30  31
ENDBRANCH   1  30
TORSDOF 7
ENDMDL
MODEL 5
REMARK VINA RESULT:    -7.640      1.707      2.222
REMARK INTER + INTRA:         -10.931
REMARK INTER:                  -9.685
REMARK INTRA:                  -1.246
REMARK UNBOUND:                -0.388
REMARK  Name = 
REMARK  7 active torsions:
REMARK  status: ('A' for Active; 'I' for Inactive)
REMARK    1  A    between atoms: N_1  and  C_2
REMARK    2  A    between atoms: C_2  and  C_3
REMARK    3  A    between atoms: C_3  and  N_4
REMARK    4  A    between atoms: C_3  and  C_17
REMARK    5  A    between atoms: C_5  and  C_7
REMARK    6  A    between atoms: C_20  and  C_21
REMARK    7  A    between atoms: C_21  and  C_22
REMARK                            x       y       z     vdW  Elec       q    Type
REMARK                         _______ _______ _______ _____ _____    ______ ____
ROOT
ATOM      1  C   UNL     1      47.348   8.056  13.728  0.00  0.00    +0.000 C 
ENDROOT
BRANCH   1   2
ATOM      2  C   UNL     1      46.410   7.160  12.935  0.00  0.00    +0.000 A 
ATOM      3  C   UNL     1      45.333   7.742  12.248  0.00  0.00    +0.000 A 
ATOM      4  C   UNL     1      44.514   6.976  11.414  0.00  0.00    +0.000 A 
ATOM      5  C   UNL     1      44.752   5.607  11.245  0.00  0.00    +0.000 A 
ATOM      6  C   UNL     1      45.786   5.011  11.975  0.00  0.00    +0.000 A 
ATOM      7  C   UNL     1      46.593   5.774  12.826  0.00  0.00    +0.000 A 
BRANCH   5   8
ATOM      8  C   UNL     1      43.919   4.786  10.286  0.00  0.00    +0.000 C 
BRANCH   8   9
ATOM      9  C   UNL     1      44.692   3.892   9.337  0.00  0.00    +0.000 A 
ATOM     10  C   UNL     1      44.744   2.511   9.527  0.00  0.00    +0.000 A 
ATOM     11  C   UNL     1      45.565   1.740   8.706  0.00  0.00    +0.000 A 
ATOM     12  C   UNL     1      46.310   2.361   7.713  0.00  0.00    +0.000 A 
ATOM     13  C   UNL     1      46.193   3.734   7.576  0.00  0.00    +0.000 A 
ATOM     14  N   UNL     1      45.412   4.508   8.363  0.00  0.00    +0.000 NA
ENDBRANCH   8   9
ENDBRANCH   5   8
ENDBRANCH   1   2
BRANCH   1  15
ATOM     15  N   UNL     1      48.252   7.254  14.538  0.00  0.00    +0.000 N 
ATOM     16  C   UNL     1      48.605   7.643  15.806  0.00  0.00    +0.000 C 
ATOM     17  O   UNL     1      48.140   8.654  16.332  0.00  0.00    +0.000 OA
ATOM     18  H   UNL     1      48.780   6.529  14.065  0.00  0.00    +0.000 HD
BRANCH  16  19
ATOM     19  C   UNL     1      49.530   6.771  16.538  0.00  0.00    +0.000 A 
ATOM     20  C   UNL     1      50.742   7.279  16.988  0.00  0.00    +0.000 A 
ATOM     21  S   UNL     1      51.691   6.137  17.823  0.00  0.00    +0.000 S 
ATOM     22  C   UNL     1      50.541   4.911  17.568  0.00  0.00    +0.000 A 
ATOM     23  N   UNL     1      50.760   3.642  18.005  0.00  0.00    +0.000 NA
ATOM     24  C   UNL     1      49.826   2.806  17.705  0.00  0.00    +0.000 A 
ATOM     25  N   UNL     1      48.681   3.124  17.019  0.00  0.00    +0.000 N 
ATOM     26  C   UNL     1      48.391   4.403  16.602  0.00  0.00    +0.000 A 
ATOM     27  O   UNL     1      47.325   4.676  16.059  0.00  0.00    +0.000 OA
ATOM     28  C   UNL     1      49.429   5.376  16.883  0.00  0.00    +0.000 A 
ATOM     29  H   UNL     1      47.978   2.425  16.833  0.00  0.00    +0.000 HD
ENDBRANCH  16  19
ENDBRANCH   1  15
BRANCH   1  30
ATOM     30  C   UNL     1      48.125   9.109  12.879  0.00  0.00    +0.000 C 
BRANCH  30  31
ATOM     31  N   UNL     1      49.559   8.818  12.738  0.00  0.00    +0.000 NA
ATOM     32  H   UNL     1      50.026   8.978  13.629  0.00  0.00    +0.000 HD
ATOM     33  H   UNL     1      49.974   9.470  12.073  0.00  0.00    +0.000 HD
ENDBRANCH  30  31
ENDBRANCH   1  30
TORSDOF 7
ENDMDL
MODEL 6
REMARK VINA RESULT:    -7.516      2.222      2.891
REMARK INTER + INTRA:         -10.759
REMARK INTER:                  -9.421
REMARK INTRA:                  -1.338
REMARK UNBOUND:                -0.388
REMARK  Name = 
REMARK  7 active torsions:
REMARK  status: ('A' for Active; 'I' for Inactive)
REMARK    1  A    between atoms: N_1  and  C_2
REMARK    2  A    between atoms: C_2  and  C_3
REMARK    3  A    between atoms: C_3  and  N_4
REMARK    4  A    between atoms: C_3  and  C_17
REMARK    5  A    between atoms: C_5  and  C_7
REMARK    6  A    between atoms: C_20  and  C_21
REMARK    7  A    between atoms: C_21  and  C_22
REMARK                            x       y       z     vdW  Elec       q    Type
REMARK                         _______ _______ _______ _____ _____    ______ ____
ROOT
ATOM      1  C   UNL     1      47.785   8.116  13.800  0.00  0.00    +0.000 C 
ENDROOT
BRANCH   1   2
ATOM      2  C   UNL     1      46.806   7.211  13.068  0.00  0.00    +0.000 A 
ATOM      3  C   UNL     1      45.895   7.784  12.166  0.00  0.00    +0.000 A 
ATOM      4  C   UNL     1      45.056   6.983  11.387  0.00  0.00    +0.000 A 
ATOM      5  C   UNL     1      45.106   5.588  11.489  0.00  0.00    +0.000 A 
ATOM      6  C   UNL     1      45.968   5.015  12.432  0.00  0.00    +0.000 A 
ATOM      7  C   UNL     1      46.793   5.819  13.227  0.00  0.00    +0.000 A 
BRANCH   5   8
ATOM      8  C   UNL     1      44.257   4.712  10.596  0.00  0.00    +0.000 C 
BRANCH   8   9
ATOM      9  C   UNL     1      45.011   3.877   9.580  0.00  0.00    +0.000 A 
ATOM     10  C   UNL     1      45.670   4.470   8.504  0.00  0.00    +0.000 A 
ATOM     11  C   UNL     1      46.246   3.660   7.527  0.00  0.00    +0.000 A 
ATOM     12  C   UNL     1      46.156   2.280   7.647  0.00  0.00    +0.000 A 
ATOM     13  C   UNL     1      45.499   1.766   8.751  0.00  0.00    +0.000 A 
ATOM     14  N   UNL     1      44.924   2.527   9.710  0.00  0.00    +0.000 NA
ENDBRANCH   8   9
ENDBRANCH   5   8
ENDBRANCH   1   2
BRANCH   1  15
ATOM     15  N   UNL     1      47.909   7.711  15.190  0.00  0.00    +0.000 N 
ATOM     16  C   UNL     1      48.270   8.609  16.164  0.00  0.00    +0.000 C 
ATOM     17  O   UNL     1      48.459   9.799  15.916  0.00  0.00    +0.000 OA
ATOM     18  H   UNL     1      47.938   6.715  15.384  0.00  0.00    +0.000 HD
BRANCH  16  19
ATOM     19  C   UNL     1      48.378   8.100  17.535  0.00  0.00    +0.000 A 
ATOM     20  C   UNL     1      47.828   8.827  18.583  0.00  0.00    +0.000 A 
ATOM     21  S   UNL     1      48.036   8.092  20.106  0.00  0.00    +0.000 S 
ATOM     22  C   UNL     1      48.913   6.803  19.425  0.00  0.00    +0.000 A 
ATOM     23  N   UNL     1      49.431   5.818  20.207  0.00  0.00    +0.000 NA
ATOM     24  C   UNL     1      50.109   4.930  19.566  0.00  0.00    +0.000 A 
ATOM     25  N   UNL     1      50.307   4.925  18.207  0.00  0.00    +0.000 N 
ATOM     26  C   UNL     1      49.759   5.870  17.371  0.00  0.00    +0.000 A 
ATOM     27  O   UNL     1      49.886   5.800  16.152  0.00  0.00    +0.000 OA
ATOM     28  C   UNL     1      49.017   6.915  18.049  0.00  0.00    +0.000 A 
ATOM     29  H   UNL     1      50.833   4.188  17.764  0.00  0.00    +0.000 HD
ENDBRANCH  16  19
ENDBRANCH   1  15
BRANCH   1  30
ATOM     30  C   UNL     1      49.182   8.256  13.120  0.00  0.00    +0.000 C 
BRANCH  30  31
ATOM     31  N   UNL     1      50.115   7.169  13.448  0.00  0.00    +0.000 NA
ATOM     32  H   UNL     1      49.624   6.449  13.975  0.00  0.00    +0.000 HD
ATOM     33  H   UNL     1      50.849   7.525  14.059  0.00  0.00    +0.000 HD
ENDBRANCH  30  31
ENDBRANCH   1  30
TORSDOF 7
ENDMDL
MODEL 7
REMARK VINA RESULT:    -7.431      1.899      2.603
REMARK INTER + INTRA:         -10.643
REMARK INTER:                  -9.932
REMARK INTRA:                  -0.711
REMARK UNBOUND:                -0.388
REMARK  Name = 
REMARK  7 active torsions:
REMARK  status: ('A' for Active; 'I' for Inactive)
REMARK    1  A    between atoms: N_1  and  C_2
REMARK    2  A    between atoms: C_2  and  C_3
REMARK    3  A    between atoms: C_3  and  N_4
REMARK    4  A    between atoms: C_3  and  C_17
REMARK    5  A    between atoms: C_5  and  C_7
REMARK    6  A    between atoms: C_20  and  C_21
REMARK    7  A    between atoms: C_21  and  C_22
REMARK                            x       y       z     vdW  Elec       q    Type
REMARK                         _______ _______ _______ _____ _____    ______ ____
ROOT
ATOM      1  C   UNL     1      44.501   4.697  13.179  0.00  0.00    +0.000 C 
ENDROOT
BRANCH   1   2
ATOM      2  C   UNL     1      44.709   4.382  11.706  0.00  0.00    +0.000 A 
ATOM      3  C   UNL     1      44.210   3.174  11.192  0.00  0.00    +0.000 A 
ATOM      4  C   UNL     1      44.277   2.894   9.824  0.00  0.00    +0.000 A 
ATOM      5  C   UNL     1      44.843   3.816   8.935  0.00  0.00    +0.000 A 
ATOM      6  C   UNL     1      45.396   4.993   9.452  0.00  0.00    +0.000 A 
ATOM      7  C   UNL     1      45.349   5.263  10.824  0.00  0.00    +0.000 A 
BRANCH   5   8
ATOM      8  C   UNL     1      44.849   3.554   7.446  0.00  0.00    +0.000 C 
BRANCH   8   9
ATOM      9  C   UNL     1      46.128   2.965   6.884  0.00  0.00    +0.000 A 
ATOM     10  C   UNL     1      46.584   3.310   5.612  0.00  0.00    +0.000 A 
ATOM     11  C   UNL     1      47.696   2.654   5.086  0.00  0.00    +0.000 A 
ATOM     12  C   UNL     1      48.328   1.674   5.839  0.00  0.00    +0.000 A 
ATOM     13  C   UNL     1      47.825   1.398   7.099  0.00  0.00    +0.000 A 
ATOM     14  N   UNL     1      46.744   2.012   7.632  0.00  0.00    +0.000 NA
ENDBRANCH   8   9
ENDBRANCH   5   8
ENDBRANCH   1   2
BRANCH   1  15
ATOM     15  N   UNL     1      45.624   5.459  13.699  0.00  0.00    +0.000 N 
ATOM     16  C   UNL     1      46.722   4.832  14.234  0.00  0.00    +0.000 C 
ATOM     17  O   UNL     1      46.828   3.607  14.255  0.00  0.00    +0.000 OA
ATOM     18  H   UNL     1      45.480   6.451  13.857  0.00  0.00    +0.000 HD
BRANCH  16  19
ATOM     19  C   UNL     1      47.799   5.690  14.741  0.00  0.00    +0.000 A 
ATOM     20  C   UNL     1      48.452   6.557  13.876  0.00  0.00    +0.000 A 
ATOM     21  S   UNL     1      49.669   7.483  14.628  0.00  0.00    +0.000 S 
ATOM     22  C   UNL     1      49.401   6.720  16.124  0.00  0.00    +0.000 A 
ATOM     23  N   UNL     1      50.157   7.028  17.212  0.00  0.00    +0.000 NA
ATOM     24  C   UNL     1      49.876   6.343  18.267  0.00  0.00    +0.000 A 
ATOM     25  N   UNL     1      48.895   5.384  18.341  0.00  0.00    +0.000 N 
ATOM     26  C   UNL     1      48.073   5.076  17.282  0.00  0.00    +0.000 A 
ATOM     27  O   UNL     1      47.153   4.271  17.396  0.00  0.00    +0.000 OA
ATOM     28  C   UNL     1      48.373   5.794  16.059  0.00  0.00    +0.000 A 
ATOM     29  H   UNL     1      48.713   4.897  19.204  0.00  0.00    +0.000 HD
ENDBRANCH  16  19
ENDBRANCH   1  15
BRANCH   1  30
ATOM     30  C   UNL     1      43.140   5.382  13.518  0.00  0.00    +0.000 C 
BRANCH  30  31
ATOM     31  N   UNL     1      42.274   5.591  12.349  0.00  0.00    +0.000 NA
ATOM     32  H   UNL     1      42.686   5.137  11.536  0.00  0.00    +0.000 HD
ATOM     33  H   UNL     1      42.229   6.586  12.133  0.00  0.00    +0.000 HD
ENDBRANCH  30  31
ENDBRANCH   1  30
TORSDOF 7
ENDMDL
MODEL 8
REMARK VINA RESULT:    -7.225      3.279      4.618
REMARK INTER + INTRA:         -10.358
REMARK INTER:                  -9.479
REMARK INTRA:                  -0.879
REMARK UNBOUND:                -0.388
REMARK  Name = 
REMARK  7 active torsions:
REMARK  status: ('A' for Active; 'I' for Inactive)
REMARK    1  A    between atoms: N_1  and  C_2
REMARK    2  A    between atoms: C_2  and  C_3
REMARK    3  A    between atoms: C_3  and  N_4
REMARK    4  A    between atoms: C_3  and  C_17
REMARK    5  A    between atoms: C_5  and  C_7
REMARK    6  A    between atoms: C_20  and  C_21
REMARK    7  A    between atoms: C_21  and  C_22
REMARK                            x       y       z     vdW  Elec       q    Type
REMARK                         _______ _______ _______ _____ _____    ______ ____
ROOT
ATOM      1  C   UNL     1      46.447   7.428  12.742  0.00  0.00    +0.000 C 
ENDROOT
BRANCH   1   2
ATOM      2  C   UNL     1      46.068   6.299  11.797  0.00  0.00    +0.000 A 
ATOM      3  C   UNL     1      45.510   5.126  12.329  0.00  0.00    +0.000 A 
ATOM      4  C   UNL     1      45.041   4.109  11.492  0.00  0.00    +0.000 A 
ATOM      5  C   UNL     1      45.118   4.241  10.100  0.00  0.00    +0.000 A 
ATOM      6  C   UNL     1      45.730   5.381   9.567  0.00  0.00    +0.000 A 
ATOM      7  C   UNL     1      46.218   6.389  10.406  0.00  0.00    +0.000 A 
BRANCH   5   8
ATOM      8  C   UNL     1      44.544   3.181   9.187  0.00  0.00    +0.000 C 
BRANCH   8   9
ATOM      9  C   UNL     1      45.478   2.656   8.115  0.00  0.00    +0.000 A 
ATOM     10  C   UNL     1      46.171   1.457   8.285  0.00  0.00    +0.000 A 
ATOM     11  C   UNL     1      47.112   1.073   7.331  0.00  0.00    +0.000 A 
ATOM     12  C   UNL     1      47.336   1.888   6.229  0.00  0.00    +0.000 A 
ATOM     13  C   UNL     1      46.598   3.054   6.123  0.00  0.00    +0.000 A 
ATOM     14  N   UNL     1      45.686   3.457   7.037  0.00  0.00    +0.000 NA
ENDBRANCH   8   9
ENDBRANCH   5   8
ENDBRANCH   1   2
BRANCH   1  15
ATOM     15  N   UNL     1      47.700   8.038  12.328  0.00  0.00    +0.000 N 
ATOM     16  C   UNL     1      48.902   7.407  12.539  0.00  0.00    +0.000 C 
ATOM     17  O   UNL     1      48.971   6.286  13.041  0.00  0.00    +0.000 OA
ATOM     18  H   UNL     1      47.681   9.023  12.086  0.00  0.00    +0.000 HD
BRANCH  16  19
ATOM     19  C   UNL     1      50.111   8.108  12.094  0.00  0.00    +0.000 A 
ATOM     20  C   UNL     1      50.903   7.549  11.101  0.00  0.00    +0.000 A 
ATOM     21  S   UNL     1      52.263   8.495  10.700  0.00  0.00    +0.000 S 
ATOM     22  C   UNL     1      51.869   9.658  11.876  0.00  0.00    +0.000 A 
ATOM     23  N   UNL     1      52.667  10.739  12.087  0.00  0.00    +0.000 NA
ATOM     24  C   UNL     1      52.273  11.515  13.038  0.00  0.00    +0.000 A 
ATOM     25  N   UNL     1      51.141  11.319  13.790  0.00  0.00    +0.000 N 
ATOM     26  C   UNL     1      50.277  10.271  13.579  0.00  0.00    +0.000 A 
ATOM     27  O   UNL     1      49.232  10.161  14.213  0.00  0.00    +0.000 OA
ATOM     28  C   UNL     1      50.696   9.347  12.543  0.00  0.00    +0.000 A 
ATOM     29  H   UNL     1      50.878  11.977  14.508  0.00  0.00    +0.000 HD
ENDBRANCH  16  19
ENDBRANCH   1  15
BRANCH   1  30
ATOM     30  C   UNL     1      45.336   8.501  12.961  0.00  0.00    +0.000 C 
BRANCH  30  31
ATOM     31  N   UNL     1      45.756   9.869  12.626  0.00  0.00    +0.000 NA
ATOM     32  H   UNL     1      46.025   9.911  11.645  0.00  0.00    +0.000 HD
ATOM     33  H   UNL     1      46.587  10.110  13.164  0.00  0.00    +0.000 HD
ENDBRANCH  30  31
ENDBRANCH   1  30
TORSDOF 7
ENDMDL
MODEL 9
REMARK VINA RESULT:    -6.947      3.734      8.048
REMARK INTER + INTRA:          -9.975
REMARK INTER:                  -8.695
REMARK INTRA:                  -1.280
REMARK UNBOUND:                -0.388
REMARK  Name = 
REMARK  7 active torsions:
REMARK  status: ('A' for Active; 'I' for Inactive)
REMARK    1  A    between atoms: N_1  and  C_2
REMARK    2  A    between atoms: C_2  and  C_3
REMARK    3  A    between atoms: C_3  and  N_4
REMARK    4  A    between atoms: C_3  and  C_17
REMARK    5  A    between atoms: C_5  and  C_7
REMARK    6  A    between atoms: C_20  and  C_21
REMARK    7  A    between atoms: C_21  and  C_22
REMARK                            x       y       z     vdW  Elec       q    Type
REMARK                         _______ _______ _______ _____ _____    ______ ____
ROOT
ATOM      1  C   UNL     1      48.706   8.004  14.865  0.00  0.00    +0.000 C 
ENDROOT
BRANCH   1   2
ATOM      2  C   UNL     1      49.504   7.270  15.932  0.00  0.00    +0.000 A 
ATOM      3  C   UNL     1      48.821   6.689  17.012  0.00  0.00    +0.000 A 
ATOM      4  C   UNL     1      49.498   5.909  17.954  0.00  0.00    +0.000 A 
ATOM      5  C   UNL     1      50.875   5.688  17.838  0.00  0.00    +0.000 A 
ATOM      6  C   UNL     1      51.570   6.316  16.798  0.00  0.00    +0.000 A 
ATOM      7  C   UNL     1      50.896   7.115  15.868  0.00  0.00    +0.000 A 
BRANCH   5   8
ATOM      8  C   UNL     1      51.601   4.783  18.808  0.00  0.00    +0.000 C 
BRANCH   8   9
ATOM      9  C   UNL     1      51.958   3.406  18.285  0.00  0.00    +0.000 A 
ATOM     10  C   UNL     1      51.023   2.628  17.601  0.00  0.00    +0.000 A 
ATOM     11  C   UNL     1      51.352   1.322  17.246  0.00  0.00    +0.000 A 
ATOM     12  C   UNL     1      52.605   0.822  17.576  0.00  0.00    +0.000 A 
ATOM     13  C   UNL     1      53.484   1.659  18.241  0.00  0.00    +0.000 A 
ATOM     14  N   UNL     1      53.189   2.928  18.606  0.00  0.00    +0.000 NA
ENDBRANCH   8   9
ENDBRANCH   5   8
ENDBRANCH   1   2
BRANCH   1  15
ATOM     15  N   UNL     1      47.610   7.175  14.391  0.00  0.00    +0.000 N 
ATOM     16  C   UNL     1      47.781   6.295  13.351  0.00  0.00    +0.000 C 
ATOM     17  O   UNL     1      48.872   6.133  12.807  0.00  0.00    +0.000 OA
ATOM     18  H   UNL     1      46.674   7.422  14.698  0.00  0.00    +0.000 HD
BRANCH  16  19
ATOM     19  C   UNL     1      46.611   5.512  12.941  0.00  0.00    +0.000 A 
ATOM     20  C   UNL     1      46.632   4.129  13.066  0.00  0.00    +0.000 A 
ATOM     21  S   UNL     1      45.193   3.376  12.551  0.00  0.00    +0.000 S 
ATOM     22  C   UNL     1      44.512   4.865  12.094  0.00  0.00    +0.000 A 
ATOM     23  N   UNL     1      43.277   4.927  11.527  0.00  0.00    +0.000 NA
ATOM     24  C   UNL     1      42.904   6.113  11.189  0.00  0.00    +0.000 A 
ATOM     25  N   UNL     1      43.646   7.252  11.381  0.00  0.00    +0.000 N 
ATOM     26  C   UNL     1      44.876   7.246  11.997  0.00  0.00    +0.000 A 
ATOM     27  O   UNL     1      45.485   8.286  12.226  0.00  0.00    +0.000 OA
ATOM     28  C   UNL     1      45.358   5.928  12.363  0.00  0.00    +0.000 A 
ATOM     29  H   UNL     1      43.286   8.154  11.112  0.00  0.00    +0.000 HD
ENDBRANCH  16  19
ENDBRANCH   1  15
BRANCH   1  30
ATOM     30  C   UNL     1      48.211   9.425  15.277  0.00  0.00    +0.000 C 
BRANCH  30  31
ATOM     31  N   UNL     1      48.656  10.495  14.372  0.00  0.00    +0.000 NA
ATOM     32  H   UNL     1      49.139  11.214  14.908  0.00  0.00    +0.000 HD
ATOM     33  H   UNL     1      47.843  10.943  13.952  0.00  0.00    +0.000 HD
ENDBRANCH  30  31
ENDBRANCH   1  30
TORSDOF 7
ENDMDL
