MODEL 1
REMARK VINA RESULT:    -7.847      0.000      0.000
REMARK INTER + INTRA:         -11.733
REMARK INTER:                 -11.059
REMARK INTRA:                  -0.675
REMARK UNBOUND:                -0.675
REMARK  Name = 
REMARK  8 active torsions:
REMARK  status: ('A' for Active; 'I' for Inactive)
REMARK    1  A    between atoms: C_1  and  C_2
REMARK    2  A    between atoms: C_2  and  N_3
REMARK    3  A    between atoms: N_3  and  C_4
REMARK    4  A    between atoms: C_4  and  C_5
REMARK    5  A    between atoms: C_8  and  O_9
REMARK    6  A    between atoms: O_9  and  C_10
REMARK    7  A    between atoms: C_10  and  C_11
REMARK    8  A    between atoms: C_14  and  C_15
REMARK                            x       y       z     vdW  Elec       q    Type
REMARK                         _______ _______ _______ _____ _____    ______ ____
ROOT
ATOM      1  O   UNL     1      44.583   5.824  10.742  0.00  0.00    +0.000 OA
ENDROOT
BRANCH   1   5
ATOM      2  C   UNL     1      46.693   4.806  14.126  0.00  0.00    +0.000 A 
ATOM      3  C   UNL     1      47.242   5.701  13.207  0.00  0.00    +0.000 A 
ATOM      4  C   UNL     1      46.495   6.061  12.086  0.00  0.00    +0.000 A 
ATOM      5  C   UNL     1      45.233   5.509  11.902  0.00  0.00    +0.000 A 
ATOM      6  C   UNL     1      44.743   4.675  12.901  0.00  0.00    +0.000 A 
ATOM      7  N   UNL     1      45.442   4.301  13.993  0.00  0.00    +0.000 NA
BRANCH   2   8
ATOM      8  C   UNL     1      47.466   4.382  15.356  0.00  0.00    +0.000 C 
BRANCH   8   9
ATOM      9  N   UNL     1      47.912   2.981  15.337  0.00  0.00    +0.000 NA
ATOM     10  H   UNL     1      47.105   2.399  15.111  0.00  0.00    +0.000 HD
BRANCH   9  12
ATOM     11  C   UNL     1      47.401   2.868  17.713  0.00  0.00    +0.000 C 
ATOM     12  C   UNL     1      48.437   2.571  16.642  0.00  0.00    +0.000 C 
ENDBRANCH   9  12
ENDBRANCH   8   9
ENDBRANCH   2   8
ENDBRANCH   1   5
BRANCH   1  13
ATOM     13  C   UNL     1      43.813   4.748  10.198  0.00  0.00    +0.000 C 
BRANCH  13  14
ATOM     14  C   UNL     1      44.665   3.899   9.302  0.00  0.00    +0.000 A 
ATOM     15  C   UNL     1      45.542   4.483   8.378  0.00  0.00    +0.000 A 
ATOM     16  C   UNL     1      46.400   3.677   7.641  0.00  0.00    +0.000 A 
ATOM     17  C   UNL     1      46.352   2.306   7.853  0.00  0.00    +0.000 A 
ATOM     18  N   UNL     1      45.509   1.699   8.735  0.00  0.00    +0.000 NA
ATOM     19  C   UNL     1      44.690   2.514   9.435  0.00  0.00    +0.000 A 
BRANCH  17  20
ATOM     20  C   UNL     1      47.291   1.413   7.103  0.00  0.00    +0.000 C 
ATOM     21  N   UNL     1      48.292   2.055   6.421  0.00  0.00    +0.000 N 
ATOM     22  O   UNL     1      47.178   0.195   7.088  0.00  0.00    +0.000 OA
ATOM     23  H   UNL     1      48.344   3.066   6.454  0.00  0.00    +0.000 HD
ATOM     24  H   UNL     1      48.954   1.516   5.885  0.00  0.00    +0.000 HD
ENDBRANCH  17  20
ENDBRANCH  13  14
ENDBRANCH   1  13
TORSDOF 7
ENDMDL
MODEL 2
REMARK VINA RESULT:    -7.300      1.884      2.887
REMARK INTER + INTRA:         -10.962
REMARK INTER:                 -10.098
REMARK INTRA:                  -0.864
REMARK UNBOUND:                -0.675
REMARK  Name = 
REMARK  8 active torsions:
REMARK  status: ('A' for Active; 'I' for Inactive)
REMARK    1  A    between atoms: C_1  and  C_2
REMARK    2  A    between atoms: C_2  and  N_3
REMARK    3  A    between atoms: N_3  and  C_4
REMARK    4  A    between atoms: C_4  and  C_5
REMARK    5  A    between atoms: C_8  and  O_9
REMARK    6  A    between atoms: O_9  and  C_10
REMARK    7  A    between atoms: C_10  and  C_11
REMARK    8  A    between atoms: C_14  and  C_15
REMARK                            x       y       z     vdW  Elec       q    Type
REMARK                         _______ _______ _______ _____ _____    ______ ____
ROOT
ATOM      1  O   UNL     1      44.280   3.416  11.933  0.00  0.00    +0.000 OA
ENDROOT
BRANCH   1   5
ATOM      2  C   UNL     1      47.088   5.993  13.488  0.00  0.00    +0.000 A 
ATOM      3  C   UNL     1      45.933   6.500  12.893  0.00  0.00    +0.000 A 
ATOM      4  C   UNL     1      44.977   5.609  12.406  0.00  0.00    +0.000 A 
ATOM      5  C   UNL     1      45.205   4.242  12.509  0.00  0.00    +0.000 A 
ATOM      6  C   UNL     1      46.355   3.829  13.173  0.00  0.00    +0.000 A 
ATOM      7  N   UNL     1      47.301   4.664  13.648  0.00  0.00    +0.000 NA
BRANCH   2   8
ATOM      8  C   UNL     1      48.155   6.920  14.029  0.00  0.00    +0.000 C 
BRANCH   8   9
ATOM      9  N   UNL     1      49.453   6.812  13.345  0.00  0.00    +0.000 NA
ATOM     10  H   UNL     1      50.143   7.316  13.901  0.00  0.00    +0.000 HD
BRANCH   9  12
ATOM     11  C   UNL     1      48.975   8.862  12.124  0.00  0.00    +0.000 C 
ATOM     12  C   UNL     1      49.400   7.407  12.007  0.00  0.00    +0.000 C 
ENDBRANCH   9  12
ENDBRANCH   8   9
ENDBRANCH   2   8
ENDBRANCH   1   5
BRANCH   1  13
ATOM     13  C   UNL     1      43.776   3.894  10.682  0.00  0.00    +0.000 C 
BRANCH  13  14
ATOM     14  C   UNL     1      44.678   3.469   9.562  0.00  0.00    +0.000 A 
ATOM     15  C   UNL     1      45.315   4.418   8.751  0.00  0.00    +0.000 A 
ATOM     16  C   UNL     1      46.231   4.001   7.794  0.00  0.00    +0.000 A 
ATOM     17  C   UNL     1      46.482   2.640   7.679  0.00  0.00    +0.000 A 
ATOM     18  N   UNL     1      45.877   1.685   8.442  0.00  0.00    +0.000 NA
ATOM     19  C   UNL     1      44.993   2.129   9.362  0.00  0.00    +0.000 A 
BRANCH  17  20
ATOM     20  C   UNL     1      47.492   2.160   6.684  0.00  0.00    +0.000 C 
ATOM     21  N   UNL     1      47.735   3.013   5.639  0.00  0.00    +0.000 N 
ATOM     22  O   UNL     1      48.062   1.083   6.785  0.00  0.00    +0.000 OA
ATOM     23  H   UNL     1      47.236   3.892   5.589  0.00  0.00    +0.000 HD
ATOM     24  H   UNL     1      48.397   2.749   4.925  0.00  0.00    +0.000 HD
ENDBRANCH  17  20
ENDBRANCH  13  14
ENDBRANCH   1  13
TORSDOF 7
ENDMDL
MODEL 3
REMARK VINA RESULT:    -7.183      1.412      1.749
REMARK INTER + INTRA:         -10.797
REMARK INTER:                 -10.207
REMARK INTRA:                  -0.591
REMARK UNBOUND:                -0.675
REMARK  Name = 
REMARK  8 active torsions:
REMARK  status: ('A' for Active; 'I' for Inactive)
REMARK    1  A    between atoms: C_1  and  C_2
REMARK    2  A    between atoms: C_2  and  N_3
REMARK    3  A    between atoms: N_3  and  C_4
REMARK    4  A    between atoms: C_4  and  C_5
REMARK    5  A    between atoms: C_8  and  O_9
REMARK    6  A    between atoms: O_9  and  C_10
REMARK    7  A    between atoms: C_10  and  C_11
REMARK    8  A    between atoms: C_14  and  C_15
REMARK                            x       y       z     vdW  Elec       q    Type
REMARK                         _______ _______ _______ _____ _____    ______ ____
ROOT
ATOM      1  O   UNL     1      44.286   5.549  10.782  0.00  0.00    +0.000 OA
ENDROOT
BRANCH   1   5
ATOM      2  C   UNL     1      46.611   4.913  14.118  0.00  0.00    +0.000 A 
ATOM      3  C   UNL     1      46.886   5.989  13.273  0.00  0.00    +0.000 A 
ATOM      4  C   UNL     1      46.063   6.208  12.169  0.00  0.00    +0.000 A 
ATOM      5  C   UNL     1      45.003   5.343  11.927  0.00  0.00    +0.000 A 
ATOM      6  C   UNL     1      44.768   4.336  12.857  0.00  0.00    +0.000 A 
ATOM      7  N   UNL     1      45.549   4.093  13.930  0.00  0.00    +0.000 NA
BRANCH   2   8
ATOM      8  C   UNL     1      47.477   4.633  15.327  0.00  0.00    +0.000 C 
BRANCH   8   9
ATOM      9  N   UNL     1      48.646   5.518  15.451  0.00  0.00    +0.000 NA
ATOM     10  H   UNL     1      49.467   4.997  15.142  0.00  0.00    +0.000 HD
BRANCH   9  12
ATOM     11  C   UNL     1      50.221   5.472  17.305  0.00  0.00    +0.000 C 
ATOM     12  C   UNL     1      48.851   5.938  16.840  0.00  0.00    +0.000 C 
ENDBRANCH   9  12
ENDBRANCH   8   9
ENDBRANCH   2   8
ENDBRANCH   1   5
BRANCH   1  13
ATOM     13  C   UNL     1      43.816   4.344  10.168  0.00  0.00    +0.000 C 
BRANCH  13  14
ATOM     14  C   UNL     1      44.874   3.768   9.276  0.00  0.00    +0.000 A 
ATOM     15  C   UNL     1      45.120   2.390   9.248  0.00  0.00    +0.000 A 
ATOM     16  C   UNL     1      46.027   1.871   8.332  0.00  0.00    +0.000 A 
ATOM     17  C   UNL     1      46.660   2.755   7.468  0.00  0.00    +0.000 A 
ATOM     18  N   UNL     1      46.455   4.103   7.469  0.00  0.00    +0.000 NA
ATOM     19  C   UNL     1      45.566   4.570   8.373  0.00  0.00    +0.000 A 
BRANCH  17  20
ATOM     20  C   UNL     1      47.614   2.225   6.443  0.00  0.00    +0.000 C 
ATOM     21  N   UNL     1      47.838   3.048   5.370  0.00  0.00    +0.000 N 
ATOM     22  O   UNL     1      48.156   1.134   6.544  0.00  0.00    +0.000 OA
ATOM     23  H   UNL     1      47.362   3.941   5.322  0.00  0.00    +0.000 HD
ATOM     24  H   UNL     1      48.461   2.750   4.636  0.00  0.00    +0.000 HD
ENDBRANCH  17  20
ENDBRANCH  13  14
ENDBRANCH   1  13
TORSDOF 7
ENDMDL
MODEL 4
REMARK VINA RESULT:    -6.187      2.655      7.713
REMARK INTER + INTRA:          -9.394
REMARK INTER:                  -8.844
REMARK INTRA:                  -0.550
REMARK UNBOUND:                -0.675
REMARK  Name = 
REMARK  8 active torsions:
REMARK  status: ('A' for Active; 'I' for Inactive)
REMARK    1  A    between atoms: C_1  and  C_2
REMARK    2  A    between atoms: C_2  and  N_3
REMARK    3  A    between atoms: N_3  and  C_4
REMARK    4  A    between atoms: C_4  and  C_5
REMARK    5  A    between atoms: C_8  and  O_9
REMARK    6  A    between atoms: O_9  and  C_10
REMARK    7  A    between atoms: C_10  and  C_11
REMARK    8  A    between atoms: C_14  and  C_15
REMARK                            x       y       z     vdW  Elec       q    Type
REMARK                         _______ _______ _______ _____ _____    ______ ____
ROOT
ATOM      1  O   UNL     1      45.444   5.628  12.681  0.00  0.00    +0.000 OA
ENDROOT
BRANCH   1   5
ATOM      2  C   UNL     1      45.423   4.050   8.880  0.00  0.00    +0.000 A 
ATOM      3  C   UNL     1      44.899   3.312   9.942  0.00  0.00    +0.000 A 
ATOM      4  C   UNL     1      44.882   3.881  11.215  0.00  0.00    +0.000 A 
ATOM      5  C   UNL     1      45.401   5.156  11.398  0.00  0.00    +0.000 A 
ATOM      6  C   UNL     1      45.844   5.840  10.271  0.00  0.00    +0.000 A 
ATOM      7  N   UNL     1      45.880   5.317   9.029  0.00  0.00    +0.000 NA
BRANCH   2   8
ATOM      8  C   UNL     1      45.465   3.475   7.480  0.00  0.00    +0.000 C 
BRANCH   8   9
ATOM      9  N   UNL     1      46.670   3.834   6.716  0.00  0.00    +0.000 NA
ATOM     10  H   UNL     1      46.404   3.922   5.735  0.00  0.00    +0.000 HD
BRANCH   9  12
ATOM     11  C   UNL     1      47.037   1.457   7.085  0.00  0.00    +0.000 C 
ATOM     12  C   UNL     1      47.702   2.800   6.833  0.00  0.00    +0.000 C 
ENDBRANCH   9  12
ENDBRANCH   8   9
ENDBRANCH   2   8
ENDBRANCH   1   5
BRANCH   1  13
ATOM     13  C   UNL     1      46.691   6.237  13.033  0.00  0.00    +0.000 C 
BRANCH  13  14
ATOM     14  C   UNL     1      47.246   5.605  14.274  0.00  0.00    +0.000 A 
ATOM     15  C   UNL     1      48.200   6.269  15.055  0.00  0.00    +0.000 A 
ATOM     16  C   UNL     1      48.614   5.711  16.258  0.00  0.00    +0.000 A 
ATOM     17  C   UNL     1      48.057   4.498  16.641  0.00  0.00    +0.000 A 
ATOM     18  N   UNL     1      47.134   3.816  15.906  0.00  0.00    +0.000 NA
ATOM     19  C   UNL     1      46.755   4.390  14.743  0.00  0.00    +0.000 A 
BRANCH  17  20
ATOM     20  C   UNL     1      48.453   3.888  17.949  0.00  0.00    +0.000 C 
ATOM     21  N   UNL     1      47.567   2.977  18.463  0.00  0.00    +0.000 N 
ATOM     22  O   UNL     1      49.489   4.179  18.530  0.00  0.00    +0.000 OA
ATOM     23  H   UNL     1      46.717   2.770  17.953  0.00  0.00    +0.000 HD
ATOM     24  H   UNL     1      47.764   2.534  19.347  0.00  0.00    +0.000 HD
ENDBRANCH  17  20
ENDBRANCH  13  14
ENDBRANCH   1  13
TORSDOF 7
ENDMDL
MODEL 5
REMARK VINA RESULT:    -6.120      3.526      8.015
REMARK INTER + INTRA:          -9.299
REMARK INTER:                  -8.892
REMARK INTRA:                  -0.407
REMARK UNBOUND:                -0.675
REMARK  Name = 
REMARK  8 active torsions:
REMARK  status: ('A' for Active; 'I' for Inactive)
REMARK    1  A    between atoms: C_1  and  C_2
REMARK    2  A    between atoms: C_2  and  N_3
REMARK    3  A    between atoms: N_3  and  C_4
REMARK    4  A    between atoms: C_4  and  C_5
REMARK    5  A    between atoms: C_8  and  O_9
REMARK    6  A    between atoms: O_9  and  C_10
REMARK    7  A    between atoms: C_10  and  C_11
REMARK    8  A    between atoms: C_14  and  C_15
REMARK                            x       y       z     vdW  Elec       q    Type
REMARK                         _______ _______ _______ _____ _____    ______ ____
ROOT
ATOM      1  O   UNL     1      47.910   5.398  15.052  0.00  0.00    +0.000 OA
ENDROOT
BRANCH   1   5
ATOM      2  C   UNL     1      45.261   4.183  12.145  0.00  0.00    +0.000 A 
ATOM      3  C   UNL     1      45.626   5.526  12.236  0.00  0.00    +0.000 A 
ATOM      4  C   UNL     1      46.553   5.910  13.204  0.00  0.00    +0.000 A 
ATOM      5  C   UNL     1      47.076   4.952  14.064  0.00  0.00    +0.000 A 
ATOM      6  C   UNL     1      46.703   3.629  13.858  0.00  0.00    +0.000 A 
ATOM      7  N   UNL     1      45.804   3.226  12.937  0.00  0.00    +0.000 NA
BRANCH   2   8
ATOM      8  C   UNL     1      44.257   3.717  11.113  0.00  0.00    +0.000 C 
BRANCH   8   9
ATOM      9  N   UNL     1      44.632   2.473  10.424  0.00  0.00    +0.000 NA
ATOM     10  H   UNL     1      45.521   2.156  10.811  0.00  0.00    +0.000 HD
BRANCH   9  12
ATOM     11  C   UNL     1      45.849   1.731   8.452  0.00  0.00    +0.000 C 
ATOM     12  C   UNL     1      44.797   2.690   8.984  0.00  0.00    +0.000 C 
ENDBRANCH   9  12
ENDBRANCH   8   9
ENDBRANCH   2   8
ENDBRANCH   1   5
BRANCH   1  13
ATOM     13  C   UNL     1      47.624   4.848  16.342  0.00  0.00    +0.000 C 
BRANCH  13  14
ATOM     14  C   UNL     1      48.743   3.955  16.786  0.00  0.00    +0.000 A 
ATOM     15  C   UNL     1      48.662   2.565  16.625  0.00  0.00    +0.000 A 
ATOM     16  C   UNL     1      49.757   1.771  16.942  0.00  0.00    +0.000 A 
ATOM     17  C   UNL     1      50.904   2.398  17.411  0.00  0.00    +0.000 A 
ATOM     18  N   UNL     1      51.020   3.744  17.590  0.00  0.00    +0.000 NA
ATOM     19  C   UNL     1      49.935   4.484  17.272  0.00  0.00    +0.000 A 
BRANCH  17  20
ATOM     20  C   UNL     1      52.114   1.575  17.725  0.00  0.00    +0.000 C 
ATOM     21  N   UNL     1      51.863   0.279  18.093  0.00  0.00    +0.000 N 
ATOM     22  O   UNL     1      53.252   2.020  17.664  0.00  0.00    +0.000 OA
ATOM     23  H   UNL     1      50.905  -0.047  18.137  0.00  0.00    +0.000 HD
ATOM     24  H   UNL     1      52.632  -0.330  18.329  0.00  0.00    +0.000 HD
ENDBRANCH  17  20
ENDBRANCH  13  14
ENDBRANCH   1  13
TORSDOF 7
ENDMDL
MODEL 6
REMARK VINA RESULT:    -5.735      2.993      7.304
REMARK INTER + INTRA:          -8.757
REMARK INTER:                  -8.374
REMARK INTRA:                  -0.383
REMARK UNBOUND:                -0.675
REMARK  Name = 
REMARK  8 active torsions:
REMARK  status: ('A' for Active; 'I' for Inactive)
REMARK    1  A    between atoms: C_1  and  C_2
REMARK    2  A    between atoms: C_2  and  N_3
REMARK    3  A    between atoms: N_3  and  C_4
REMARK    4  A    between atoms: C_4  and  C_5
REMARK    5  A    between atoms: C_8  and  O_9
REMARK    6  A    between atoms: O_9  and  C_10
REMARK    7  A    between atoms: C_10  and  C_11
REMARK    8  A    between atoms: C_14  and  C_15
REMARK                            x       y       z     vdW  Elec       q    Type
REMARK                         _______ _______ _______ _____ _____    ______ ____
ROOT
ATOM      1  O   UNL     1      45.103   5.377  12.595  0.00  0.00    +0.000 OA
ENDROOT
BRANCH   1   5
ATOM      2  C   UNL     1      45.341   3.817   8.793  0.00  0.00    +0.000 A 
ATOM      3  C   UNL     1      44.825   3.042   9.832  0.00  0.00    +0.000 A 
ATOM      4  C   UNL     1      44.719   3.602  11.104  0.00  0.00    +0.000 A 
ATOM      5  C   UNL     1      45.144   4.909  11.310  0.00  0.00    +0.000 A 
ATOM      6  C   UNL     1      45.585   5.625  10.204  0.00  0.00    +0.000 A 
ATOM      7  N   UNL     1      45.707   5.110   8.963  0.00  0.00    +0.000 NA
BRANCH   2   8
ATOM      8  C   UNL     1      45.479   3.252   7.396  0.00  0.00    +0.000 C 
BRANCH   8   9
ATOM      9  N   UNL     1      46.620   3.787   6.638  0.00  0.00    +0.000 NA
ATOM     10  H   UNL     1      46.253   4.402   5.912  0.00  0.00    +0.000 HD
BRANCH   9  12
ATOM     11  C   UNL     1      47.507   1.545   6.966  0.00  0.00    +0.000 C 
ATOM     12  C   UNL     1      47.387   2.712   6.001  0.00  0.00    +0.000 C 
ENDBRANCH   9  12
ENDBRANCH   8   9
ENDBRANCH   2   8
ENDBRANCH   1   5
BRANCH   1  13
ATOM     13  C   UNL     1      45.336   6.785  12.705  0.00  0.00    +0.000 C 
BRANCH  13  14
ATOM     14  C   UNL     1      46.798   7.055  12.904  0.00  0.00    +0.000 A 
ATOM     15  C   UNL     1      47.404   8.185  12.339  0.00  0.00    +0.000 A 
ATOM     16  C   UNL     1      48.732   8.472  12.631  0.00  0.00    +0.000 A 
ATOM     17  C   UNL     1      49.413   7.613  13.482  0.00  0.00    +0.000 A 
ATOM     18  N   UNL     1      48.863   6.499  14.045  0.00  0.00    +0.000 NA
ATOM     19  C   UNL     1      47.570   6.254  13.739  0.00  0.00    +0.000 A 
BRANCH  17  20
ATOM     20  C   UNL     1      50.833   7.913  13.848  0.00  0.00    +0.000 C 
ATOM     21  N   UNL     1      51.256   7.386  15.040  0.00  0.00    +0.000 N 
ATOM     22  O   UNL     1      51.571   8.585  13.141  0.00  0.00    +0.000 OA
ATOM     23  H   UNL     1      50.610   6.842  15.598  0.00  0.00    +0.000 HD
ATOM     24  H   UNL     1      52.198   7.558  15.354  0.00  0.00    +0.000 HD
ENDBRANCH  17  20
ENDBRANCH  13  14
ENDBRANCH   1  13
TORSDOF 7
ENDMDL
MODEL 7
REMARK VINA RESULT:    -5.378      3.243      8.355
REMARK INTER + INTRA:          -8.253
REMARK INTER:                  -7.730
REMARK INTRA:                  -0.524
REMARK UNBOUND:                -0.675
REMARK  Name = 
REMARK  8 active torsions:
REMARK  status: ('A' for Active; 'I' for Inactive)
REMARK    1  A    between atoms: C_1  and  C_2
REMARK    2  A    between atoms: C_2  and  N_3
REMARK    3  A    between atoms: N_3  and  C_4
REMARK    4  A    between atoms: C_4  and  C_5
REMARK    5  A    between atoms: C_8  and  O_9
REMARK    6  A    between atoms: O_9  and  C_10
REMARK    7  A    between atoms: C_10  and  C_11
REMARK    8  A    between atoms: C_14  and  C_15
REMARK                            x       y       z     vdW  Elec       q    Type
REMARK                         _______ _______ _______ _____ _____    ______ ____
ROOT
ATOM      1  O   UNL     1      47.115   6.805  13.861  0.00  0.00    +0.000 OA
ENDROOT
BRANCH   1   5
ATOM      2  C   UNL     1      45.021   4.665  11.036  0.00  0.00    +0.000 A 
ATOM      3  C   UNL     1      45.737   5.802  10.658  0.00  0.00    +0.000 A 
ATOM      4  C   UNL     1      46.470   6.490  11.624  0.00  0.00    +0.000 A 
ATOM      5  C   UNL     1      46.456   6.040  12.939  0.00  0.00    +0.000 A 
ATOM      6  C   UNL     1      45.766   4.864  13.210  0.00  0.00    +0.000 A 
ATOM      7  N   UNL     1      45.042   4.179  12.300  0.00  0.00    +0.000 NA
BRANCH   2   8
ATOM      8  C   UNL     1      44.210   3.886  10.024  0.00  0.00    +0.000 C 
BRANCH   8   9
ATOM      9  N   UNL     1      44.477   2.439  10.021  0.00  0.00    +0.000 NA
ATOM     10  H   UNL     1      44.927   2.202  10.905  0.00  0.00    +0.000 HD
BRANCH   9  12
ATOM     11  C   UNL     1      45.279   3.113   7.825  0.00  0.00    +0.000 C 
ATOM     12  C   UNL     1      45.371   2.065   8.922  0.00  0.00    +0.000 C 
ENDBRANCH   9  12
ENDBRANCH   8   9
ENDBRANCH   2   8
ENDBRANCH   1   5
BRANCH   1  13
ATOM     13  C   UNL     1      48.396   6.287  14.233  0.00  0.00    +0.000 C 
BRANCH  13  14
ATOM     14  C   UNL     1      48.424   5.974  15.699  0.00  0.00    +0.000 A 
ATOM     15  C   UNL     1      48.973   6.878  16.618  0.00  0.00    +0.000 A 
ATOM     16  C   UNL     1      48.885   6.614  17.979  0.00  0.00    +0.000 A 
ATOM     17  C   UNL     1      48.247   5.446  18.378  0.00  0.00    +0.000 A 
ATOM     18  N   UNL     1      47.709   4.538  17.516  0.00  0.00    +0.000 NA
ATOM     19  C   UNL     1      47.813   4.829  16.201  0.00  0.00    +0.000 A 
BRANCH  17  20
ATOM     20  C   UNL     1      48.102   5.151  19.838  0.00  0.00    +0.000 C 
ATOM     21  N   UNL     1      48.605   3.942  20.244  0.00  0.00    +0.000 N 
ATOM     22  O   UNL     1      47.568   5.924  20.621  0.00  0.00    +0.000 OA
ATOM     23  H   UNL     1      49.033   3.328  19.562  0.00  0.00    +0.000 HD
ATOM     24  H   UNL     1      48.532   3.673  21.213  0.00  0.00    +0.000 HD
ENDBRANCH  17  20
ENDBRANCH  13  14
ENDBRANCH   1  13
TORSDOF 7
ENDMDL
MODEL 8
REMARK VINA RESULT:    -5.354      4.425      7.117
REMARK INTER + INTRA:          -8.219
REMARK INTER:                  -7.578
REMARK INTRA:                  -0.641
REMARK UNBOUND:                -0.675
REMARK  Name = 
REMARK  8 active torsions:
REMARK  status: ('A' for Active; 'I' for Inactive)
REMARK    1  A    between atoms: C_1  and  C_2
REMARK    2  A    between atoms: C_2  and  N_3
REMARK    3  A    between atoms: N_3  and  C_4
REMARK    4  A    between atoms: C_4  and  C_5
REMARK    5  A    between atoms: C_8  and  O_9
REMARK    6  A    between atoms: O_9  and  C_10
REMARK    7  A    between atoms: C_10  and  C_11
REMARK    8  A    between atoms: C_14  and  C_15
REMARK                            x       y       z     vdW  Elec       q    Type
REMARK                         _______ _______ _______ _____ _____    ______ ____
ROOT
ATOM      1  O   UNL     1      48.054   5.743  14.041  0.00  0.00    +0.000 OA
ENDROOT
BRANCH   1   5
ATOM      2  C   UNL     1      44.778   4.001  12.258  0.00  0.00    +0.000 A 
ATOM      3  C   UNL     1      44.993   5.374  12.128  0.00  0.00    +0.000 A 
ATOM      4  C   UNL     1      46.129   5.937  12.708  0.00  0.00    +0.000 A 
ATOM      5  C   UNL     1      47.007   5.124  13.415  0.00  0.00    +0.000 A 
ATOM      6  C   UNL     1      46.745   3.759  13.439  0.00  0.00    +0.000 A 
ATOM      7  N   UNL     1      45.652   3.184  12.894  0.00  0.00    +0.000 NA
BRANCH   2   8
ATOM      8  C   UNL     1      43.559   3.344  11.648  0.00  0.00    +0.000 C 
BRANCH   8   9
ATOM      9  N   UNL     1      43.867   2.318  10.640  0.00  0.00    +0.000 NA
ATOM     10  H   UNL     1      44.542   1.671  11.048  0.00  0.00    +0.000 HD
BRANCH   9  12
ATOM     11  C   UNL     1      45.439   1.932   8.824  0.00  0.00    +0.000 C 
ATOM     12  C   UNL     1      44.453   2.913   9.436  0.00  0.00    +0.000 C 
ENDBRANCH   9  12
ENDBRANCH   8   9
ENDBRANCH   2   8
ENDBRANCH   1   5
BRANCH   1  13
ATOM     13  C   UNL     1      48.100   7.157  13.831  0.00  0.00    +0.000 C 
BRANCH  13  14
ATOM     14  C   UNL     1      49.387   7.543  13.165  0.00  0.00    +0.000 A 
ATOM     15  C   UNL     1      49.494   7.573  11.769  0.00  0.00    +0.000 A 
ATOM     16  C   UNL     1      50.661   8.041  11.178  0.00  0.00    +0.000 A 
ATOM     17  C   UNL     1      51.689   8.465  12.010  0.00  0.00    +0.000 A 
ATOM     18  N   UNL     1      51.628   8.443  13.372  0.00  0.00    +0.000 NA
ATOM     19  C   UNL     1      50.477   7.983  13.909  0.00  0.00    +0.000 A 
BRANCH  17  20
ATOM     20  C   UNL     1      52.945   9.010  11.406  0.00  0.00    +0.000 C 
ATOM     21  N   UNL     1      52.885   9.268  10.061  0.00  0.00    +0.000 N 
ATOM     22  O   UNL     1      53.961   9.211  12.057  0.00  0.00    +0.000 OA
ATOM     23  H   UNL     1      52.026   9.080   9.558  0.00  0.00    +0.000 HD
ATOM     24  H   UNL     1      53.698   9.627   9.586  0.00  0.00    +0.000 HD
ENDBRANCH  17  20
ENDBRANCH  13  14
ENDBRANCH   1  13
TORSDOF 7
ENDMDL
MODEL 9
REMARK VINA RESULT:    -5.253      3.251      5.667
REMARK INTER + INTRA:          -8.077
REMARK INTER:                  -7.739
REMARK INTRA:                  -0.338
REMARK UNBOUND:                -0.675
REMARK  Name = 
REMARK  8 active torsions:
REMARK  status: ('A' for Active; 'I' for Inactive)
REMARK    1  A    between atoms: C_1  and  C_2
REMARK    2  A    between atoms: C_2  and  N_3
REMARK    3  A    between atoms: N_3  and  C_4
REMARK    4  A    between atoms: C_4  and  C_5
REMARK    5  A    between atoms: C_8  and  O_9
REMARK    6  A    between atoms: O_9  and  C_10
REMARK    7  A    between atoms: C_10  and  C_11
REMARK    8  A    between atoms: C_14  and  C_15
REMARK                            x       y       z     vdW  Elec       q    Type
REMARK                         _______ _______ _______ _____ _____    ______ ____
ROOT
ATOM      1  O   UNL     1      47.485   4.649  16.237  0.00  0.00    +0.000 OA
ENDROOT
BRANCH   1   5
ATOM      2  C   UNL     1      50.615   2.141  17.159  0.00  0.00    +0.000 A 
ATOM      3  C   UNL     1      50.591   3.440  17.668  0.00  0.00    +0.000 A 
ATOM      4  C   UNL     1      49.503   4.260  17.374  0.00  0.00    +0.000 A 
ATOM      5  C   UNL     1      48.481   3.773  16.569  0.00  0.00    +0.000 A 
ATOM      6  C   UNL     1      48.559   2.447  16.159  0.00  0.00    +0.000 A 
ATOM      7  N   UNL     1      49.601   1.630  16.421  0.00  0.00    +0.000 NA
BRANCH   2   8
ATOM      8  C   UNL     1      51.776   1.213  17.449  0.00  0.00    +0.000 C 
BRANCH   8   9
ATOM      9  N   UNL     1      52.917   1.863  18.111  0.00  0.00    +0.000 NA
ATOM     10  H   UNL     1      53.209   2.650  17.532  0.00  0.00    +0.000 HD
BRANCH   9  12
ATOM     11  C   UNL     1      54.406   0.377  16.889  0.00  0.00    +0.000 C 
ATOM     12  C   UNL     1      54.046   0.939  18.254  0.00  0.00    +0.000 C 
ENDBRANCH   9  12
ENDBRANCH   8   9
ENDBRANCH   2   8
ENDBRANCH   1   5
BRANCH   1  13
ATOM     13  C   UNL     1      47.783   5.460  15.096  0.00  0.00    +0.000 C 
BRANCH  13  14
ATOM     14  C   UNL     1      46.859   5.124  13.964  0.00  0.00    +0.000 A 
ATOM     15  C   UNL     1      46.543   6.077  12.987  0.00  0.00    +0.000 A 
ATOM     16  C   UNL     1      45.775   5.708  11.889  0.00  0.00    +0.000 A 
ATOM     17  C   UNL     1      45.347   4.389  11.806  0.00  0.00    +0.000 A 
ATOM     18  N   UNL     1      45.626   3.435  12.739  0.00  0.00    +0.000 NA
ATOM     19  C   UNL     1      46.375   3.831  13.791  0.00  0.00    +0.000 A 
BRANCH  17  20
ATOM     20  C   UNL     1      44.551   3.949  10.617  0.00  0.00    +0.000 C 
ATOM     21  N   UNL     1      43.707   4.895  10.094  0.00  0.00    +0.000 N 
ATOM     22  O   UNL     1      44.636   2.826  10.141  0.00  0.00    +0.000 OA
ATOM     23  H   UNL     1      43.662   5.811  10.523  0.00  0.00    +0.000 HD
ATOM     24  H   UNL     1      43.132   4.664   9.298  0.00  0.00    +0.000 HD
ENDBRANCH  17  20
ENDBRANCH  13  14
ENDBRANCH   1  13
TORSDOF 7
ENDMDL
