MODEL 1
REMARK VINA RESULT:    -8.371      0.000      0.000
REMARK INTER + INTRA:         -12.582
REMARK INTER:                 -11.307
REMARK INTRA:                  -1.275
REMARK UNBOUND:                -1.275
REMARK  Name = 
REMARK  7 active torsions:
REMARK  status: ('A' for Active; 'I' for Inactive)
REMARK    1  A    between atoms: C_1  and  O_2
REMARK    2  A    between atoms: O_2  and  C_3
REMARK    3  A    between atoms: C_5  and  C_6
REMARK    4  A    between atoms: C_11  and  O_12
REMARK    5  A    between atoms: O_12  and  C_13
REMARK    6  A    between atoms: C_13  and  C_14
REMARK    7  A    between atoms: C_18  and  C_19
REMARK                            x       y       z     vdW  Elec       q    Type
REMARK                         _______ _______ _______ _____ _____    ______ ____
ROOT
ATOM      1  O   UNL     1      44.616   6.763  12.814  0.00  0.00    +0.000 OA
ENDROOT
BRANCH   1   7
ATOM      2  C   UNL     1      46.943   6.057  13.414  0.00  0.00    +0.000 A 
ATOM      3  C   UNL     1      48.301   6.385  13.299  0.00  0.00    +0.000 A 
ATOM      4  C   UNL     1      48.727   7.517  12.584  0.00  0.00    +0.000 A 
ATOM      5  C   UNL     1      47.774   8.331  11.973  0.00  0.00    +0.000 A 
ATOM      6  C   UNL     1      46.416   8.020  12.091  0.00  0.00    +0.000 A 
ATOM      7  C   UNL     1      45.984   6.893  12.808  0.00  0.00    +0.000 A 
BRANCH   4   8
ATOM      8  C   UNL     1      50.197   7.765  12.513  0.00  0.00    +0.000 C 
ATOM      9  N   UNL     1      50.876   7.394  11.388  0.00  0.00    +0.000 N 
ATOM     10  O   UNL     1      50.800   8.292  13.442  0.00  0.00    +0.000 OA
ATOM     11  H   UNL     1      50.478   6.933  10.587  0.00  0.00    +0.000 HD
ATOM     12  H   UNL     1      51.874   7.567  11.387  0.00  0.00    +0.000 HD
ENDBRANCH   4   8
BRANCH   2  14
ATOM     13  C   UNL     1      46.657   3.682  13.349  0.00  0.00    +0.000 C 
ATOM     14  O   UNL     1      46.517   4.917  14.038  0.00  0.00    +0.000 OA
ENDBRANCH   2  14
ENDBRANCH   1   7
BRANCH   1  15
ATOM     15  C   UNL     1      43.961   6.556  11.564  0.00  0.00    +0.000 C 
BRANCH  15  16
ATOM     16  C   UNL     1      44.016   5.110  11.143  0.00  0.00    +0.000 A 
ATOM     17  C   UNL     1      43.223   4.176  11.801  0.00  0.00    +0.000 A 
ATOM     18  N   UNL     1      43.152   2.873  11.465  0.00  0.00    +0.000 NA
ATOM     19  C   UNL     1      43.910   2.479  10.414  0.00  0.00    +0.000 A 
ATOM     20  C   UNL     1      44.749   3.309   9.666  0.00  0.00    +0.000 A 
ATOM     21  C   UNL     1      44.772   4.658  10.056  0.00  0.00    +0.000 A 
BRANCH  20  22
ATOM     22  C   UNL     1      45.575   2.800   8.549  0.00  0.00    +0.000 A 
ATOM     23  C   UNL     1      46.053   3.654   7.537  0.00  0.00    +0.000 A 
ATOM     24  C   UNL     1      46.873   3.183   6.504  0.00  0.00    +0.000 A 
ATOM     25  C   UNL     1      47.223   1.838   6.454  0.00  0.00    +0.000 A 
ATOM     26  C   UNL     1      46.745   0.979   7.434  0.00  0.00    +0.000 A 
ATOM     27  F   UNL     1      47.075  -0.318   7.390  0.00  0.00    +0.000 F 
ATOM     28  C   UNL     1      45.936   1.443   8.469  0.00  0.00    +0.000 A 
ENDBRANCH  20  22
ENDBRANCH  15  16
ENDBRANCH   1  15
TORSDOF 6
ENDMDL
MODEL 2
REMARK VINA RESULT:    -7.720      0.886      1.890
REMARK INTER + INTRA:         -11.702
REMARK INTER:                 -10.734
REMARK INTRA:                  -0.968
REMARK UNBOUND:                -1.275
REMARK  Name = 
REMARK  7 active torsions:
REMARK  status: ('A' for Active; 'I' for Inactive)
REMARK    1  A    between atoms: C_1  and  O_2
REMARK    2  A    between atoms: O_2  and  C_3
REMARK    3  A    between atoms: C_5  and  C_6
REMARK    4  A    between atoms: C_11  and  O_12
REMARK    5  A    between atoms: O_12  and  C_13
REMARK    6  A    between atoms: C_13  and  C_14
REMARK    7  A    between atoms: C_18  and  C_19
REMARK                            x       y       z     vdW  Elec       q    Type
REMARK                         _______ _______ _______ _____ _____    ______ ____
ROOT
ATOM      1  O   UNL     1      45.101   6.338  13.155  0.00  0.00    +0.000 OA
ENDROOT
BRANCH   1   7
ATOM      2  C   UNL     1      46.534   8.346  12.723  0.00  0.00    +0.000 A 
ATOM      3  C   UNL     1      47.840   8.779  12.453  0.00  0.00    +0.000 A 
ATOM      4  C   UNL     1      48.914   7.877  12.374  0.00  0.00    +0.000 A 
ATOM      5  C   UNL     1      48.673   6.517  12.570  0.00  0.00    +0.000 A 
ATOM      6  C   UNL     1      47.373   6.073  12.827  0.00  0.00    +0.000 A 
ATOM      7  C   UNL     1      46.295   6.969  12.903  0.00  0.00    +0.000 A 
BRANCH   4   8
ATOM      8  C   UNL     1      50.265   8.447  12.098  0.00  0.00    +0.000 C 
ATOM      9  N   UNL     1      51.201   7.663  11.487  0.00  0.00    +0.000 N 
ATOM     10  O   UNL     1      50.546   9.599  12.410  0.00  0.00    +0.000 OA
ATOM     11  H   UNL     1      51.076   6.701  11.218  0.00  0.00    +0.000 HD
ATOM     12  H   UNL     1      52.109   8.084  11.332  0.00  0.00    +0.000 HD
ENDBRANCH   4   8
BRANCH   2  14
ATOM     13  C   UNL     1      44.999   9.889  11.729  0.00  0.00    +0.000 C 
ATOM     14  O   UNL     1      45.493   9.218  12.881  0.00  0.00    +0.000 OA
ENDBRANCH   2  14
ENDBRANCH   1   7
BRANCH   1  15
ATOM     15  C   UNL     1      44.158   6.246  12.089  0.00  0.00    +0.000 C 
BRANCH  15  16
ATOM     16  C   UNL     1      44.139   4.866  11.483  0.00  0.00    +0.000 A 
ATOM     17  C   UNL     1      43.309   3.893  12.027  0.00  0.00    +0.000 A 
ATOM     18  N   UNL     1      43.172   2.649  11.525  0.00  0.00    +0.000 NA
ATOM     19  C   UNL     1      43.901   2.361  10.421  0.00  0.00    +0.000 A 
ATOM     20  C   UNL     1      44.772   3.241   9.774  0.00  0.00    +0.000 A 
ATOM     21  C   UNL     1      44.864   4.526  10.336  0.00  0.00    +0.000 A 
BRANCH  20  22
ATOM     22  C   UNL     1      45.562   2.844   8.588  0.00  0.00    +0.000 A 
ATOM     23  C   UNL     1      45.957   3.785   7.617  0.00  0.00    +0.000 A 
ATOM     24  C   UNL     1      46.744   3.420   6.518  0.00  0.00    +0.000 A 
ATOM     25  C   UNL     1      47.144   2.097   6.359  0.00  0.00    +0.000 A 
ATOM     26  C   UNL     1      46.749   1.155   7.297  0.00  0.00    +0.000 A 
ATOM     27  F   UNL     1      47.127  -0.122   7.149  0.00  0.00    +0.000 F 
ATOM     28  C   UNL     1      45.973   1.513   8.398  0.00  0.00    +0.000 A 
ENDBRANCH  20  22
ENDBRANCH  15  16
ENDBRANCH   1  15
TORSDOF 6
ENDMDL
MODEL 3
REMARK VINA RESULT:    -7.566      2.386      3.471
REMARK INTER + INTRA:         -11.495
REMARK INTER:                 -10.957
REMARK INTRA:                  -0.538
REMARK UNBOUND:                -1.275
REMARK  Name = 
REMARK  7 active torsions:
REMARK  status: ('A' for Active; 'I' for Inactive)
REMARK    1  A    between atoms: C_1  and  O_2
REMARK    2  A    between atoms: O_2  and  C_3
REMARK    3  A    between atoms: C_5  and  C_6
REMARK    4  A    between atoms: C_11  and  O_12
REMARK    5  A    between atoms: O_12  and  C_13
REMARK    6  A    between atoms: C_13  and  C_14
REMARK    7  A    between atoms: C_18  and  C_19
REMARK                            x       y       z     vdW  Elec       q    Type
REMARK                         _______ _______ _______ _____ _____    ______ ____
ROOT
ATOM      1  O   UNL     1      47.362   6.750  12.233  0.00  0.00    +0.000 OA
ENDROOT
BRANCH   1   7
ATOM      2  C   UNL     1      48.261   6.629  14.567  0.00  0.00    +0.000 A 
ATOM      3  C   UNL     1      48.289   5.863  15.742  0.00  0.00    +0.000 A 
ATOM      4  C   UNL     1      47.575   4.658  15.852  0.00  0.00    +0.000 A 
ATOM      5  C   UNL     1      46.819   4.216  14.767  0.00  0.00    +0.000 A 
ATOM      6  C   UNL     1      46.793   4.966  13.587  0.00  0.00    +0.000 A 
ATOM      7  C   UNL     1      47.509   6.168  13.469  0.00  0.00    +0.000 A 
BRANCH   4   8
ATOM      8  C   UNL     1      47.662   3.930  17.152  0.00  0.00    +0.000 C 
ATOM      9  N   UNL     1      47.194   4.537  18.282  0.00  0.00    +0.000 N 
ATOM     10  O   UNL     1      48.146   2.806  17.221  0.00  0.00    +0.000 OA
ATOM     11  H   UNL     1      46.806   5.464  18.333  0.00  0.00    +0.000 HD
ATOM     12  H   UNL     1      47.286   4.015  19.145  0.00  0.00    +0.000 HD
ENDBRANCH   4   8
BRANCH   2  14
ATOM     13  C   UNL     1      50.282   7.857  14.199  0.00  0.00    +0.000 C 
ATOM     14  O   UNL     1      48.886   7.841  14.471  0.00  0.00    +0.000 OA
ENDBRANCH   2  14
ENDBRANCH   1   7
BRANCH   1  15
ATOM     15  C   UNL     1      46.058   7.187  11.852  0.00  0.00    +0.000 C 
BRANCH  15  16
ATOM     16  C   UNL     1      45.310   6.113  11.106  0.00  0.00    +0.000 A 
ATOM     17  C   UNL     1      43.944   5.962  11.315  0.00  0.00    +0.000 A 
ATOM     18  N   UNL     1      43.172   5.075  10.655  0.00  0.00    +0.000 NA
ATOM     19  C   UNL     1      43.795   4.300   9.736  0.00  0.00    +0.000 A 
ATOM     20  C   UNL     1      45.156   4.346   9.427  0.00  0.00    +0.000 A 
ATOM     21  C   UNL     1      45.907   5.298  10.138  0.00  0.00    +0.000 A 
BRANCH  20  22
ATOM     22  C   UNL     1      45.774   3.443   8.432  0.00  0.00    +0.000 A 
ATOM     23  C   UNL     1      46.347   3.936   7.244  0.00  0.00    +0.000 A 
ATOM     24  C   UNL     1      46.973   3.087   6.322  0.00  0.00    +0.000 A 
ATOM     25  C   UNL     1      47.028   1.719   6.566  0.00  0.00    +0.000 A 
ATOM     26  C   UNL     1      46.452   1.214   7.723  0.00  0.00    +0.000 A 
ATOM     27  F   UNL     1      46.498  -0.103   7.961  0.00  0.00    +0.000 F 
ATOM     28  C   UNL     1      45.835   2.054   8.648  0.00  0.00    +0.000 A 
ENDBRANCH  20  22
ENDBRANCH  15  16
ENDBRANCH   1  15
TORSDOF 6
ENDMDL
MODEL 4
REMARK VINA RESULT:    -7.383      2.008      2.476
REMARK INTER + INTRA:         -11.247
REMARK INTER:                 -10.431
REMARK INTRA:                  -0.816
REMARK UNBOUND:                -1.275
REMARK  Name = 
REMARK  7 active torsions:
REMARK  status: ('A' for Active; 'I' for Inactive)
REMARK    1  A    between atoms: C_1  and  O_2
REMARK    2  A    between atoms: O_2  and  C_3
REMARK    3  A    between atoms: C_5  and  C_6
REMARK    4  A    between atoms: C_11  and  O_12
REMARK    5  A    between atoms: O_12  and  C_13
REMARK    6  A    between atoms: C_13  and  C_14
REMARK    7  A    between atoms: C_18  and  C_19
REMARK                            x       y       z     vdW  Elec       q    Type
REMARK                         _______ _______ _______ _____ _____    ______ ____
ROOT
ATOM      1  O   UNL     1      46.165   3.563  13.560  0.00  0.00    +0.000 OA
ENDROOT
BRANCH   1   7
ATOM      2  C   UNL     1      47.364   4.432  15.580  0.00  0.00    +0.000 A 
ATOM      3  C   UNL     1      48.166   5.472  16.072  0.00  0.00    +0.000 A 
ATOM      4  C   UNL     1      48.584   6.532  15.250  0.00  0.00    +0.000 A 
ATOM      5  C   UNL     1      48.192   6.548  13.912  0.00  0.00    +0.000 A 
ATOM      6  C   UNL     1      47.382   5.523  13.414  0.00  0.00    +0.000 A 
ATOM      7  C   UNL     1      46.958   4.463  14.231  0.00  0.00    +0.000 A 
BRANCH   4   8
ATOM      8  C   UNL     1      49.448   7.578  15.872  0.00  0.00    +0.000 C 
ATOM      9  N   UNL     1      50.552   8.012  15.195  0.00  0.00    +0.000 N 
ATOM     10  O   UNL     1      49.185   8.049  16.973  0.00  0.00    +0.000 OA
ATOM     11  H   UNL     1      50.865   7.669  14.303  0.00  0.00    +0.000 HD
ATOM     12  H   UNL     1      51.118   8.711  15.660  0.00  0.00    +0.000 HD
ENDBRANCH   4   8
BRANCH   2  14
ATOM     13  C   UNL     1      47.996   2.802  17.213  0.00  0.00    +0.000 C 
ATOM     14  O   UNL     1      47.015   3.354  16.345  0.00  0.00    +0.000 OA
ENDBRANCH   2  14
ENDBRANCH   1   7
BRANCH   1  15
ATOM     15  C   UNL     1      44.813   3.933  13.297  0.00  0.00    +0.000 C 
BRANCH  15  16
ATOM     16  C   UNL     1      44.552   4.062  11.819  0.00  0.00    +0.000 A 
ATOM     17  C   UNL     1      43.552   4.921  11.374  0.00  0.00    +0.000 A 
ATOM     18  N   UNL     1      43.279   5.155  10.075  0.00  0.00    +0.000 NA
ATOM     19  C   UNL     1      44.044   4.498   9.170  0.00  0.00    +0.000 A 
ATOM     20  C   UNL     1      45.077   3.609   9.477  0.00  0.00    +0.000 A 
ATOM     21  C   UNL     1      45.323   3.416  10.847  0.00  0.00    +0.000 A 
BRANCH  20  22
ATOM     22  C   UNL     1      45.850   2.902   8.433  0.00  0.00    +0.000 A 
ATOM     23  C   UNL     1      46.510   3.602   7.403  0.00  0.00    +0.000 A 
ATOM     24  C   UNL     1      47.279   2.938   6.440  0.00  0.00    +0.000 A 
ATOM     25  C   UNL     1      47.395   1.553   6.479  0.00  0.00    +0.000 A 
ATOM     26  C   UNL     1      46.737   0.847   7.475  0.00  0.00    +0.000 A 
ATOM     27  F   UNL     1      46.841  -0.488   7.516  0.00  0.00    +0.000 F 
ATOM     28  C   UNL     1      45.976   1.502   8.442  0.00  0.00    +0.000 A 
ENDBRANCH  20  22
ENDBRANCH  15  16
ENDBRANCH   1  15
TORSDOF 6
ENDMDL
MODEL 5
REMARK VINA RESULT:    -7.257      3.770      6.884
REMARK INTER + INTRA:         -11.077
REMARK INTER:                 -10.932
REMARK INTRA:                  -0.145
REMARK UNBOUND:                -1.275
REMARK  Name = 
REMARK  7 active torsions:
REMARK  status: ('A' for Active; 'I' for Inactive)
REMARK    1  A    between atoms: C_1  and  O_2
REMARK    2  A    between atoms: O_2  and  C_3
REMARK    3  A    between atoms: C_5  and  C_6
REMARK    4  A    between atoms: C_11  and  O_12
REMARK    5  A    between atoms: O_12  and  C_13
REMARK    6  A    between atoms: C_13  and  C_14
REMARK    7  A    between atoms: C_18  and  C_19
REMARK                            x       y       z     vdW  Elec       q    Type
REMARK                         _______ _______ _______ _____ _____    ______ ____
ROOT
ATOM      1  O   UNL     1      43.896   4.830  10.305  0.00  0.00    +0.000 OA
ENDROOT
BRANCH   1   7
ATOM      2  C   UNL     1      44.668   2.583   9.511  0.00  0.00    +0.000 A 
ATOM      3  C   UNL     1      45.561   1.919   8.658  0.00  0.00    +0.000 A 
ATOM      4  C   UNL     1      46.443   2.623   7.822  0.00  0.00    +0.000 A 
ATOM      5  C   UNL     1      46.428   4.017   7.841  0.00  0.00    +0.000 A 
ATOM      6  C   UNL     1      45.550   4.690   8.697  0.00  0.00    +0.000 A 
ATOM      7  C   UNL     1      44.669   3.992   9.537  0.00  0.00    +0.000 A 
BRANCH   4   8
ATOM      8  C   UNL     1      47.340   1.817   6.943  0.00  0.00    +0.000 C 
ATOM      9  N   UNL     1      48.379   2.438   6.312  0.00  0.00    +0.000 N 
ATOM     10  O   UNL     1      47.158   0.615   6.779  0.00  0.00    +0.000 OA
ATOM     11  H   UNL     1      48.594   3.419   6.362  0.00  0.00    +0.000 HD
ATOM     12  H   UNL     1      48.954   1.857   5.714  0.00  0.00    +0.000 HD
ENDBRANCH   4   8
BRANCH   2  14
ATOM     13  C   UNL     1      43.429   2.440  11.553  0.00  0.00    +0.000 C 
ATOM     14  O   UNL     1      43.749   1.914  10.272  0.00  0.00    +0.000 OA
ENDBRANCH   2  14
ENDBRANCH   1   7
BRANCH   1  15
ATOM     15  C   UNL     1      44.446   6.094  10.671  0.00  0.00    +0.000 C 
BRANCH  15  16
ATOM     16  C   UNL     1      45.433   5.963  11.801  0.00  0.00    +0.000 A 
ATOM     17  C   UNL     1      45.148   5.109  12.862  0.00  0.00    +0.000 A 
ATOM     18  N   UNL     1      45.987   4.874  13.889  0.00  0.00    +0.000 NA
ATOM     19  C   UNL     1      47.176   5.522  13.858  0.00  0.00    +0.000 A 
ATOM     20  C   UNL     1      47.590   6.405  12.858  0.00  0.00    +0.000 A 
ATOM     21  C   UNL     1      46.678   6.601  11.807  0.00  0.00    +0.000 A 
BRANCH  20  22
ATOM     22  C   UNL     1      48.893   7.103  12.908  0.00  0.00    +0.000 A 
ATOM     23  C   UNL     1      49.546   7.529  11.735  0.00  0.00    +0.000 A 
ATOM     24  C   UNL     1      50.757   8.231  11.781  0.00  0.00    +0.000 A 
ATOM     25  C   UNL     1      51.349   8.512  13.008  0.00  0.00    +0.000 A 
ATOM     26  C   UNL     1      50.728   8.084  14.173  0.00  0.00    +0.000 A 
ATOM     27  F   UNL     1      51.294   8.348  15.357  0.00  0.00    +0.000 F 
ATOM     28  C   UNL     1      49.519   7.393  14.133  0.00  0.00    +0.000 A 
ENDBRANCH  20  22
ENDBRANCH  15  16
ENDBRANCH   1  15
TORSDOF 6
ENDMDL
MODEL 6
REMARK VINA RESULT:    -7.121      1.459      1.901
REMARK INTER + INTRA:         -10.894
REMARK INTER:                 -10.100
REMARK INTRA:                  -0.795
REMARK UNBOUND:                -1.275
REMARK  Name = 
REMARK  7 active torsions:
REMARK  status: ('A' for Active; 'I' for Inactive)
REMARK    1  A    between atoms: C_1  and  O_2
REMARK    2  A    between atoms: O_2  and  C_3
REMARK    3  A    between atoms: C_5  and  C_6
REMARK    4  A    between atoms: C_11  and  O_12
REMARK    5  A    between atoms: O_12  and  C_13
REMARK    6  A    between atoms: C_13  and  C_14
REMARK    7  A    between atoms: C_18  and  C_19
REMARK                            x       y       z     vdW  Elec       q    Type
REMARK                         _______ _______ _______ _____ _____    ______ ____
ROOT
ATOM      1  O   UNL     1      46.537   6.900  13.066  0.00  0.00    +0.000 OA
ENDROOT
BRANCH   1   7
ATOM      2  C   UNL     1      48.772   7.417  14.070  0.00  0.00    +0.000 A 
ATOM      3  C   UNL     1      50.073   7.860  13.793  0.00  0.00    +0.000 A 
ATOM      4  C   UNL     1      50.483   8.168  12.485  0.00  0.00    +0.000 A 
ATOM      5  C   UNL     1      49.572   8.029  11.438  0.00  0.00    +0.000 A 
ATOM      6  C   UNL     1      48.269   7.600  11.705  0.00  0.00    +0.000 A 
ATOM      7  C   UNL     1      47.852   7.294  13.010  0.00  0.00    +0.000 A 
BRANCH   4   8
ATOM      8  C   UNL     1      51.895   8.615  12.301  0.00  0.00    +0.000 C 
ATOM      9  N   UNL     1      52.839   7.694  11.947  0.00  0.00    +0.000 N 
ATOM     10  O   UNL     1      52.218   9.787  12.462  0.00  0.00    +0.000 OA
ATOM     11  H   UNL     1      52.679   6.710  11.818  0.00  0.00    +0.000 HD
ATOM     12  H   UNL     1      53.787   8.038  11.846  0.00  0.00    +0.000 HD
ENDBRANCH   4   8
BRANCH   2  14
ATOM     13  C   UNL     1      49.321   6.354  16.143  0.00  0.00    +0.000 C 
ATOM     14  O   UNL     1      48.381   7.038  15.325  0.00  0.00    +0.000 OA
ENDBRANCH   2  14
ENDBRANCH   1   7
BRANCH   1  15
ATOM     15  C   UNL     1      45.678   7.292  11.997  0.00  0.00    +0.000 C 
BRANCH  15  16
ATOM     16  C   UNL     1      45.036   6.100  11.335  0.00  0.00    +0.000 A 
ATOM     17  C   UNL     1      43.733   5.751  11.673  0.00  0.00    +0.000 A 
ATOM     18  N   UNL     1      43.047   4.743  11.099  0.00  0.00    +0.000 NA
ATOM     19  C   UNL     1      43.694   4.047  10.134  0.00  0.00    +0.000 A 
ATOM     20  C   UNL     1      44.999   4.289   9.698  0.00  0.00    +0.000 A 
ATOM     21  C   UNL     1      45.659   5.359  10.325  0.00  0.00    +0.000 A 
BRANCH  20  22
ATOM     22  C   UNL     1      45.653   3.463   8.660  0.00  0.00    +0.000 A 
ATOM     23  C   UNL     1      46.262   4.045   7.531  0.00  0.00    +0.000 A 
ATOM     24  C   UNL     1      46.922   3.268   6.570  0.00  0.00    +0.000 A 
ATOM     25  C   UNL     1      46.975   1.886   6.712  0.00  0.00    +0.000 A 
ATOM     26  C   UNL     1      46.364   1.295   7.809  0.00  0.00    +0.000 A 
ATOM     27  F   UNL     1      46.408  -0.036   7.951  0.00  0.00    +0.000 F 
ATOM     28  C   UNL     1      45.713   2.063   8.773  0.00  0.00    +0.000 A 
ENDBRANCH  20  22
ENDBRANCH  15  16
ENDBRANCH   1  15
TORSDOF 6
ENDMDL
MODEL 7
REMARK VINA RESULT:    -6.632      3.947      5.178
REMARK INTER + INTRA:         -10.233
REMARK INTER:                  -9.372
REMARK INTRA:                  -0.862
REMARK UNBOUND:                -1.275
REMARK  Name = 
REMARK  7 active torsions:
REMARK  status: ('A' for Active; 'I' for Inactive)
REMARK    1  A    between atoms: C_1  and  O_2
REMARK    2  A    between atoms: O_2  and  C_3
REMARK    3  A    between atoms: C_5  and  C_6
REMARK    4  A    between atoms: C_11  and  O_12
REMARK    5  A    between atoms: O_12  and  C_13
REMARK    6  A    between atoms: C_13  and  C_14
REMARK    7  A    between atoms: C_18  and  C_19
REMARK                            x       y       z     vdW  Elec       q    Type
REMARK                         _______ _______ _______ _____ _____    ______ ____
ROOT
ATOM      1  O   UNL     1      48.930   6.264  14.479  0.00  0.00    +0.000 OA
ENDROOT
BRANCH   1   7
ATOM      2  C   UNL     1      48.194   5.124  16.584  0.00  0.00    +0.000 A 
ATOM      3  C   UNL     1      47.933   5.305  17.950  0.00  0.00    +0.000 A 
ATOM      4  C   UNL     1      48.118   6.550  18.575  0.00  0.00    +0.000 A 
ATOM      5  C   UNL     1      48.573   7.629  17.818  0.00  0.00    +0.000 A 
ATOM      6  C   UNL     1      48.824   7.461  16.453  0.00  0.00    +0.000 A 
ATOM      7  C   UNL     1      48.637   6.222  15.821  0.00  0.00    +0.000 A 
BRANCH   4   8
ATOM      8  C   UNL     1      47.825   6.628  20.036  0.00  0.00    +0.000 C 
ATOM      9  N   UNL     1      47.036   5.670  20.605  0.00  0.00    +0.000 N 
ATOM     10  O   UNL     1      48.277   7.534  20.728  0.00  0.00    +0.000 OA
ATOM     11  H   UNL     1      46.598   4.906  20.119  0.00  0.00    +0.000 HD
ATOM     12  H   UNL     1      46.851   5.769  21.596  0.00  0.00    +0.000 HD
ENDBRANCH   4   8
BRANCH   2  14
ATOM     13  C   UNL     1      48.360   2.743  16.757  0.00  0.00    +0.000 C 
ATOM     14  O   UNL     1      48.095   3.902  15.977  0.00  0.00    +0.000 OA
ENDBRANCH   2  14
ENDBRANCH   1   7
BRANCH   1  15
ATOM     15  C   UNL     1      48.627   7.463  13.768  0.00  0.00    +0.000 C 
BRANCH  15  16
ATOM     16  C   UNL     1      47.309   7.360  13.045  0.00  0.00    +0.000 A 
ATOM     17  C   UNL     1      46.417   8.426  13.095  0.00  0.00    +0.000 A 
ATOM     18  N   UNL     1      45.242   8.460  12.436  0.00  0.00    +0.000 NA
ATOM     19  C   UNL     1      44.941   7.375  11.684  0.00  0.00    +0.000 A 
ATOM     20  C   UNL     1      45.742   6.239  11.544  0.00  0.00    +0.000 A 
ATOM     21  C   UNL     1      46.959   6.266  12.246  0.00  0.00    +0.000 A 
BRANCH  20  22
ATOM     22  C   UNL     1      45.331   5.075  10.730  0.00  0.00    +0.000 A 
ATOM     23  C   UNL     1      44.604   4.005  11.288  0.00  0.00    +0.000 A 
ATOM     24  C   UNL     1      44.174   2.923  10.510  0.00  0.00    +0.000 A 
ATOM     25  C   UNL     1      44.474   2.883   9.152  0.00  0.00    +0.000 A 
ATOM     26  C   UNL     1      45.204   3.920   8.590  0.00  0.00    +0.000 A 
ATOM     27  F   UNL     1      45.499   3.887   7.284  0.00  0.00    +0.000 F 
ATOM     28  C   UNL     1      45.628   5.004   9.358  0.00  0.00    +0.000 A 
ENDBRANCH  20  22
ENDBRANCH  15  16
ENDBRANCH   1  15
TORSDOF 6
ENDMDL
MODEL 8
REMARK VINA RESULT:    -6.285      3.171      3.931
REMARK INTER + INTRA:          -9.765
REMARK INTER:                  -9.887
REMARK INTRA:                   0.123
REMARK UNBOUND:                -1.275
REMARK  Name = 
REMARK  7 active torsions:
REMARK  status: ('A' for Active; 'I' for Inactive)
REMARK    1  A    between atoms: C_1  and  O_2
REMARK    2  A    between atoms: O_2  and  C_3
REMARK    3  A    between atoms: C_5  and  C_6
REMARK    4  A    between atoms: C_11  and  O_12
REMARK    5  A    between atoms: O_12  and  C_13
REMARK    6  A    between atoms: C_13  and  C_14
REMARK    7  A    between atoms: C_18  and  C_19
REMARK                            x       y       z     vdW  Elec       q    Type
REMARK                         _______ _______ _______ _____ _____    ______ ____
ROOT
ATOM      1  O   UNL     1      46.351   4.384  14.700  0.00  0.00    +0.000 OA
ENDROOT
BRANCH   1   7
ATOM      2  C   UNL     1      48.290   5.622  15.691  0.00  0.00    +0.000 A 
ATOM      3  C   UNL     1      49.263   5.600  16.700  0.00  0.00    +0.000 A 
ATOM      4  C   UNL     1      49.324   4.558  17.641  0.00  0.00    +0.000 A 
ATOM      5  C   UNL     1      48.393   3.523  17.569  0.00  0.00    +0.000 A 
ATOM      6  C   UNL     1      47.427   3.528  16.558  0.00  0.00    +0.000 A 
ATOM      7  C   UNL     1      47.363   4.564  15.613  0.00  0.00    +0.000 A 
BRANCH   4   8
ATOM      8  C   UNL     1      50.390   4.642  18.683  0.00  0.00    +0.000 C 
ATOM      9  N   UNL     1      51.202   3.563  18.886  0.00  0.00    +0.000 N 
ATOM     10  O   UNL     1      50.545   5.656  19.354  0.00  0.00    +0.000 OA
ATOM     11  H   UNL     1      51.137   2.681  18.407  0.00  0.00    +0.000 HD
ATOM     12  H   UNL     1      51.902   3.658  19.612  0.00  0.00    +0.000 HD
ENDBRANCH   4   8
BRANCH   2  14
ATOM     13  C   UNL     1      49.355   7.236  14.282  0.00  0.00    +0.000 C 
ATOM     14  O   UNL     1      48.167   6.666  14.817  0.00  0.00    +0.000 OA
ENDBRANCH   2  14
ENDBRANCH   1   7
BRANCH   1  15
ATOM     15  C   UNL     1      46.034   5.472  13.834  0.00  0.00    +0.000 C 
BRANCH  15  16
ATOM     16  C   UNL     1      45.184   5.026  12.672  0.00  0.00    +0.000 A 
ATOM     17  C   UNL     1      43.812   5.251  12.704  0.00  0.00    +0.000 A 
ATOM     18  N   UNL     1      42.973   4.947  11.694  0.00  0.00    +0.000 NA
ATOM     19  C   UNL     1      43.532   4.391  10.592  0.00  0.00    +0.000 A 
ATOM     20  C   UNL     1      44.890   4.110  10.428  0.00  0.00    +0.000 A 
ATOM     21  C   UNL     1      45.717   4.460  11.509  0.00  0.00    +0.000 A 
BRANCH  20  22
ATOM     22  C   UNL     1      45.424   3.469   9.207  0.00  0.00    +0.000 A 
ATOM     23  C   UNL     1      45.824   4.229   8.090  0.00  0.00    +0.000 A 
ATOM     24  C   UNL     1      46.372   3.627   6.950  0.00  0.00    +0.000 A 
ATOM     25  C   UNL     1      46.520   2.245   6.898  0.00  0.00    +0.000 A 
ATOM     26  C   UNL     1      46.114   1.481   7.982  0.00  0.00    +0.000 A 
ATOM     27  F   UNL     1      46.250   0.149   7.937  0.00  0.00    +0.000 F 
ATOM     28  C   UNL     1      45.576   2.073   9.122  0.00  0.00    +0.000 A 
ENDBRANCH  20  22
ENDBRANCH  15  16
ENDBRANCH   1  15
TORSDOF 6
ENDMDL
MODEL 9
REMARK VINA RESULT:    -6.163      3.775      5.127
REMARK INTER + INTRA:          -9.599
REMARK INTER:                  -8.780
REMARK INTRA:                  -0.820
REMARK UNBOUND:                -1.275
REMARK  Name = 
REMARK  7 active torsions:
REMARK  status: ('A' for Active; 'I' for Inactive)
REMARK    1  A    between atoms: C_1  and  O_2
REMARK    2  A    between atoms: O_2  and  C_3
REMARK    3  A    between atoms: C_5  and  C_6
REMARK    4  A    between atoms: C_11  and  O_12
REMARK    5  A    between atoms: O_12  and  C_13
REMARK    6  A    between atoms: C_13  and  C_14
REMARK    7  A    between atoms: C_18  and  C_19
REMARK                            x       y       z     vdW  Elec       q    Type
REMARK                         _______ _______ _______ _____ _____    ______ ____
ROOT
ATOM      1  O   UNL     1      48.484   7.266  15.394  0.00  0.00    +0.000 OA
ENDROOT
BRANCH   1   7
ATOM      2  C   UNL     1      48.686   5.151  16.719  0.00  0.00    +0.000 A 
ATOM      3  C   UNL     1      49.567   4.343  17.453  0.00  0.00    +0.000 A 
ATOM      4  C   UNL     1      50.923   4.678  17.601  0.00  0.00    +0.000 A 
ATOM      5  C   UNL     1      51.404   5.842  17.002  0.00  0.00    +0.000 A 
ATOM      6  C   UNL     1      50.531   6.661  16.279  0.00  0.00    +0.000 A 
ATOM      7  C   UNL     1      49.174   6.334  16.131  0.00  0.00    +0.000 A 
BRANCH   4   8
ATOM      8  C   UNL     1      51.776   3.740  18.389  0.00  0.00    +0.000 C 
ATOM      9  N   UNL     1      51.795   2.418  18.046  0.00  0.00    +0.000 N 
ATOM     10  O   UNL     1      52.452   4.134  19.333  0.00  0.00    +0.000 OA
ATOM     11  H   UNL     1      51.257   1.995  17.309  0.00  0.00    +0.000 HD
ATOM     12  H   UNL     1      52.375   1.814  18.616  0.00  0.00    +0.000 HD
ENDBRANCH   4   8
BRANCH   2  14
ATOM     13  C   UNL     1      47.081   4.029  15.343  0.00  0.00    +0.000 C 
ATOM     14  O   UNL     1      47.383   4.799  16.500  0.00  0.00    +0.000 OA
ENDBRANCH   2  14
ENDBRANCH   1   7
BRANCH   1  15
ATOM     15  C   UNL     1      48.719   7.312  13.988  0.00  0.00    +0.000 C 
BRANCH  15  16
ATOM     16  C   UNL     1      47.430   7.288  13.209  0.00  0.00    +0.000 A 
ATOM     17  C   UNL     1      46.627   8.422  13.183  0.00  0.00    +0.000 A 
ATOM     18  N   UNL     1      45.488   8.526  12.469  0.00  0.00    +0.000 NA
ATOM     19  C   UNL     1      45.131   7.441  11.741  0.00  0.00    +0.000 A 
ATOM     20  C   UNL     1      45.843   6.240  11.676  0.00  0.00    +0.000 A 
ATOM     21  C   UNL     1      47.027   6.196  12.431  0.00  0.00    +0.000 A 
BRANCH  20  22
ATOM     22  C   UNL     1      45.373   5.084  10.884  0.00  0.00    +0.000 A 
ATOM     23  C   UNL     1      44.710   3.997  11.487  0.00  0.00    +0.000 A 
ATOM     24  C   UNL     1      44.224   2.922  10.732  0.00  0.00    +0.000 A 
ATOM     25  C   UNL     1      44.404   2.905   9.353  0.00  0.00    +0.000 A 
ATOM     26  C   UNL     1      45.070   3.959   8.745  0.00  0.00    +0.000 A 
ATOM     27  F   UNL     1      45.250   3.948   7.418  0.00  0.00    +0.000 F 
ATOM     28  C   UNL     1      45.549   5.036   9.489  0.00  0.00    +0.000 A 
ENDBRANCH  20  22
ENDBRANCH  15  16
ENDBRANCH   1  15
TORSDOF 6
ENDMDL
