MODEL 1
REMARK VINA RESULT:    -8.466      0.000      0.000
REMARK INTER + INTRA:         -12.423
REMARK INTER:                 -11.435
REMARK INTRA:                  -0.987
REMARK UNBOUND:                -0.987
REMARK  Name = 
REMARK  7 active torsions:
REMARK  status: ('A' for Active; 'I' for Inactive)
REMARK    1  A    between atoms: C_1  and  C_2
REMARK    2  A    between atoms: C_2  and  C_3
REMARK    3  A    between atoms: C_2  and  C_15
REMARK    4  A    between atoms: C_3  and  O_4
REMARK    5  A    between atoms: O_4  and  C_5
REMARK    6  A    between atoms: C_8  and  C_9
REMARK    7  A    between atoms: C_19  and  C_20
REMARK                            x       y       z     vdW  Elec       q    Type
REMARK                         _______ _______ _______ _____ _____    ______ ____
ROOT
ATOM      1  O   UNL     1      43.456   3.164  10.283  0.00  0.00    +0.000 OA
ENDROOT
BRANCH   1   2
ATOM      2  C   UNL     1      44.423   3.055   9.328  0.00  0.00    +0.000 A 
ATOM      3  C   UNL     1      44.969   4.107   8.592  0.00  0.00    +0.000 A 
ATOM      4  C   UNL     1      45.987   3.859   7.667  0.00  0.00    +0.000 A 
ATOM      5  C   UNL     1      46.466   2.558   7.466  0.00  0.00    +0.000 A 
ATOM      6  C   UNL     1      45.894   1.513   8.191  0.00  0.00    +0.000 A 
ATOM      7  F   UNL     1      46.307   0.246   8.031  0.00  0.00    +0.000 F 
ATOM      8  C   UNL     1      44.880   1.756   9.113  0.00  0.00    +0.000 A 
BRANCH   5   9
ATOM      9  C   UNL     1      47.576   2.360   6.498  0.00  0.00    +0.000 C 
ATOM     10  N   UNL     1      47.479   2.962   5.278  0.00  0.00    +0.000 N 
ATOM     11  O   UNL     1      48.549   1.672   6.780  0.00  0.00    +0.000 OA
ATOM     12  H   UNL     1      46.688   3.532   5.003  0.00  0.00    +0.000 HD
ATOM     13  H   UNL     1      48.226   2.815   4.614  0.00  0.00    +0.000 HD
ENDBRANCH   5   9
ENDBRANCH   1   2
BRANCH   1  14
ATOM     14  C   UNL     1      43.881   3.137  11.644  0.00  0.00    +0.000 C 
BRANCH  14  16
ATOM     15  C   UNL     1      42.765   5.436  11.830  0.00  0.00    +0.000 C 
ATOM     16  C   UNL     1      43.936   4.553  12.129  0.00  0.00    +0.000 C 
BRANCH  16  17
ATOM     17  C   UNL     1      45.237   5.171  12.430  0.00  0.00    +0.000 A 
ATOM     18  C   UNL     1      45.829   6.068  11.531  0.00  0.00    +0.000 A 
ATOM     19  C   UNL     1      47.054   6.672  11.822  0.00  0.00    +0.000 A 
ATOM     20  C   UNL     1      47.706   6.376  13.015  0.00  0.00    +0.000 A 
ATOM     21  C   UNL     1      47.132   5.476  13.920  0.00  0.00    +0.000 A 
ATOM     22  C   UNL     1      45.900   4.877  13.625  0.00  0.00    +0.000 A 
BRANCH  21  23
ATOM     23  C   UNL     1      47.804   5.167  15.144  0.00  0.00    +0.000 C 
ATOM     24  N   UNL     1      48.350   4.916  16.139  0.00  0.00    +0.000 NA
ENDBRANCH  21  23
ENDBRANCH  16  17
ENDBRANCH  14  16
ENDBRANCH   1  14
TORSDOF 6
ENDMDL
MODEL 2
REMARK VINA RESULT:    -8.183      1.562      2.004
REMARK INTER + INTRA:         -12.041
REMARK INTER:                 -11.191
REMARK INTRA:                  -0.850
REMARK UNBOUND:                -0.987
REMARK  Name = 
REMARK  7 active torsions:
REMARK  status: ('A' for Active; 'I' for Inactive)
REMARK    1  A    between atoms: C_1  and  C_2
REMARK    2  A    between atoms: C_2  and  C_3
REMARK    3  A    between atoms: C_2  and  C_15
REMARK    4  A    between atoms: C_3  and  O_4
REMARK    5  A    between atoms: O_4  and  C_5
REMARK    6  A    between atoms: C_8  and  C_9
REMARK    7  A    between atoms: C_19  and  C_20
REMARK                            x       y       z     vdW  Elec       q    Type
REMARK                         _______ _______ _______ _____ _____    ______ ____
ROOT
ATOM      1  O   UNL     1      43.479   3.214  10.412  0.00  0.00    +0.000 OA
ENDROOT
BRANCH   1   2
ATOM      2  C   UNL     1      44.434   3.097   9.445  0.00  0.00    +0.000 A 
ATOM      3  C   UNL     1      45.022   4.150   8.745  0.00  0.00    +0.000 A 
ATOM      4  C   UNL     1      46.021   3.891   7.802  0.00  0.00    +0.000 A 
ATOM      5  C   UNL     1      46.438   2.577   7.548  0.00  0.00    +0.000 A 
ATOM      6  C   UNL     1      45.824   1.534   8.239  0.00  0.00    +0.000 A 
ATOM      7  F   UNL     1      46.177   0.255   8.028  0.00  0.00    +0.000 F 
ATOM      8  C   UNL     1      44.828   1.787   9.178  0.00  0.00    +0.000 A 
BRANCH   5   9
ATOM      9  C   UNL     1      47.531   2.366   6.564  0.00  0.00    +0.000 C 
ATOM     10  N   UNL     1      47.450   3.013   5.366  0.00  0.00    +0.000 N 
ATOM     11  O   UNL     1      48.475   1.626   6.813  0.00  0.00    +0.000 OA
ATOM     12  H   UNL     1      46.683   3.626   5.119  0.00  0.00    +0.000 HD
ATOM     13  H   UNL     1      48.186   2.857   4.691  0.00  0.00    +0.000 HD
ENDBRANCH   5   9
ENDBRANCH   1   2
BRANCH   1  14
ATOM     14  C   UNL     1      43.920   3.171  11.769  0.00  0.00    +0.000 C 
BRANCH  14  16
ATOM     15  C   UNL     1      42.536   5.312  12.034  0.00  0.00    +0.000 C 
ATOM     16  C   UNL     1      43.794   4.555  12.328  0.00  0.00    +0.000 C 
BRANCH  16  17
ATOM     17  C   UNL     1      45.003   5.300  12.709  0.00  0.00    +0.000 A 
ATOM     18  C   UNL     1      46.064   4.658  13.363  0.00  0.00    +0.000 A 
ATOM     19  C   UNL     1      47.222   5.356  13.709  0.00  0.00    +0.000 A 
ATOM     20  C   UNL     1      47.329   6.712  13.411  0.00  0.00    +0.000 A 
ATOM     21  C   UNL     1      46.275   7.369  12.766  0.00  0.00    +0.000 A 
ATOM     22  C   UNL     1      45.118   6.662  12.417  0.00  0.00    +0.000 A 
BRANCH  21  23
ATOM     23  C   UNL     1      46.382   8.764  12.465  0.00  0.00    +0.000 C 
ATOM     24  N   UNL     1      46.468   9.896  12.220  0.00  0.00    +0.000 NA
ENDBRANCH  21  23
ENDBRANCH  16  17
ENDBRANCH  14  16
ENDBRANCH   1  14
TORSDOF 6
ENDMDL
MODEL 3
REMARK VINA RESULT:    -7.619      2.986      6.235
REMARK INTER + INTRA:         -11.278
REMARK INTER:                 -10.146
REMARK INTRA:                  -1.132
REMARK UNBOUND:                -0.987
REMARK  Name = 
REMARK  7 active torsions:
REMARK  status: ('A' for Active; 'I' for Inactive)
REMARK    1  A    between atoms: C_1  and  C_2
REMARK    2  A    between atoms: C_2  and  C_3
REMARK    3  A    between atoms: C_2  and  C_15
REMARK    4  A    between atoms: C_3  and  O_4
REMARK    5  A    between atoms: O_4  and  C_5
REMARK    6  A    between atoms: C_8  and  C_9
REMARK    7  A    between atoms: C_19  and  C_20
REMARK                            x       y       z     vdW  Elec       q    Type
REMARK                         _______ _______ _______ _____ _____    ______ ____
ROOT
ATOM      1  O   UNL     1      43.621   5.197  12.524  0.00  0.00    +0.000 OA
ENDROOT
BRANCH   1   2
ATOM      2  C   UNL     1      44.898   5.655  12.659  0.00  0.00    +0.000 A 
ATOM      3  C   UNL     1      45.470   6.708  11.944  0.00  0.00    +0.000 A 
ATOM      4  C   UNL     1      46.784   7.102  12.210  0.00  0.00    +0.000 A 
ATOM      5  C   UNL     1      47.541   6.445  13.190  0.00  0.00    +0.000 A 
ATOM      6  C   UNL     1      46.964   5.379  13.879  0.00  0.00    +0.000 A 
ATOM      7  F   UNL     1      47.646   4.707  14.820  0.00  0.00    +0.000 F 
ATOM      8  C   UNL     1      45.656   4.983  13.617  0.00  0.00    +0.000 A 
BRANCH   5   9
ATOM      9  C   UNL     1      48.919   6.932  13.456  0.00  0.00    +0.000 C 
ATOM     10  N   UNL     1      49.804   6.954  12.419  0.00  0.00    +0.000 N 
ATOM     11  O   UNL     1      49.258   7.297  14.575  0.00  0.00    +0.000 OA
ATOM     12  H   UNL     1      49.566   6.654  11.481  0.00  0.00    +0.000 HD
ATOM     13  H   UNL     1      50.745   7.272  12.604  0.00  0.00    +0.000 HD
ENDBRANCH   5   9
ENDBRANCH   1   2
BRANCH   1  14
ATOM     14  C   UNL     1      43.150   4.966  11.198  0.00  0.00    +0.000 C 
BRANCH  14  16
ATOM     15  C   UNL     1      43.434   2.488  11.790  0.00  0.00    +0.000 C 
ATOM     16  C   UNL     1      43.595   3.594  10.793  0.00  0.00    +0.000 C 
BRANCH  16  17
ATOM     17  C   UNL     1      44.569   3.436   9.703  0.00  0.00    +0.000 A 
ATOM     18  C   UNL     1      45.061   4.554   9.014  0.00  0.00    +0.000 A 
ATOM     19  C   UNL     1      46.001   4.411   7.992  0.00  0.00    +0.000 A 
ATOM     20  C   UNL     1      46.454   3.143   7.640  0.00  0.00    +0.000 A 
ATOM     21  C   UNL     1      45.966   2.016   8.311  0.00  0.00    +0.000 A 
ATOM     22  C   UNL     1      45.028   2.166   9.340  0.00  0.00    +0.000 A 
BRANCH  21  23
ATOM     23  C   UNL     1      46.427   0.712   7.946  0.00  0.00    +0.000 C 
ATOM     24  N   UNL     1      46.802  -0.347   7.650  0.00  0.00    +0.000 NA
ENDBRANCH  21  23
ENDBRANCH  16  17
ENDBRANCH  14  16
ENDBRANCH   1  14
TORSDOF 6
ENDMDL
MODEL 4
REMARK VINA RESULT:    -7.477      1.335      1.593
REMARK INTER + INTRA:         -11.087
REMARK INTER:                 -10.530
REMARK INTRA:                  -0.556
REMARK UNBOUND:                -0.987
REMARK  Name = 
REMARK  7 active torsions:
REMARK  status: ('A' for Active; 'I' for Inactive)
REMARK    1  A    between atoms: C_1  and  C_2
REMARK    2  A    between atoms: C_2  and  C_3
REMARK    3  A    between atoms: C_2  and  C_15
REMARK    4  A    between atoms: C_3  and  O_4
REMARK    5  A    between atoms: O_4  and  C_5
REMARK    6  A    between atoms: C_8  and  C_9
REMARK    7  A    between atoms: C_19  and  C_20
REMARK                            x       y       z     vdW  Elec       q    Type
REMARK                         _______ _______ _______ _____ _____    ______ ____
ROOT
ATOM      1  O   UNL     1      43.665   3.292  10.585  0.00  0.00    +0.000 OA
ENDROOT
BRANCH   1   2
ATOM      2  C   UNL     1      44.508   3.212   9.516  0.00  0.00    +0.000 A 
ATOM      3  C   UNL     1      44.926   4.279   8.722  0.00  0.00    +0.000 A 
ATOM      4  C   UNL     1      45.828   4.062   7.676  0.00  0.00    +0.000 A 
ATOM      5  C   UNL     1      46.318   2.776   7.413  0.00  0.00    +0.000 A 
ATOM      6  C   UNL     1      45.873   1.715   8.201  0.00  0.00    +0.000 A 
ATOM      7  F   UNL     1      46.301   0.460   7.987  0.00  0.00    +0.000 F 
ATOM      8  C   UNL     1      44.974   1.927   9.242  0.00  0.00    +0.000 A 
BRANCH   5   9
ATOM      9  C   UNL     1      47.304   2.612   6.314  0.00  0.00    +0.000 C 
ATOM     10  N   UNL     1      48.557   2.177   6.635  0.00  0.00    +0.000 N 
ATOM     11  O   UNL     1      47.009   2.866   5.153  0.00  0.00    +0.000 OA
ATOM     12  H   UNL     1      48.843   1.963   7.583  0.00  0.00    +0.000 HD
ATOM     13  H   UNL     1      49.232   2.080   5.890  0.00  0.00    +0.000 HD
ENDBRANCH   5   9
ENDBRANCH   1   2
BRANCH   1  14
ATOM     14  C   UNL     1      43.756   4.460  11.399  0.00  0.00    +0.000 C 
BRANCH  14  16
ATOM     15  C   UNL     1      45.590   3.185  12.657  0.00  0.00    +0.000 C 
ATOM     16  C   UNL     1      45.112   4.461  12.036  0.00  0.00    +0.000 C 
BRANCH  16  17
ATOM     17  C   UNL     1      45.716   5.732  12.463  0.00  0.00    +0.000 A 
ATOM     18  C   UNL     1      45.084   6.953  12.187  0.00  0.00    +0.000 A 
ATOM     19  C   UNL     1      45.643   8.161  12.607  0.00  0.00    +0.000 A 
ATOM     20  C   UNL     1      46.848   8.162  13.303  0.00  0.00    +0.000 A 
ATOM     21  C   UNL     1      47.495   6.953  13.579  0.00  0.00    +0.000 A 
ATOM     22  C   UNL     1      46.927   5.743  13.160  0.00  0.00    +0.000 A 
BRANCH  21  23
ATOM     23  C   UNL     1      48.737   6.953  14.290  0.00  0.00    +0.000 C 
ATOM     24  N   UNL     1      49.745   6.954  14.867  0.00  0.00    +0.000 NA
ENDBRANCH  21  23
ENDBRANCH  16  17
ENDBRANCH  14  16
ENDBRANCH   1  14
TORSDOF 6
ENDMDL
MODEL 5
REMARK VINA RESULT:    -7.337      2.597      3.278
REMARK INTER + INTRA:         -10.898
REMARK INTER:                 -10.247
REMARK INTRA:                  -0.651
REMARK UNBOUND:                -0.987
REMARK  Name = 
REMARK  7 active torsions:
REMARK  status: ('A' for Active; 'I' for Inactive)
REMARK    1  A    between atoms: C_1  and  C_2
REMARK    2  A    between atoms: C_2  and  C_3
REMARK    3  A    between atoms: C_2  and  C_15
REMARK    4  A    between atoms: C_3  and  O_4
REMARK    5  A    between atoms: O_4  and  C_5
REMARK    6  A    between atoms: C_8  and  C_9
REMARK    7  A    between atoms: C_19  and  C_20
REMARK                            x       y       z     vdW  Elec       q    Type
REMARK                         _______ _______ _______ _____ _____    ______ ____
ROOT
ATOM      1  O   UNL     1      43.878   4.947  10.124  0.00  0.00    +0.000 OA
ENDROOT
BRANCH   1   2
ATOM      2  C   UNL     1      44.588   3.964   9.500  0.00  0.00    +0.000 A 
ATOM      3  C   UNL     1      44.423   2.592   9.686  0.00  0.00    +0.000 A 
ATOM      4  C   UNL     1      45.195   1.688   8.951  0.00  0.00    +0.000 A 
ATOM      5  C   UNL     1      46.141   2.148   8.025  0.00  0.00    +0.000 A 
ATOM      6  C   UNL     1      46.312   3.523   7.868  0.00  0.00    +0.000 A 
ATOM      7  F   UNL     1      47.212   4.019   7.003  0.00  0.00    +0.000 F 
ATOM      8  C   UNL     1      45.546   4.426   8.599  0.00  0.00    +0.000 A 
BRANCH   5   9
ATOM      9  C   UNL     1      46.905   1.141   7.244  0.00  0.00    +0.000 C 
ATOM     10  N   UNL     1      46.860  -0.159   7.654  0.00  0.00    +0.000 N 
ATOM     11  O   UNL     1      47.564   1.465   6.264  0.00  0.00    +0.000 OA
ATOM     12  H   UNL     1      46.334  -0.466   8.463  0.00  0.00    +0.000 HD
ATOM     13  H   UNL     1      47.392  -0.841   7.131  0.00  0.00    +0.000 HD
ENDBRANCH   5   9
ENDBRANCH   1   2
BRANCH   1  14
ATOM     14  C   UNL     1      43.825   4.906  11.549  0.00  0.00    +0.000 C 
BRANCH  14  16
ATOM     15  C   UNL     1      45.769   3.998  12.950  0.00  0.00    +0.000 C 
ATOM     16  C   UNL     1      45.225   5.069  12.057  0.00  0.00    +0.000 C 
BRANCH  16  17
ATOM     17  C   UNL     1      45.837   6.406  12.092  0.00  0.00    +0.000 A 
ATOM     18  C   UNL     1      47.228   6.555  12.165  0.00  0.00    +0.000 A 
ATOM     19  C   UNL     1      47.815   7.821  12.179  0.00  0.00    +0.000 A 
ATOM     20  C   UNL     1      47.013   8.957  12.127  0.00  0.00    +0.000 A 
ATOM     21  C   UNL     1      45.621   8.826  12.063  0.00  0.00    +0.000 A 
ATOM     22  C   UNL     1      45.038   7.552  12.044  0.00  0.00    +0.000 A 
BRANCH  21  23
ATOM     23  C   UNL     1      44.795   9.993  12.015  0.00  0.00    +0.000 C 
ATOM     24  N   UNL     1      44.125  10.941  11.977  0.00  0.00    +0.000 NA
ENDBRANCH  21  23
ENDBRANCH  16  17
ENDBRANCH  14  16
ENDBRANCH   1  14
TORSDOF 6
ENDMDL
MODEL 6
REMARK VINA RESULT:    -6.797      3.568      6.708
REMARK INTER + INTRA:         -10.168
REMARK INTER:                  -9.405
REMARK INTRA:                  -0.764
REMARK UNBOUND:                -0.987
REMARK  Name = 
REMARK  7 active torsions:
REMARK  status: ('A' for Active; 'I' for Inactive)
REMARK    1  A    between atoms: C_1  and  C_2
REMARK    2  A    between atoms: C_2  and  C_3
REMARK    3  A    between atoms: C_2  and  C_15
REMARK    4  A    between atoms: C_3  and  O_4
REMARK    5  A    between atoms: O_4  and  C_5
REMARK    6  A    between atoms: C_8  and  C_9
REMARK    7  A    between atoms: C_19  and  C_20
REMARK                            x       y       z     vdW  Elec       q    Type
REMARK                         _______ _______ _______ _____ _____    ______ ____
ROOT
ATOM      1  O   UNL     1      44.438   5.076  12.615  0.00  0.00    +0.000 OA
ENDROOT
BRANCH   1   2
ATOM      2  C   UNL     1      45.381   6.057  12.540  0.00  0.00    +0.000 A 
ATOM      3  C   UNL     1      46.735   5.871  12.261  0.00  0.00    +0.000 A 
ATOM      4  C   UNL     1      47.590   6.974  12.175  0.00  0.00    +0.000 A 
ATOM      5  C   UNL     1      47.100   8.273  12.371  0.00  0.00    +0.000 A 
ATOM      6  C   UNL     1      45.749   8.441  12.672  0.00  0.00    +0.000 A 
ATOM      7  F   UNL     1      45.228   9.661  12.879  0.00  0.00    +0.000 F 
ATOM      8  C   UNL     1      44.895   7.345  12.759  0.00  0.00    +0.000 A 
BRANCH   5   9
ATOM      9  C   UNL     1      48.046   9.409  12.229  0.00  0.00    +0.000 C 
ATOM     10  N   UNL     1      47.889  10.483  13.055  0.00  0.00    +0.000 N 
ATOM     11  O   UNL     1      48.938   9.390  11.390  0.00  0.00    +0.000 OA
ATOM     12  H   UNL     1      47.160  10.540  13.755  0.00  0.00    +0.000 HD
ATOM     13  H   UNL     1      48.523  11.262  12.947  0.00  0.00    +0.000 HD
ENDBRANCH   5   9
ENDBRANCH   1   2
BRANCH   1  14
ATOM     14  C   UNL     1      43.537   4.954  11.516  0.00  0.00    +0.000 C 
BRANCH  14  16
ATOM     15  C   UNL     1      43.400   2.406  11.758  0.00  0.00    +0.000 C 
ATOM     16  C   UNL     1      43.739   3.597  10.915  0.00  0.00    +0.000 C 
BRANCH  16  17
ATOM     17  C   UNL     1      44.663   3.430   9.783  0.00  0.00    +0.000 A 
ATOM     18  C   UNL     1      45.132   4.544   9.072  0.00  0.00    +0.000 A 
ATOM     19  C   UNL     1      46.024   4.392   8.009  0.00  0.00    +0.000 A 
ATOM     20  C   UNL     1      46.452   3.121   7.639  0.00  0.00    +0.000 A 
ATOM     21  C   UNL     1      45.987   1.998   8.333  0.00  0.00    +0.000 A 
ATOM     22  C   UNL     1      45.095   2.156   9.403  0.00  0.00    +0.000 A 
BRANCH  21  23
ATOM     23  C   UNL     1      46.421   0.691   7.950  0.00  0.00    +0.000 C 
ATOM     24  N   UNL     1      46.775  -0.372   7.639  0.00  0.00    +0.000 NA
ENDBRANCH  21  23
ENDBRANCH  16  17
ENDBRANCH  14  16
ENDBRANCH   1  14
TORSDOF 6
ENDMDL
MODEL 7
REMARK VINA RESULT:    -6.651      2.304      3.021
REMARK INTER + INTRA:          -9.971
REMARK INTER:                  -9.131
REMARK INTRA:                  -0.840
REMARK UNBOUND:                -0.987
REMARK  Name = 
REMARK  7 active torsions:
REMARK  status: ('A' for Active; 'I' for Inactive)
REMARK    1  A    between atoms: C_1  and  C_2
REMARK    2  A    between atoms: C_2  and  C_3
REMARK    3  A    between atoms: C_2  and  C_15
REMARK    4  A    between atoms: C_3  and  O_4
REMARK    5  A    between atoms: O_4  and  C_5
REMARK    6  A    between atoms: C_8  and  C_9
REMARK    7  A    between atoms: C_19  and  C_20
REMARK                            x       y       z     vdW  Elec       q    Type
REMARK                         _______ _______ _______ _____ _____    ______ ____
ROOT
ATOM      1  O   UNL     1      43.957   5.188  10.984  0.00  0.00    +0.000 OA
ENDROOT
BRANCH   1   2
ATOM      2  C   UNL     1      44.555   4.298  10.141  0.00  0.00    +0.000 A 
ATOM      3  C   UNL     1      44.316   2.925  10.097  0.00  0.00    +0.000 A 
ATOM      4  C   UNL     1      44.972   2.130   9.153  0.00  0.00    +0.000 A 
ATOM      5  C   UNL     1      45.875   2.701   8.246  0.00  0.00    +0.000 A 
ATOM      6  C   UNL     1      46.122   4.071   8.317  0.00  0.00    +0.000 A 
ATOM      7  F   UNL     1      46.985   4.669   7.480  0.00  0.00    +0.000 F 
ATOM      8  C   UNL     1      45.471   4.866   9.257  0.00  0.00    +0.000 A 
BRANCH   5   9
ATOM      9  C   UNL     1      46.513   1.814   7.239  0.00  0.00    +0.000 C 
ATOM     10  N   UNL     1      46.874   0.557   7.628  0.00  0.00    +0.000 N 
ATOM     11  O   UNL     1      46.719   2.197   6.095  0.00  0.00    +0.000 OA
ATOM     12  H   UNL     1      46.729   0.205   8.566  0.00  0.00    +0.000 HD
ATOM     13  H   UNL     1      47.322  -0.041   6.947  0.00  0.00    +0.000 HD
ENDBRANCH   5   9
ENDBRANCH   1   2
BRANCH   1  14
ATOM     14  C   UNL     1      44.117   4.965  12.384  0.00  0.00    +0.000 C 
BRANCH  14  16
ATOM     15  C   UNL     1      46.222   4.240  13.655  0.00  0.00    +0.000 C 
ATOM     16  C   UNL     1      45.559   5.200  12.717  0.00  0.00    +0.000 C 
BRANCH  16  17
ATOM     17  C   UNL     1      46.138   6.540  12.541  0.00  0.00    +0.000 A 
ATOM     18  C   UNL     1      45.363   7.689  12.755  0.00  0.00    +0.000 A 
ATOM     19  C   UNL     1      45.913   8.963  12.608  0.00  0.00    +0.000 A 
ATOM     20  C   UNL     1      47.247   9.104  12.236  0.00  0.00    +0.000 A 
ATOM     21  C   UNL     1      48.031   7.967  12.010  0.00  0.00    +0.000 A 
ATOM     22  C   UNL     1      47.475   6.690  12.164  0.00  0.00    +0.000 A 
BRANCH  21  23
ATOM     23  C   UNL     1      49.401   8.110  11.622  0.00  0.00    +0.000 C 
ATOM     24  N   UNL     1      50.513   8.226  11.306  0.00  0.00    +0.000 NA
ENDBRANCH  21  23
ENDBRANCH  16  17
ENDBRANCH  14  16
ENDBRANCH   1  14
TORSDOF 6
ENDMDL
MODEL 8
REMARK VINA RESULT:    -6.117      3.890      8.106
REMARK INTER + INTRA:          -9.250
REMARK INTER:                  -8.359
REMARK INTRA:                  -0.892
REMARK UNBOUND:                -0.987
REMARK  Name = 
REMARK  7 active torsions:
REMARK  status: ('A' for Active; 'I' for Inactive)
REMARK    1  A    between atoms: C_1  and  C_2
REMARK    2  A    between atoms: C_2  and  C_3
REMARK    3  A    between atoms: C_2  and  C_15
REMARK    4  A    between atoms: C_3  and  O_4
REMARK    5  A    between atoms: O_4  and  C_5
REMARK    6  A    between atoms: C_8  and  C_9
REMARK    7  A    between atoms: C_19  and  C_20
REMARK                            x       y       z     vdW  Elec       q    Type
REMARK                         _______ _______ _______ _____ _____    ______ ____
ROOT
ATOM      1  O   UNL     1      47.687   5.200  13.633  0.00  0.00    +0.000 OA
ENDROOT
BRANCH   1   2
ATOM      2  C   UNL     1      47.842   5.188  14.988  0.00  0.00    +0.000 A 
ATOM      3  C   UNL     1      48.497   6.158  15.746  0.00  0.00    +0.000 A 
ATOM      4  C   UNL     1      48.550   6.040  17.138  0.00  0.00    +0.000 A 
ATOM      5  C   UNL     1      47.952   4.950  17.784  0.00  0.00    +0.000 A 
ATOM      6  C   UNL     1      47.321   3.976  17.011  0.00  0.00    +0.000 A 
ATOM      7  F   UNL     1      46.741   2.906  17.577  0.00  0.00    +0.000 F 
ATOM      8  C   UNL     1      47.267   4.089  15.625  0.00  0.00    +0.000 A 
BRANCH   5   9
ATOM      9  C   UNL     1      48.006   4.898  19.268  0.00  0.00    +0.000 C 
ATOM     10  N   UNL     1      48.566   3.800  19.852  0.00  0.00    +0.000 N 
ATOM     11  O   UNL     1      47.554   5.808  19.952  0.00  0.00    +0.000 OA
ATOM     12  H   UNL     1      48.944   3.024  19.323  0.00  0.00    +0.000 HD
ATOM     13  H   UNL     1      48.589   3.759  20.861  0.00  0.00    +0.000 HD
ENDBRANCH   5   9
ENDBRANCH   1   2
BRANCH   1  14
ATOM     14  C   UNL     1      47.911   6.441  12.965  0.00  0.00    +0.000 C 
BRANCH  14  16
ATOM     15  C   UNL     1      46.212   8.341  13.234  0.00  0.00    +0.000 C 
ATOM     16  C   UNL     1      46.572   7.020  12.627  0.00  0.00    +0.000 C 
BRANCH  16  17
ATOM     17  C   UNL     1      45.496   6.139  12.148  0.00  0.00    +0.000 A 
ATOM     18  C   UNL     1      44.379   5.870  12.951  0.00  0.00    +0.000 A 
ATOM     19  C   UNL     1      43.347   5.050  12.493  0.00  0.00    +0.000 A 
ATOM     20  C   UNL     1      43.425   4.481  11.225  0.00  0.00    +0.000 A 
ATOM     21  C   UNL     1      44.537   4.733  10.414  0.00  0.00    +0.000 A 
ATOM     22  C   UNL     1      45.568   5.561  10.877  0.00  0.00    +0.000 A 
BRANCH  21  23
ATOM     23  C   UNL     1      44.620   4.145   9.113  0.00  0.00    +0.000 C 
ATOM     24  N   UNL     1      44.688   3.666   8.056  0.00  0.00    +0.000 NA
ENDBRANCH  21  23
ENDBRANCH  16  17
ENDBRANCH  14  16
ENDBRANCH   1  14
TORSDOF 6
ENDMDL
MODEL 9
REMARK VINA RESULT:    -5.992      3.843      7.552
REMARK INTER + INTRA:          -9.082
REMARK INTER:                  -8.099
REMARK INTRA:                  -0.982
REMARK UNBOUND:                -0.987
REMARK  Name = 
REMARK  7 active torsions:
REMARK  status: ('A' for Active; 'I' for Inactive)
REMARK    1  A    between atoms: C_1  and  C_2
REMARK    2  A    between atoms: C_2  and  C_3
REMARK    3  A    between atoms: C_2  and  C_15
REMARK    4  A    between atoms: C_3  and  O_4
REMARK    5  A    between atoms: O_4  and  C_5
REMARK    6  A    between atoms: C_8  and  C_9
REMARK    7  A    between atoms: C_19  and  C_20
REMARK                            x       y       z     vdW  Elec       q    Type
REMARK                         _______ _______ _______ _____ _____    ______ ____
ROOT
ATOM      1  O   UNL     1      47.285   6.284  12.722  0.00  0.00    +0.000 OA
ENDROOT
BRANCH   1   2
ATOM      2  C   UNL     1      47.482   5.742  13.958  0.00  0.00    +0.000 A 
ATOM      3  C   UNL     1      46.951   4.537  14.418  0.00  0.00    +0.000 A 
ATOM      4  C   UNL     1      47.266   4.078  15.699  0.00  0.00    +0.000 A 
ATOM      5  C   UNL     1      48.111   4.821  16.535  0.00  0.00    +0.000 A 
ATOM      6  C   UNL     1      48.615   6.035  16.070  0.00  0.00    +0.000 A 
ATOM      7  F   UNL     1      49.421   6.792  16.832  0.00  0.00    +0.000 F 
ATOM      8  C   UNL     1      48.303   6.496  14.795  0.00  0.00    +0.000 A 
BRANCH   5   9
ATOM      9  C   UNL     1      48.442   4.264  17.872  0.00  0.00    +0.000 C 
ATOM     10  N   UNL     1      47.590   4.525  18.905  0.00  0.00    +0.000 N 
ATOM     11  O   UNL     1      49.454   3.597  18.049  0.00  0.00    +0.000 OA
ATOM     12  H   UNL     1      46.748   5.078  18.802  0.00  0.00    +0.000 HD
ATOM     13  H   UNL     1      47.823   4.159  19.817  0.00  0.00    +0.000 HD
ENDBRANCH   5   9
ENDBRANCH   1   2
BRANCH   1  14
ATOM     14  C   UNL     1      46.513   7.481  12.652  0.00  0.00    +0.000 C 
BRANCH  14  16
ATOM     15  C   UNL     1      44.520   8.365  11.303  0.00  0.00    +0.000 C 
ATOM     16  C   UNL     1      45.314   7.196  11.799  0.00  0.00    +0.000 C 
BRANCH  16  17
ATOM     17  C   UNL     1      44.675   5.873  11.858  0.00  0.00    +0.000 A 
ATOM     18  C   UNL     1      43.829   5.533  12.922  0.00  0.00    +0.000 A 
ATOM     19  C   UNL     1      43.205   4.286  12.973  0.00  0.00    +0.000 A 
ATOM     20  C   UNL     1      43.428   3.357  11.960  0.00  0.00    +0.000 A 
ATOM     21  C   UNL     1      44.278   3.678  10.895  0.00  0.00    +0.000 A 
ATOM     22  C   UNL     1      44.897   4.933  10.847  0.00  0.00    +0.000 A 
BRANCH  21  23
ATOM     23  C   UNL     1      44.513   2.723   9.857  0.00  0.00    +0.000 C 
ATOM     24  N   UNL     1      44.704   1.946   9.013  0.00  0.00    +0.000 NA
ENDBRANCH  21  23
ENDBRANCH  16  17
ENDBRANCH  14  16
ENDBRANCH   1  14
TORSDOF 6
ENDMDL
