MODEL 1
REMARK VINA RESULT:    -8.547      0.000      0.000
REMARK INTER + INTRA:         -11.891
REMARK INTER:                 -10.796
REMARK INTRA:                  -1.095
REMARK UNBOUND:                -1.095
REMARK  Name = 
REMARK  7 active torsions:
REMARK  status: ('A' for Active; 'I' for Inactive)
REMARK    1  A    between atoms: C_1  and  C_2
REMARK    2  A    between atoms: C_2  and  C_3
REMARK    3  A    between atoms: C_2  and  O_4
REMARK    4  A    between atoms: C_2  and  C_15
REMARK    5  A    between atoms: O_4  and  C_5
REMARK    6  A    between atoms: C_8  and  C_9
REMARK    7  A    between atoms: C_12  and  O_13
REMARK                            x       y       z     vdW  Elec       q    Type
REMARK                         _______ _______ _______ _____ _____    ______ ____
ROOT
ATOM      1  C   UNL     1      44.541   3.697   9.333  0.00  0.00    +0.000 A 
ATOM      2  C   UNL     1      44.736   2.337   9.536  0.00  0.00    +0.000 A 
ATOM      3  C   UNL     1      45.645   1.629   8.724  0.00  0.00    +0.000 A 
ATOM      4  C   UNL     1      46.385   2.271   7.718  0.00  0.00    +0.000 A 
ATOM      5  C   UNL     1      46.220   3.649   7.553  0.00  0.00    +0.000 A 
ATOM      6  C   UNL     1      45.320   4.349   8.365  0.00  0.00    +0.000 A 
ENDROOT
BRANCH   4   7
ATOM      7  C   UNL     1      47.249   1.421   6.860  0.00  0.00    +0.000 C 
ATOM      8  N   UNL     1      48.311   2.009   6.215  0.00  0.00    +0.000 N 
ATOM      9  O   UNL     1      47.047   0.222   6.734  0.00  0.00    +0.000 OA
ATOM     10  H   UNL     1      48.733   2.851   6.604  0.00  0.00    +0.000 HD
ATOM     11  H   UNL     1      48.947   1.355   5.772  0.00  0.00    +0.000 HD
ENDBRANCH   4   7
BRANCH   5  12
ATOM     12  O   UNL     1      46.859   4.380   6.589  0.00  0.00    +0.000 OA
ATOM     13  H   UNL     1      46.369   5.215   6.461  0.00  0.00    +0.000 HD
ENDBRANCH   5  12
BRANCH   1  14
ATOM     14  O   UNL     1      43.696   4.512  10.015  0.00  0.00    +0.000 OA
BRANCH  14  16
ATOM     15  C   UNL     1      43.008   6.276  11.382  0.00  0.00    +0.000 C 
ATOM     16  C   UNL     1      43.815   4.952  11.389  0.00  0.00    +0.000 C 
ATOM     17  C   UNL     1      43.103   4.048  12.418  0.00  0.00    +0.000 C 
BRANCH  16  18
ATOM     18  C   UNL     1      45.319   5.215  11.764  0.00  0.00    +0.000 C 
ATOM     19  C   UNL     1      45.640   4.942  13.254  0.00  0.00    +0.000 C 
ATOM     20  C   UNL     1      47.094   5.240  13.620  0.00  0.00    +0.000 C 
ATOM     21  C   UNL     1      47.485   6.660  13.238  0.00  0.00    +0.000 C 
ATOM     22  C   UNL     1      47.240   6.908  11.756  0.00  0.00    +0.000 C 
ATOM     23  C   UNL     1      45.785   6.637  11.375  0.00  0.00    +0.000 C 
ENDBRANCH  16  18
ENDBRANCH  14  16
ENDBRANCH   1  14
TORSDOF 5
ENDMDL
MODEL 2
REMARK VINA RESULT:    -6.460      3.913      6.777
REMARK INTER + INTRA:          -9.254
REMARK INTER:                  -8.539
REMARK INTRA:                  -0.715
REMARK UNBOUND:                -1.095
REMARK  Name = 
REMARK  7 active torsions:
REMARK  status: ('A' for Active; 'I' for Inactive)
REMARK    1  A    between atoms: C_1  and  C_2
REMARK    2  A    between atoms: C_2  and  C_3
REMARK    3  A    between atoms: C_2  and  O_4
REMARK    4  A    between atoms: C_2  and  C_15
REMARK    5  A    between atoms: O_4  and  C_5
REMARK    6  A    between atoms: C_8  and  C_9
REMARK    7  A    between atoms: C_12  and  O_13
REMARK                            x       y       z     vdW  Elec       q    Type
REMARK                         _______ _______ _______ _____ _____    ______ ____
ROOT
ATOM      1  C   UNL     1      46.052   7.004  11.755  0.00  0.00    +0.000 A 
ATOM      2  C   UNL     1      45.553   8.076  12.483  0.00  0.00    +0.000 A 
ATOM      3  C   UNL     1      46.347   8.678  13.479  0.00  0.00    +0.000 A 
ATOM      4  C   UNL     1      47.653   8.235  13.746  0.00  0.00    +0.000 A 
ATOM      5  C   UNL     1      48.165   7.188  12.976  0.00  0.00    +0.000 A 
ATOM      6  C   UNL     1      47.375   6.596  11.983  0.00  0.00    +0.000 A 
ENDROOT
BRANCH   4   7
ATOM      7  C   UNL     1      48.374   8.877  14.875  0.00  0.00    +0.000 C 
ATOM      8  N   UNL     1      47.662   9.198  16.006  0.00  0.00    +0.000 N 
ATOM      9  O   UNL     1      49.573   9.104  14.823  0.00  0.00    +0.000 OA
ATOM     10  H   UNL     1      46.817   8.677  16.235  0.00  0.00    +0.000 HD
ATOM     11  H   UNL     1      48.233   9.490  16.792  0.00  0.00    +0.000 HD
ENDBRANCH   4   7
BRANCH   5  12
ATOM     12  O   UNL     1      49.409   6.646  13.161  0.00  0.00    +0.000 OA
ATOM     13  H   UNL     1      50.033   7.370  13.358  0.00  0.00    +0.000 HD
ENDBRANCH   5  12
BRANCH   1  14
ATOM     14  O   UNL     1      45.412   6.309  10.780  0.00  0.00    +0.000 OA
BRANCH  14  16
ATOM     15  C   UNL     1      44.906   4.589  12.276  0.00  0.00    +0.000 C 
ATOM     16  C   UNL     1      44.446   5.244  10.947  0.00  0.00    +0.000 C 
ATOM     17  C   UNL     1      43.001   5.720  11.208  0.00  0.00    +0.000 C 
BRANCH  16  18
ATOM     18  C   UNL     1      44.532   4.218   9.759  0.00  0.00    +0.000 C 
ATOM     19  C   UNL     1      44.688   2.749  10.222  0.00  0.00    +0.000 C 
ATOM     20  C   UNL     1      44.812   1.763   9.061  0.00  0.00    +0.000 C 
ATOM     21  C   UNL     1      45.943   2.150   8.119  0.00  0.00    +0.000 C 
ATOM     22  C   UNL     1      45.753   3.570   7.603  0.00  0.00    +0.000 C 
ATOM     23  C   UNL     1      45.649   4.575   8.750  0.00  0.00    +0.000 C 
ENDBRANCH  16  18
ENDBRANCH  14  16
ENDBRANCH   1  14
TORSDOF 5
ENDMDL
MODEL 3
REMARK VINA RESULT:    -6.457      3.560      6.416
REMARK INTER + INTRA:          -9.250
REMARK INTER:                  -8.328
REMARK INTRA:                  -0.922
REMARK UNBOUND:                -1.095
REMARK  Name = 
REMARK  7 active torsions:
REMARK  status: ('A' for Active; 'I' for Inactive)
REMARK    1  A    between atoms: C_1  and  C_2
REMARK    2  A    between atoms: C_2  and  C_3
REMARK    3  A    between atoms: C_2  and  O_4
REMARK    4  A    between atoms: C_2  and  C_15
REMARK    5  A    between atoms: O_4  and  C_5
REMARK    6  A    between atoms: C_8  and  C_9
REMARK    7  A    between atoms: C_12  and  O_13
REMARK                            x       y       z     vdW  Elec       q    Type
REMARK                         _______ _______ _______ _____ _____    ______ ____
ROOT
ATOM      1  C   UNL     1      45.755   5.870  12.548  0.00  0.00    +0.000 A 
ATOM      2  C   UNL     1      47.132   5.917  12.378  0.00  0.00    +0.000 A 
ATOM      3  C   UNL     1      47.794   7.161  12.354  0.00  0.00    +0.000 A 
ATOM      4  C   UNL     1      47.096   8.368  12.520  0.00  0.00    +0.000 A 
ATOM      5  C   UNL     1      45.718   8.310  12.739  0.00  0.00    +0.000 A 
ATOM      6  C   UNL     1      45.064   7.072  12.768  0.00  0.00    +0.000 A 
ENDROOT
BRANCH   4   7
ATOM      7  C   UNL     1      47.873   9.628  12.389  0.00  0.00    +0.000 C 
ATOM      8  N   UNL     1      47.803  10.547  13.408  0.00  0.00    +0.000 N 
ATOM      9  O   UNL     1      48.575   9.849  11.414  0.00  0.00    +0.000 OA
ATOM     10  H   UNL     1      47.585  10.236  14.353  0.00  0.00    +0.000 HD
ATOM     11  H   UNL     1      48.468  11.309  13.331  0.00  0.00    +0.000 HD
ENDBRANCH   4   7
BRANCH   5  12
ATOM     12  O   UNL     1      44.924   9.415  12.882  0.00  0.00    +0.000 OA
ATOM     13  H   UNL     1      45.153  10.052  12.178  0.00  0.00    +0.000 HD
ENDBRANCH   5  12
BRANCH   1  14
ATOM     14  O   UNL     1      44.971   4.761  12.578  0.00  0.00    +0.000 OA
BRANCH  14  16
ATOM     15  C   UNL     1      43.554   2.954  12.154  0.00  0.00    +0.000 C 
ATOM     16  C   UNL     1      44.212   4.191  11.486  0.00  0.00    +0.000 C 
ATOM     17  C   UNL     1      43.035   5.061  10.995  0.00  0.00    +0.000 C 
BRANCH  16  18
ATOM     18  C   UNL     1      45.162   3.753  10.312  0.00  0.00    +0.000 C 
ATOM     19  C   UNL     1      45.290   4.816   9.193  0.00  0.00    +0.000 C 
ATOM     20  C   UNL     1      46.182   4.366   8.037  0.00  0.00    +0.000 C 
ATOM     21  C   UNL     1      45.721   3.035   7.462  0.00  0.00    +0.000 C 
ATOM     22  C   UNL     1      45.665   1.968   8.546  0.00  0.00    +0.000 C 
ATOM     23  C   UNL     1      44.760   2.389   9.703  0.00  0.00    +0.000 C 
ENDBRANCH  16  18
ENDBRANCH  14  16
ENDBRANCH   1  14
TORSDOF 5
ENDMDL
MODEL 4
REMARK VINA RESULT:    -6.442      3.622      6.334
REMARK INTER + INTRA:          -9.232
REMARK INTER:                  -8.246
REMARK INTRA:                  -0.986
REMARK UNBOUND:                -1.095
REMARK  Name = 
REMARK  7 active torsions:
REMARK  status: ('A' for Active; 'I' for Inactive)
REMARK    1  A    between atoms: C_1  and  C_2
REMARK    2  A    between atoms: C_2  and  C_3
REMARK    3  A    between atoms: C_2  and  O_4
REMARK    4  A    between atoms: C_2  and  C_15
REMARK    5  A    between atoms: O_4  and  C_5
REMARK    6  A    between atoms: C_8  and  C_9
REMARK    7  A    between atoms: C_12  and  O_13
REMARK                            x       y       z     vdW  Elec       q    Type
REMARK                         _______ _______ _______ _____ _____    ______ ____
ROOT
ATOM      1  C   UNL     1      45.625   5.871  12.817  0.00  0.00    +0.000 A 
ATOM      2  C   UNL     1      45.172   7.180  12.713  0.00  0.00    +0.000 A 
ATOM      3  C   UNL     1      46.096   8.245  12.714  0.00  0.00    +0.000 A 
ATOM      4  C   UNL     1      47.479   8.017  12.796  0.00  0.00    +0.000 A 
ATOM      5  C   UNL     1      47.929   6.695  12.850  0.00  0.00    +0.000 A 
ATOM      6  C   UNL     1      47.009   5.641  12.843  0.00  0.00    +0.000 A 
ENDROOT
BRANCH   4   7
ATOM      7  C   UNL     1      48.362   9.209  12.879  0.00  0.00    +0.000 C 
ATOM      8  N   UNL     1      47.843  10.371  13.398  0.00  0.00    +0.000 N 
ATOM      9  O   UNL     1      49.529   9.168  12.518  0.00  0.00    +0.000 OA
ATOM     10  H   UNL     1      47.065  10.327  14.054  0.00  0.00    +0.000 HD
ATOM     11  H   UNL     1      48.531  11.097  13.570  0.00  0.00    +0.000 HD
ENDBRANCH   4   7
BRANCH   5  12
ATOM     12  O   UNL     1      49.248   6.346  12.965  0.00  0.00    +0.000 OA
ATOM     13  H   UNL     1      49.718   7.067  13.425  0.00  0.00    +0.000 HD
ENDBRANCH   5  12
BRANCH   1  14
ATOM     14  O   UNL     1      44.868   4.744  12.846  0.00  0.00    +0.000 OA
BRANCH  14  16
ATOM     15  C   UNL     1      43.508   2.896  12.414  0.00  0.00    +0.000 C 
ATOM     16  C   UNL     1      44.089   4.180  11.765  0.00  0.00    +0.000 C 
ATOM     17  C   UNL     1      42.860   5.017  11.350  0.00  0.00    +0.000 C 
BRANCH  16  18
ATOM     18  C   UNL     1      45.008   3.821  10.540  0.00  0.00    +0.000 C 
ATOM     19  C   UNL     1      45.115   4.958   9.495  0.00  0.00    +0.000 C 
ATOM     20  C   UNL     1      45.976   4.586   8.289  0.00  0.00    +0.000 C 
ATOM     21  C   UNL     1      45.494   3.299   7.634  0.00  0.00    +0.000 C 
ATOM     22  C   UNL     1      45.459   2.161   8.644  0.00  0.00    +0.000 C 
ATOM     23  C   UNL     1      44.583   2.504   9.848  0.00  0.00    +0.000 C 
ENDBRANCH  16  18
ENDBRANCH  14  16
ENDBRANCH   1  14
TORSDOF 5
ENDMDL
MODEL 5
REMARK VINA RESULT:    -5.814      2.994      5.134
REMARK INTER + INTRA:          -8.438
REMARK INTER:                  -7.495
REMARK INTRA:                  -0.943
REMARK UNBOUND:                -1.095
REMARK  Name = 
REMARK  7 active torsions:
REMARK  status: ('A' for Active; 'I' for Inactive)
REMARK    1  A    between atoms: C_1  and  C_2
REMARK    2  A    between atoms: C_2  and  C_3
REMARK    3  A    between atoms: C_2  and  O_4
REMARK    4  A    between atoms: C_2  and  C_15
REMARK    5  A    between atoms: O_4  and  C_5
REMARK    6  A    between atoms: C_8  and  C_9
REMARK    7  A    between atoms: C_12  and  O_13
REMARK                            x       y       z     vdW  Elec       q    Type
REMARK                         _______ _______ _______ _____ _____    ______ ____
ROOT
ATOM      1  C   UNL     1      45.876   6.458  12.420  0.00  0.00    +0.000 A 
ATOM      2  C   UNL     1      45.450   5.460  13.287  0.00  0.00    +0.000 A 
ATOM      3  C   UNL     1      44.847   4.294  12.773  0.00  0.00    +0.000 A 
ATOM      4  C   UNL     1      44.684   4.099  11.392  0.00  0.00    +0.000 A 
ATOM      5  C   UNL     1      45.160   5.086  10.524  0.00  0.00    +0.000 A 
ATOM      6  C   UNL     1      45.763   6.240  11.038  0.00  0.00    +0.000 A 
ENDROOT
BRANCH   4   7
ATOM      7  C   UNL     1      43.958   2.878  10.956  0.00  0.00    +0.000 C 
ATOM      8  N   UNL     1      44.461   2.163   9.896  0.00  0.00    +0.000 N 
ATOM      9  O   UNL     1      42.948   2.495  11.528  0.00  0.00    +0.000 OA
ATOM     10  H   UNL     1      45.456   2.208   9.684  0.00  0.00    +0.000 HD
ATOM     11  H   UNL     1      44.013   1.265   9.746  0.00  0.00    +0.000 HD
ENDBRANCH   4   7
BRANCH   5  12
ATOM     12  O   UNL     1      45.031   5.027   9.163  0.00  0.00    +0.000 OA
ATOM     13  H   UNL     1      45.924   4.973   8.771  0.00  0.00    +0.000 HD
ENDBRANCH   5  12
BRANCH   1  14
ATOM     14  O   UNL     1      46.456   7.639  12.755  0.00  0.00    +0.000 OA
BRANCH  14  16
ATOM     15  C   UNL     1      47.885   8.531  14.372  0.00  0.00    +0.000 C 
ATOM     16  C   UNL     1      47.865   7.902  12.954  0.00  0.00    +0.000 C 
ATOM     17  C   UNL     1      48.748   6.640  13.057  0.00  0.00    +0.000 C 
BRANCH  16  18
ATOM     18  C   UNL     1      48.401   8.920  11.882  0.00  0.00    +0.000 C 
ATOM     19  C   UNL     1      49.921   9.192  11.995  0.00  0.00    +0.000 C 
ATOM     20  C   UNL     1      50.426  10.214  10.977  0.00  0.00    +0.000 C 
ATOM     21  C   UNL     1      49.641  11.515  11.057  0.00  0.00    +0.000 C 
ATOM     22  C   UNL     1      48.152  11.260  10.872  0.00  0.00    +0.000 C 
ATOM     23  C   UNL     1      47.622  10.257  11.896  0.00  0.00    +0.000 C 
ENDBRANCH  16  18
ENDBRANCH  14  16
ENDBRANCH   1  14
TORSDOF 5
ENDMDL
MODEL 6
REMARK VINA RESULT:    -5.693      4.376      7.399
REMARK INTER + INTRA:          -8.286
REMARK INTER:                  -7.640
REMARK INTRA:                  -0.646
REMARK UNBOUND:                -1.095
REMARK  Name = 
REMARK  7 active torsions:
REMARK  status: ('A' for Active; 'I' for Inactive)
REMARK    1  A    between atoms: C_1  and  C_2
REMARK    2  A    between atoms: C_2  and  C_3
REMARK    3  A    between atoms: C_2  and  O_4
REMARK    4  A    between atoms: C_2  and  C_15
REMARK    5  A    between atoms: O_4  and  C_5
REMARK    6  A    between atoms: C_8  and  C_9
REMARK    7  A    between atoms: C_12  and  O_13
REMARK                            x       y       z     vdW  Elec       q    Type
REMARK                         _______ _______ _______ _____ _____    ______ ____
ROOT
ATOM      1  C   UNL     1      47.051   5.104  13.758  0.00  0.00    +0.000 A 
ATOM      2  C   UNL     1      47.909   6.159  14.040  0.00  0.00    +0.000 A 
ATOM      3  C   UNL     1      48.397   6.336  15.350  0.00  0.00    +0.000 A 
ATOM      4  C   UNL     1      48.054   5.453  16.387  0.00  0.00    +0.000 A 
ATOM      5  C   UNL     1      47.230   4.367  16.085  0.00  0.00    +0.000 A 
ATOM      6  C   UNL     1      46.752   4.191  14.781  0.00  0.00    +0.000 A 
ENDROOT
BRANCH   4   7
ATOM      7  C   UNL     1      48.549   5.778  17.750  0.00  0.00    +0.000 C 
ATOM      8  N   UNL     1      49.098   4.768  18.503  0.00  0.00    +0.000 N 
ATOM      9  O   UNL     1      48.494   6.914  18.198  0.00  0.00    +0.000 OA
ATOM     10  H   UNL     1      49.518   3.965  18.039  0.00  0.00    +0.000 HD
ATOM     11  H   UNL     1      49.552   5.080  19.355  0.00  0.00    +0.000 HD
ENDBRANCH   4   7
BRANCH   5  12
ATOM     12  O   UNL     1      46.800   3.458  17.013  0.00  0.00    +0.000 OA
ATOM     13  H   UNL     1      46.205   2.823  16.570  0.00  0.00    +0.000 HD
ENDBRANCH   5  12
BRANCH   1  14
ATOM     14  O   UNL     1      46.485   4.808  12.559  0.00  0.00    +0.000 OA
BRANCH  14  16
ATOM     15  C   UNL     1      44.349   5.636  13.010  0.00  0.00    +0.000 C 
ATOM     16  C   UNL     1      45.417   5.520  11.891  0.00  0.00    +0.000 C 
ATOM     17  C   UNL     1      45.756   6.975  11.502  0.00  0.00    +0.000 C 
BRANCH  16  18
ATOM     18  C   UNL     1      44.865   4.689  10.675  0.00  0.00    +0.000 C 
ATOM     19  C   UNL     1      44.800   3.166  10.948  0.00  0.00    +0.000 C 
ATOM     20  C   UNL     1      44.303   2.362   9.748  0.00  0.00    +0.000 C 
ATOM     21  C   UNL     1      45.130   2.649   8.502  0.00  0.00    +0.000 C 
ATOM     22  C   UNL     1      45.135   4.138   8.189  0.00  0.00    +0.000 C 
ATOM     23  C   UNL     1      45.651   4.959   9.370  0.00  0.00    +0.000 C 
ENDBRANCH  16  18
ENDBRANCH  14  16
ENDBRANCH   1  14
TORSDOF 5
ENDMDL
MODEL 7
REMARK VINA RESULT:    -5.600      4.994      8.060
REMARK INTER + INTRA:          -8.168
REMARK INTER:                  -7.533
REMARK INTRA:                  -0.635
REMARK UNBOUND:                -1.095
REMARK  Name = 
REMARK  7 active torsions:
REMARK  status: ('A' for Active; 'I' for Inactive)
REMARK    1  A    between atoms: C_1  and  C_2
REMARK    2  A    between atoms: C_2  and  C_3
REMARK    3  A    between atoms: C_2  and  O_4
REMARK    4  A    between atoms: C_2  and  C_15
REMARK    5  A    between atoms: O_4  and  C_5
REMARK    6  A    between atoms: C_8  and  C_9
REMARK    7  A    between atoms: C_12  and  O_13
REMARK                            x       y       z     vdW  Elec       q    Type
REMARK                         _______ _______ _______ _____ _____    ______ ____
ROOT
ATOM      1  C   UNL     1      47.861   5.400  14.881  0.00  0.00    +0.000 A 
ATOM      2  C   UNL     1      48.656   6.250  15.639  0.00  0.00    +0.000 A 
ATOM      3  C   UNL     1      48.727   6.085  17.037  0.00  0.00    +0.000 A 
ATOM      4  C   UNL     1      48.026   5.059  17.692  0.00  0.00    +0.000 A 
ATOM      5  C   UNL     1      47.267   4.178  16.917  0.00  0.00    +0.000 A 
ATOM      6  C   UNL     1      47.204   4.342  15.528  0.00  0.00    +0.000 A 
ENDROOT
BRANCH   4   7
ATOM      7  C   UNL     1      48.096   5.025  19.175  0.00  0.00    +0.000 C 
ATOM      8  N   UNL     1      48.472   3.852  19.785  0.00  0.00    +0.000 N 
ATOM      9  O   UNL     1      47.847   6.012  19.851  0.00  0.00    +0.000 OA
ATOM     10  H   UNL     1      49.055   3.187  19.280  0.00  0.00    +0.000 HD
ATOM     11  H   UNL     1      48.648   3.935  20.780  0.00  0.00    +0.000 HD
ENDBRANCH   4   7
BRANCH   5  12
ATOM     12  O   UNL     1      46.515   3.161  17.440  0.00  0.00    +0.000 OA
ATOM     13  H   UNL     1      45.639   3.518  17.678  0.00  0.00    +0.000 HD
ENDBRANCH   5  12
BRANCH   1  14
ATOM     14  O   UNL     1      47.675   5.437  13.537  0.00  0.00    +0.000 OA
BRANCH  14  16
ATOM     15  C   UNL     1      46.597   7.506  13.624  0.00  0.00    +0.000 C 
ATOM     16  C   UNL     1      46.677   6.190  12.807  0.00  0.00    +0.000 C 
ATOM     17  C   UNL     1      47.103   6.618  11.387  0.00  0.00    +0.000 C 
BRANCH  16  18
ATOM     18  C   UNL     1      45.294   5.441  12.816  0.00  0.00    +0.000 C 
ATOM     19  C   UNL     1      45.395   3.953  12.400  0.00  0.00    +0.000 C 
ATOM     20  C   UNL     1      44.042   3.244  12.371  0.00  0.00    +0.000 C 
ATOM     21  C   UNL     1      43.044   3.981  11.489  0.00  0.00    +0.000 C 
ATOM     22  C   UNL     1      42.887   5.425  11.943  0.00  0.00    +0.000 C 
ATOM     23  C   UNL     1      44.227   6.159  11.957  0.00  0.00    +0.000 C 
ENDBRANCH  16  18
ENDBRANCH  14  16
ENDBRANCH   1  14
TORSDOF 5
ENDMDL
