MODEL 1
REMARK VINA RESULT:    -7.329      0.000      0.000
REMARK INTER + INTRA:          -9.792
REMARK INTER:                  -9.043
REMARK INTRA:                  -0.749
REMARK UNBOUND:                -0.749
REMARK  Name = 
REMARK  5 active torsions:
REMARK  status: ('A' for Active; 'I' for Inactive)
REMARK    1  A    between atoms: C_1  and  C_2
REMARK    2  A    between atoms: C_2  and  O_3
REMARK    3  A    between atoms: C_2  and  C_12
REMARK    4  A    between atoms: O_3  and  C_4
REMARK    5  A    between atoms: C_7  and  C_8
REMARK                            x       y       z     vdW  Elec       q    Type
REMARK                         _______ _______ _______ _____ _____    ______ ____
ROOT
ATOM      1  O   UNL     1      43.557   4.682   9.932  0.00  0.00    +0.000 OA
ENDROOT
BRANCH   1   2
ATOM      2  C   UNL     1      44.459   3.914   9.253  0.00  0.00    +0.000 A 
ATOM      3  C   UNL     1      45.384   4.630   8.488  0.00  0.00    +0.000 A 
ATOM      4  C   UNL     1      46.356   3.962   7.737  0.00  0.00    +0.000 A 
ATOM      5  C   UNL     1      46.419   2.569   7.763  0.00  0.00    +0.000 A 
ATOM      6  C   UNL     1      45.513   1.851   8.550  0.00  0.00    +0.000 A 
ATOM      7  C   UNL     1      44.537   2.524   9.299  0.00  0.00    +0.000 A 
BRANCH   5   8
ATOM      8  C   UNL     1      47.408   1.875   6.991  0.00  0.00    +0.000 C 
ATOM      9  N   UNL     1      48.215   1.315   6.370  0.00  0.00    +0.000 NA
ENDBRANCH   5   8
ENDBRANCH   1   2
BRANCH   1  11
ATOM     10  C   UNL     1      42.314   5.405  11.900  0.00  0.00    +0.000 C 
ATOM     11  C   UNL     1      43.404   4.485  11.348  0.00  0.00    +0.000 C 
BRANCH  11  12
ATOM     12  C   UNL     1      44.735   4.777  12.030  0.00  0.00    +0.000 A 
ATOM     13  C   UNL     1      45.291   6.067  11.955  0.00  0.00    +0.000 A 
ATOM     14  C   UNL     1      46.488   6.367  12.610  0.00  0.00    +0.000 A 
ATOM     15  C   UNL     1      47.150   5.385  13.342  0.00  0.00    +0.000 A 
ATOM     16  C   UNL     1      46.628   4.093  13.399  0.00  0.00    +0.000 A 
ATOM     17  C   UNL     1      45.435   3.789  12.740  0.00  0.00    +0.000 A 
ENDBRANCH  11  12
ENDBRANCH   1  11
TORSDOF 4
ENDMDL
MODEL 2
REMARK VINA RESULT:    -7.053      1.036      2.072
REMARK INTER + INTRA:          -9.452
REMARK INTER:                  -8.744
REMARK INTRA:                  -0.707
REMARK UNBOUND:                -0.749
REMARK  Name = 
REMARK  5 active torsions:
REMARK  status: ('A' for Active; 'I' for Inactive)
REMARK    1  A    between atoms: C_1  and  C_2
REMARK    2  A    between atoms: C_2  and  O_3
REMARK    3  A    between atoms: C_2  and  C_12
REMARK    4  A    between atoms: O_3  and  C_4
REMARK    5  A    between atoms: C_7  and  C_8
REMARK                            x       y       z     vdW  Elec       q    Type
REMARK                         _______ _______ _______ _____ _____    ______ ____
ROOT
ATOM      1  O   UNL     1      44.047   3.825  10.290  0.00  0.00    +0.000 OA
ENDROOT
BRANCH   1   2
ATOM      2  C   UNL     1      44.934   3.486   9.309  0.00  0.00    +0.000 A 
ATOM      3  C   UNL     1      45.204   2.118   9.207  0.00  0.00    +0.000 A 
ATOM      4  C   UNL     1      46.103   1.640   8.249  0.00  0.00    +0.000 A 
ATOM      5  C   UNL     1      46.725   2.529   7.372  0.00  0.00    +0.000 A 
ATOM      6  C   UNL     1      46.435   3.895   7.454  0.00  0.00    +0.000 A 
ATOM      7  C   UNL     1      45.536   4.373   8.419  0.00  0.00    +0.000 A 
BRANCH   5   8
ATOM      8  C   UNL     1      47.653   2.048   6.391  0.00  0.00    +0.000 C 
ATOM      9  N   UNL     1      48.407   1.653   5.600  0.00  0.00    +0.000 NA
ENDBRANCH   5   8
ENDBRANCH   1   2
BRANCH   1  11
ATOM     10  C   UNL     1      43.371   3.643  12.625  0.00  0.00    +0.000 C 
ATOM     11  C   UNL     1      44.514   3.918  11.647  0.00  0.00    +0.000 C 
BRANCH  11  12
ATOM     12  C   UNL     1      45.081   5.314  11.876  0.00  0.00    +0.000 A 
ATOM     13  C   UNL     1      46.341   5.467  12.481  0.00  0.00    +0.000 A 
ATOM     14  C   UNL     1      46.898   6.734  12.660  0.00  0.00    +0.000 A 
ATOM     15  C   UNL     1      46.205   7.868  12.244  0.00  0.00    +0.000 A 
ATOM     16  C   UNL     1      44.941   7.735  11.671  0.00  0.00    +0.000 A 
ATOM     17  C   UNL     1      44.379   6.468  11.497  0.00  0.00    +0.000 A 
ENDBRANCH  11  12
ENDBRANCH   1  11
TORSDOF 4
ENDMDL
MODEL 3
REMARK VINA RESULT:    -6.079      2.669      5.478
REMARK INTER + INTRA:          -8.249
REMARK INTER:                  -8.515
REMARK INTRA:                   0.265
REMARK UNBOUND:                -0.749
REMARK  Name = 
REMARK  5 active torsions:
REMARK  status: ('A' for Active; 'I' for Inactive)
REMARK    1  A    between atoms: C_1  and  C_2
REMARK    2  A    between atoms: C_2  and  O_3
REMARK    3  A    between atoms: C_2  and  C_12
REMARK    4  A    between atoms: O_3  and  C_4
REMARK    5  A    between atoms: C_7  and  C_8
REMARK                            x       y       z     vdW  Elec       q    Type
REMARK                         _______ _______ _______ _____ _____    ______ ____
ROOT
ATOM      1  O   UNL     1      44.169   5.015  10.283  0.00  0.00    +0.000 OA
ENDROOT
BRANCH   1   2
ATOM      2  C   UNL     1      45.053   5.237  11.300  0.00  0.00    +0.000 A 
ATOM      3  C   UNL     1      46.087   6.127  10.998  0.00  0.00    +0.000 A 
ATOM      4  C   UNL     1      47.065   6.432  11.950  0.00  0.00    +0.000 A 
ATOM      5  C   UNL     1      47.001   5.860  13.221  0.00  0.00    +0.000 A 
ATOM      6  C   UNL     1      45.952   4.991  13.534  0.00  0.00    +0.000 A 
ATOM      7  C   UNL     1      44.974   4.683  12.576  0.00  0.00    +0.000 A 
BRANCH   5   8
ATOM      8  C   UNL     1      48.002   6.162  14.201  0.00  0.00    +0.000 C 
ATOM      9  N   UNL     1      48.819   6.408  14.990  0.00  0.00    +0.000 NA
ENDBRANCH   5   8
ENDBRANCH   1   2
BRANCH   1  11
ATOM     10  C   UNL     1      43.845   2.739  11.094  0.00  0.00    +0.000 C 
ATOM     11  C   UNL     1      43.905   3.661   9.875  0.00  0.00    +0.000 C 
BRANCH  11  12
ATOM     12  C   UNL     1      45.009   3.210   8.927  0.00  0.00    +0.000 A 
ATOM     13  C   UNL     1      45.416   1.864   8.917  0.00  0.00    +0.000 A 
ATOM     14  C   UNL     1      46.395   1.421   8.025  0.00  0.00    +0.000 A 
ATOM     15  C   UNL     1      46.985   2.315   7.135  0.00  0.00    +0.000 A 
ATOM     16  C   UNL     1      46.616   3.658   7.154  0.00  0.00    +0.000 A 
ATOM     17  C   UNL     1      45.642   4.105   8.050  0.00  0.00    +0.000 A 
ENDBRANCH  11  12
ENDBRANCH   1  11
TORSDOF 4
ENDMDL
MODEL 4
REMARK VINA RESULT:    -6.002      3.217      5.868
REMARK INTER + INTRA:          -8.155
REMARK INTER:                  -7.516
REMARK INTRA:                  -0.639
REMARK UNBOUND:                -0.749
REMARK  Name = 
REMARK  5 active torsions:
REMARK  status: ('A' for Active; 'I' for Inactive)
REMARK    1  A    between atoms: C_1  and  C_2
REMARK    2  A    between atoms: C_2  and  O_3
REMARK    3  A    between atoms: C_2  and  C_12
REMARK    4  A    between atoms: O_3  and  C_4
REMARK    5  A    between atoms: C_7  and  C_8
REMARK                            x       y       z     vdW  Elec       q    Type
REMARK                         _______ _______ _______ _____ _____    ______ ____
ROOT
ATOM      1  O   UNL     1      45.301   4.470  11.612  0.00  0.00    +0.000 OA
ENDROOT
BRANCH   1   2
ATOM      2  C   UNL     1      45.524   5.812  11.723  0.00  0.00    +0.000 A 
ATOM      3  C   UNL     1      44.427   6.620  11.412  0.00  0.00    +0.000 A 
ATOM      4  C   UNL     1      44.527   8.013  11.476  0.00  0.00    +0.000 A 
ATOM      5  C   UNL     1      45.726   8.607  11.872  0.00  0.00    +0.000 A 
ATOM      6  C   UNL     1      46.817   7.800  12.210  0.00  0.00    +0.000 A 
ATOM      7  C   UNL     1      46.715   6.403  12.142  0.00  0.00    +0.000 A 
BRANCH   5   8
ATOM      8  C   UNL     1      45.840  10.034  11.934  0.00  0.00    +0.000 C 
ATOM      9  N   UNL     1      45.926  11.192  11.982  0.00  0.00    +0.000 NA
ENDBRANCH   5   8
ENDBRANCH   1   2
BRANCH   1  11
ATOM     10  C   UNL     1      43.466   2.912  11.227  0.00  0.00    +0.000 C 
ATOM     11  C   UNL     1      44.359   4.001  10.631  0.00  0.00    +0.000 C 
BRANCH  11  12
ATOM     12  C   UNL     1      45.129   3.456   9.434  0.00  0.00    +0.000 A 
ATOM     13  C   UNL     1      45.689   4.345   8.499  0.00  0.00    +0.000 A 
ATOM     14  C   UNL     1      46.435   3.868   7.419  0.00  0.00    +0.000 A 
ATOM     15  C   UNL     1      46.629   2.499   7.254  0.00  0.00    +0.000 A 
ATOM     16  C   UNL     1      46.054   1.604   8.154  0.00  0.00    +0.000 A 
ATOM     17  C   UNL     1      45.302   2.078   9.231  0.00  0.00    +0.000 A 
ENDBRANCH  11  12
ENDBRANCH   1  11
TORSDOF 4
ENDMDL
MODEL 5
REMARK VINA RESULT:    -5.881      2.979      5.755
REMARK INTER + INTRA:          -8.005
REMARK INTER:                  -7.395
REMARK INTRA:                  -0.610
REMARK UNBOUND:                -0.749
REMARK  Name = 
REMARK  5 active torsions:
REMARK  status: ('A' for Active; 'I' for Inactive)
REMARK    1  A    between atoms: C_1  and  C_2
REMARK    2  A    between atoms: C_2  and  O_3
REMARK    3  A    between atoms: C_2  and  C_12
REMARK    4  A    between atoms: O_3  and  C_4
REMARK    5  A    between atoms: C_7  and  C_8
REMARK                            x       y       z     vdW  Elec       q    Type
REMARK                         _______ _______ _______ _____ _____    ______ ____
ROOT
ATOM      1  O   UNL     1      45.187   4.834  12.117  0.00  0.00    +0.000 OA
ENDROOT
BRANCH   1   2
ATOM      2  C   UNL     1      46.280   5.577  12.456  0.00  0.00    +0.000 A 
ATOM      3  C   UNL     1      46.826   5.286  13.709  0.00  0.00    +0.000 A 
ATOM      4  C   UNL     1      47.943   5.984  14.179  0.00  0.00    +0.000 A 
ATOM      5  C   UNL     1      48.533   6.969  13.386  0.00  0.00    +0.000 A 
ATOM      6  C   UNL     1      48.005   7.243  12.121  0.00  0.00    +0.000 A 
ATOM      7  C   UNL     1      46.883   6.544  11.653  0.00  0.00    +0.000 A 
BRANCH   5   8
ATOM      8  C   UNL     1      49.673   7.694  13.863  0.00  0.00    +0.000 C 
ATOM      9  N   UNL     1      50.602   8.276  14.248  0.00  0.00    +0.000 NA
ENDBRANCH   5   8
ENDBRANCH   1   2
BRANCH   1  11
ATOM     10  C   UNL     1      42.987   4.986  11.077  0.00  0.00    +0.000 C 
ATOM     11  C   UNL     1      44.498   5.130  10.889  0.00  0.00    +0.000 C 
BRANCH  11  12
ATOM     12  C   UNL     1      44.990   4.175   9.809  0.00  0.00    +0.000 A 
ATOM     13  C   UNL     1      45.673   4.679   8.688  0.00  0.00    +0.000 A 
ATOM     14  C   UNL     1      46.171   3.817   7.709  0.00  0.00    +0.000 A 
ATOM     15  C   UNL     1      45.989   2.442   7.830  0.00  0.00    +0.000 A 
ATOM     16  C   UNL     1      45.286   1.929   8.919  0.00  0.00    +0.000 A 
ATOM     17  C   UNL     1      44.782   2.790   9.896  0.00  0.00    +0.000 A 
ENDBRANCH  11  12
ENDBRANCH   1  11
TORSDOF 4
ENDMDL
MODEL 6
REMARK VINA RESULT:    -5.122      3.472      6.128
REMARK INTER + INTRA:          -7.068
REMARK INTER:                  -6.471
REMARK INTRA:                  -0.597
REMARK UNBOUND:                -0.749
REMARK  Name = 
REMARK  5 active torsions:
REMARK  status: ('A' for Active; 'I' for Inactive)
REMARK    1  A    between atoms: C_1  and  C_2
REMARK    2  A    between atoms: C_2  and  O_3
REMARK    3  A    between atoms: C_2  and  C_12
REMARK    4  A    between atoms: O_3  and  C_4
REMARK    5  A    between atoms: C_7  and  C_8
REMARK                            x       y       z     vdW  Elec       q    Type
REMARK                         _______ _______ _______ _____ _____    ______ ____
ROOT
ATOM      1  O   UNL     1      46.108   5.652  12.297  0.00  0.00    +0.000 OA
ENDROOT
BRANCH   1   2
ATOM      2  C   UNL     1      47.240   6.321  12.665  0.00  0.00    +0.000 A 
ATOM      3  C   UNL     1      47.785   7.145  11.676  0.00  0.00    +0.000 A 
ATOM      4  C   UNL     1      48.951   7.877  11.923  0.00  0.00    +0.000 A 
ATOM      5  C   UNL     1      49.568   7.803  13.172  0.00  0.00    +0.000 A 
ATOM      6  C   UNL     1      49.009   7.002  14.171  0.00  0.00    +0.000 A 
ATOM      7  C   UNL     1      47.842   6.265  13.920  0.00  0.00    +0.000 A 
BRANCH   5   8
ATOM      8  C   UNL     1      50.767   8.545  13.431  0.00  0.00    +0.000 C 
ATOM      9  N   UNL     1      51.741   9.142  13.645  0.00  0.00    +0.000 NA
ENDBRANCH   5   8
ENDBRANCH   1   2
BRANCH   1  11
ATOM     10  C   UNL     1      44.048   6.633  11.437  0.00  0.00    +0.000 C 
ATOM     11  C   UNL     1      45.422   6.054  11.098  0.00  0.00    +0.000 C 
BRANCH  11  12
ATOM     12  C   UNL     1      45.274   4.841  10.188  0.00  0.00    +0.000 A 
ATOM     13  C   UNL     1      44.671   3.669  10.679  0.00  0.00    +0.000 A 
ATOM     14  C   UNL     1      44.485   2.561   9.850  0.00  0.00    +0.000 A 
ATOM     15  C   UNL     1      44.901   2.604   8.522  0.00  0.00    +0.000 A 
ATOM     16  C   UNL     1      45.529   3.746   8.029  0.00  0.00    +0.000 A 
ATOM     17  C   UNL     1      45.722   4.853   8.859  0.00  0.00    +0.000 A 
ENDBRANCH  11  12
ENDBRANCH   1  11
TORSDOF 4
ENDMDL
MODEL 7
REMARK VINA RESULT:    -4.844      3.558      6.386
REMARK INTER + INTRA:          -6.726
REMARK INTER:                  -6.713
REMARK INTRA:                  -0.013
REMARK UNBOUND:                -0.749
REMARK  Name = 
REMARK  5 active torsions:
REMARK  status: ('A' for Active; 'I' for Inactive)
REMARK    1  A    between atoms: C_1  and  C_2
REMARK    2  A    between atoms: C_2  and  O_3
REMARK    3  A    between atoms: C_2  and  C_12
REMARK    4  A    between atoms: O_3  and  C_4
REMARK    5  A    between atoms: C_7  and  C_8
REMARK                            x       y       z     vdW  Elec       q    Type
REMARK                         _______ _______ _______ _____ _____    ______ ____
ROOT
ATOM      1  O   UNL     1      46.947   6.137  11.942  0.00  0.00    +0.000 OA
ENDROOT
BRANCH   1   2
ATOM      2  C   UNL     1      47.231   5.732  13.214  0.00  0.00    +0.000 A 
ATOM      3  C   UNL     1      47.966   6.646  13.973  0.00  0.00    +0.000 A 
ATOM      4  C   UNL     1      48.332   6.348  15.290  0.00  0.00    +0.000 A 
ATOM      5  C   UNL     1      47.946   5.136  15.862  0.00  0.00    +0.000 A 
ATOM      6  C   UNL     1      47.187   4.230  15.113  0.00  0.00    +0.000 A 
ATOM      7  C   UNL     1      46.825   4.530  13.792  0.00  0.00    +0.000 A 
BRANCH   5   8
ATOM      8  C   UNL     1      48.321   4.819  17.208  0.00  0.00    +0.000 C 
ATOM      9  N   UNL     1      48.624   4.568  18.302  0.00  0.00    +0.000 NA
ENDBRANCH   5   8
ENDBRANCH   1   2
BRANCH   1  11
ATOM     10  C   UNL     1      44.647   6.170  12.750  0.00  0.00    +0.000 C 
ATOM     11  C   UNL     1      45.571   6.226  11.532  0.00  0.00    +0.000 C 
BRANCH  11  12
ATOM     12  C   UNL     1      45.266   5.072  10.585  0.00  0.00    +0.000 A 
ATOM     13  C   UNL     1      44.542   3.959  11.050  0.00  0.00    +0.000 A 
ATOM     14  C   UNL     1      44.213   2.911  10.187  0.00  0.00    +0.000 A 
ATOM     15  C   UNL     1      44.606   2.955   8.852  0.00  0.00    +0.000 A 
ATOM     16  C   UNL     1      45.351   4.036   8.384  0.00  0.00    +0.000 A 
ATOM     17  C   UNL     1      45.686   5.082   9.247  0.00  0.00    +0.000 A 
ENDBRANCH  11  12
ENDBRANCH   1  11
TORSDOF 4
ENDMDL
MODEL 8
REMARK VINA RESULT:    -4.720      3.939      5.894
REMARK INTER + INTRA:          -6.573
REMARK INTER:                  -6.103
REMARK INTRA:                  -0.470
REMARK UNBOUND:                -0.749
REMARK  Name = 
REMARK  5 active torsions:
REMARK  status: ('A' for Active; 'I' for Inactive)
REMARK    1  A    between atoms: C_1  and  C_2
REMARK    2  A    between atoms: C_2  and  O_3
REMARK    3  A    between atoms: C_2  and  C_12
REMARK    4  A    between atoms: O_3  and  C_4
REMARK    5  A    between atoms: C_7  and  C_8
REMARK                            x       y       z     vdW  Elec       q    Type
REMARK                         _______ _______ _______ _____ _____    ______ ____
ROOT
ATOM      1  O   UNL     1      47.068   7.613  12.201  0.00  0.00    +0.000 OA
ENDROOT
BRANCH   1   2
ATOM      2  C   UNL     1      46.256   6.541  11.966  0.00  0.00    +0.000 A 
ATOM      3  C   UNL     1      45.656   5.995  13.104  0.00  0.00    +0.000 A 
ATOM      4  C   UNL     1      44.809   4.887  13.001  0.00  0.00    +0.000 A 
ATOM      5  C   UNL     1      44.542   4.330  11.750  0.00  0.00    +0.000 A 
ATOM      6  C   UNL     1      45.118   4.891  10.607  0.00  0.00    +0.000 A 
ATOM      7  C   UNL     1      45.970   6.000  10.714  0.00  0.00    +0.000 A 
BRANCH   5   8
ATOM      8  C   UNL     1      43.680   3.190  11.636  0.00  0.00    +0.000 C 
ATOM      9  N   UNL     1      42.987   2.262  11.544  0.00  0.00    +0.000 NA
ENDBRANCH   5   8
ENDBRANCH   1   2
BRANCH   1  11
ATOM     10  C   UNL     1      48.982   7.101  13.622  0.00  0.00    +0.000 C 
ATOM     11  C   UNL     1      48.493   7.416  12.208  0.00  0.00    +0.000 C 
BRANCH  11  12
ATOM     12  C   UNL     1      49.164   8.682  11.687  0.00  0.00    +0.000 A 
ATOM     13  C   UNL     1      50.532   8.665  11.363  0.00  0.00    +0.000 A 
ATOM     14  C   UNL     1      51.157   9.800  10.843  0.00  0.00    +0.000 A 
ATOM     15  C   UNL     1      50.428  10.970  10.644  0.00  0.00    +0.000 A 
ATOM     16  C   UNL     1      49.078  11.012  10.990  0.00  0.00    +0.000 A 
ATOM     17  C   UNL     1      48.453   9.880  11.517  0.00  0.00    +0.000 A 
ENDBRANCH  11  12
ENDBRANCH   1  11
TORSDOF 4
ENDMDL
MODEL 9
REMARK VINA RESULT:    -4.668      4.138      6.432
REMARK INTER + INTRA:          -6.508
REMARK INTER:                  -6.006
REMARK INTRA:                  -0.502
REMARK UNBOUND:                -0.749
REMARK  Name = 
REMARK  5 active torsions:
REMARK  status: ('A' for Active; 'I' for Inactive)
REMARK    1  A    between atoms: C_1  and  C_2
REMARK    2  A    between atoms: C_2  and  O_3
REMARK    3  A    between atoms: C_2  and  C_12
REMARK    4  A    between atoms: O_3  and  C_4
REMARK    5  A    between atoms: C_7  and  C_8
REMARK                            x       y       z     vdW  Elec       q    Type
REMARK                         _______ _______ _______ _____ _____    ______ ____
ROOT
ATOM      1  O   UNL     1      48.569   5.901  14.253  0.00  0.00    +0.000 OA
ENDROOT
BRANCH   1   2
ATOM      2  C   UNL     1      47.372   5.964  13.600  0.00  0.00    +0.000 A 
ATOM      3  C   UNL     1      46.733   4.734  13.419  0.00  0.00    +0.000 A 
ATOM      4  C   UNL     1      45.505   4.661  12.755  0.00  0.00    +0.000 A 
ATOM      5  C   UNL     1      44.898   5.825  12.282  0.00  0.00    +0.000 A 
ATOM      6  C   UNL     1      45.521   7.060  12.487  0.00  0.00    +0.000 A 
ATOM      7  C   UNL     1      46.755   7.130  13.150  0.00  0.00    +0.000 A 
BRANCH   5   8
ATOM      8  C   UNL     1      43.642   5.758  11.595  0.00  0.00    +0.000 C 
ATOM      9  N   UNL     1      42.626   5.698  11.034  0.00  0.00    +0.000 NA
ENDBRANCH   5   8
ENDBRANCH   1   2
BRANCH   1  11
ATOM     10  C   UNL     1      49.941   7.268  15.734  0.00  0.00    +0.000 C 
ATOM     11  C   UNL     1      48.663   6.441  15.583  0.00  0.00    +0.000 C 
BRANCH  11  12
ATOM     12  C   UNL     1      48.660   5.288  16.581  0.00  0.00    +0.000 A 
ATOM     13  C   UNL     1      47.484   4.545  16.787  0.00  0.00    +0.000 A 
ATOM     14  C   UNL     1      47.471   3.458  17.663  0.00  0.00    +0.000 A 
ATOM     15  C   UNL     1      48.628   3.101  18.350  0.00  0.00    +0.000 A 
ATOM     16  C   UNL     1      49.793   3.846  18.181  0.00  0.00    +0.000 A 
ATOM     17  C   UNL     1      49.807   4.938  17.310  0.00  0.00    +0.000 A 
ENDBRANCH  11  12
ENDBRANCH   1  11
TORSDOF 4
ENDMDL
