MODEL 1
REMARK VINA RESULT:    -8.769      0.000      0.000
REMARK INTER + INTRA:         -13.134
REMARK INTER:                 -11.845
REMARK INTRA:                  -1.289
REMARK UNBOUND:                -1.289
REMARK  Name = 
REMARK  7 active torsions:
REMARK  status: ('A' for Active; 'I' for Inactive)
REMARK    1  A    between atoms: C_1  and  O_2
REMARK    2  A    between atoms: O_2  and  C_3
REMARK    3  A    between atoms: C_7  and  C_8
REMARK    4  A    between atoms: C_12  and  C_13
REMARK    5  A    between atoms: C_13  and  N_14
REMARK    6  A    between atoms: N_14  and  C_15
REMARK    7  A    between atoms: C_18  and  C_19
REMARK                            x       y       z     vdW  Elec       q    Type
REMARK                         _______ _______ _______ _____ _____    ______ ____
ROOT
ATOM      1  C   UNL     1      43.805   5.095  11.265  0.00  0.00    +0.000 C 
ATOM      2  C   UNL     1      43.012   6.371  11.080  0.00  0.00    +0.000 C 
ATOM      3  C   UNL     1      42.504   5.352  12.031  0.00  0.00    +0.000 C 
ENDROOT
BRANCH   1   8
ATOM      4  C   UNL     1      47.220   6.542  12.374  0.00  0.00    +0.000 A 
ATOM      5  C   UNL     1      47.597   5.591  13.336  0.00  0.00    +0.000 A 
ATOM      6  C   UNL     1      46.777   4.496  13.622  0.00  0.00    +0.000 A 
ATOM      7  C   UNL     1      45.565   4.333  12.951  0.00  0.00    +0.000 A 
ATOM      8  C   UNL     1      45.144   5.250  11.979  0.00  0.00    +0.000 A 
ATOM      9  C   UNL     1      45.990   6.344  11.718  0.00  0.00    +0.000 A 
BRANCH   4  14
ATOM     10  C   UNL     1      50.226   8.634  11.361  0.00  0.00    +0.000 A 
ATOM     11  C   UNL     1      49.669   9.894  11.527  0.00  0.00    +0.000 A 
ATOM     12  N   UNL     1      48.386  10.115  11.890  0.00  0.00    +0.000 NA
ATOM     13  C   UNL     1      47.631   9.015  12.130  0.00  0.00    +0.000 A 
ATOM     14  C   UNL     1      48.077   7.695  12.026  0.00  0.00    +0.000 A 
ATOM     15  C   UNL     1      49.413   7.530  11.613  0.00  0.00    +0.000 A 
BRANCH  10  17
ATOM     16  C   UNL     1      51.960   7.415  10.319  0.00  0.00    +0.000 C 
ATOM     17  O   UNL     1      51.543   8.588  11.010  0.00  0.00    +0.000 OA
ENDBRANCH  10  17
ENDBRANCH   4  14
ENDBRANCH   1   8
BRANCH   1  18
ATOM     18  N   UNL     1      43.749   3.847  10.497  0.00  0.00    +0.000 N 
ATOM     19  H   UNL     1      43.157   3.124  10.897  0.00  0.00    +0.000 HD
BRANCH  18  20
ATOM     20  C   UNL     1      44.583   3.364   9.482  0.00  0.00    +0.000 A 
ATOM     21  C   UNL     1      45.006   2.043   9.353  0.00  0.00    +0.000 A 
ATOM     22  C   UNL     1      45.937   1.673   8.369  0.00  0.00    +0.000 A 
ATOM     23  C   UNL     1      46.452   2.632   7.488  0.00  0.00    +0.000 A 
ATOM     24  C   UNL     1      46.039   3.957   7.605  0.00  0.00    +0.000 A 
ATOM     25  C   UNL     1      45.119   4.313   8.591  0.00  0.00    +0.000 A 
BRANCH  23  26
ATOM     26  C   UNL     1      47.457   2.303   6.440  0.00  0.00    +0.000 C 
ATOM     27  N   UNL     1      47.484   3.084   5.324  0.00  0.00    +0.000 N 
ATOM     28  O   UNL     1      48.258   1.385   6.585  0.00  0.00    +0.000 OA
ATOM     29  H   UNL     1      47.028   3.983   5.280  0.00  0.00    +0.000 HD
ATOM     30  H   UNL     1      48.245   2.912   4.681  0.00  0.00    +0.000 HD
ENDBRANCH  23  26
ENDBRANCH  18  20
ENDBRANCH   1  18
TORSDOF 6
ENDMDL
MODEL 2
REMARK VINA RESULT:    -8.609      2.832      4.352
REMARK INTER + INTRA:         -12.918
REMARK INTER:                 -12.170
REMARK INTRA:                  -0.748
REMARK UNBOUND:                -1.289
REMARK  Name = 
REMARK  7 active torsions:
REMARK  status: ('A' for Active; 'I' for Inactive)
REMARK    1  A    between atoms: C_1  and  O_2
REMARK    2  A    between atoms: O_2  and  C_3
REMARK    3  A    between atoms: C_7  and  C_8
REMARK    4  A    between atoms: C_12  and  C_13
REMARK    5  A    between atoms: C_13  and  N_14
REMARK    6  A    between atoms: N_14  and  C_15
REMARK    7  A    between atoms: C_18  and  C_19
REMARK                            x       y       z     vdW  Elec       q    Type
REMARK                         _______ _______ _______ _____ _____    ______ ____
ROOT
ATOM      1  C   UNL     1      43.638   5.380  11.172  0.00  0.00    +0.000 C 
ATOM      2  C   UNL     1      42.407   5.893  11.887  0.00  0.00    +0.000 C 
ATOM      3  C   UNL     1      42.714   4.443  11.955  0.00  0.00    +0.000 C 
ENDROOT
BRANCH   1   8
ATOM      4  C   UNL     1      46.770   5.452  13.446  0.00  0.00    +0.000 A 
ATOM      5  C   UNL     1      47.477   6.521  12.870  0.00  0.00    +0.000 A 
ATOM      6  C   UNL     1      46.957   7.216  11.775  0.00  0.00    +0.000 A 
ATOM      7  C   UNL     1      45.722   6.856  11.237  0.00  0.00    +0.000 A 
ATOM      8  C   UNL     1      44.975   5.801  11.777  0.00  0.00    +0.000 A 
ATOM      9  C   UNL     1      45.528   5.117  12.875  0.00  0.00    +0.000 A 
BRANCH   4  14
ATOM     10  C   UNL     1      48.250   4.667  16.858  0.00  0.00    +0.000 A 
ATOM     11  C   UNL     1      48.346   3.289  16.731  0.00  0.00    +0.000 A 
ATOM     12  N   UNL     1      47.923   2.594  15.652  0.00  0.00    +0.000 NA
ATOM     13  C   UNL     1      47.405   3.322  14.633  0.00  0.00    +0.000 A 
ATOM     14  C   UNL     1      47.277   4.714  14.622  0.00  0.00    +0.000 A 
ATOM     15  C   UNL     1      47.706   5.377  15.788  0.00  0.00    +0.000 A 
BRANCH  10  17
ATOM     16  C   UNL     1      47.773   5.641  18.956  0.00  0.00    +0.000 C 
ATOM     17  O   UNL     1      48.743   5.213  18.006  0.00  0.00    +0.000 OA
ENDBRANCH  10  17
ENDBRANCH   4  14
ENDBRANCH   1   8
BRANCH   1  18
ATOM     18  N   UNL     1      43.794   4.954   9.778  0.00  0.00    +0.000 N 
ATOM     19  H   UNL     1      43.002   5.164   9.175  0.00  0.00    +0.000 HD
BRANCH  18  20
ATOM     20  C   UNL     1      44.697   4.059   9.192  0.00  0.00    +0.000 A 
ATOM     21  C   UNL     1      45.674   4.401   8.260  0.00  0.00    +0.000 A 
ATOM     22  C   UNL     1      46.459   3.416   7.639  0.00  0.00    +0.000 A 
ATOM     23  C   UNL     1      46.277   2.064   7.955  0.00  0.00    +0.000 A 
ATOM     24  C   UNL     1      45.303   1.707   8.885  0.00  0.00    +0.000 A 
ATOM     25  C   UNL     1      44.525   2.694   9.490  0.00  0.00    +0.000 A 
BRANCH  23  26
ATOM     26  C   UNL     1      47.064   0.975   7.313  0.00  0.00    +0.000 C 
ATOM     27  N   UNL     1      46.749  -0.309   7.643  0.00  0.00    +0.000 N 
ATOM     28  O   UNL     1      47.941   1.217   6.491  0.00  0.00    +0.000 OA
ATOM     29  H   UNL     1      45.887  -0.554   8.106  0.00  0.00    +0.000 HD
ATOM     30  H   UNL     1      47.219  -1.030   7.112  0.00  0.00    +0.000 HD
ENDBRANCH  23  26
ENDBRANCH  18  20
ENDBRANCH   1  18
TORSDOF 6
ENDMDL
MODEL 3
REMARK VINA RESULT:    -8.310      1.722      2.142
REMARK INTER + INTRA:         -12.515
REMARK INTER:                 -11.444
REMARK INTRA:                  -1.070
REMARK UNBOUND:                -1.289
REMARK  Name = 
REMARK  7 active torsions:
REMARK  status: ('A' for Active; 'I' for Inactive)
REMARK    1  A    between atoms: C_1  and  O_2
REMARK    2  A    between atoms: O_2  and  C_3
REMARK    3  A    between atoms: C_7  and  C_8
REMARK    4  A    between atoms: C_12  and  C_13
REMARK    5  A    between atoms: C_13  and  N_14
REMARK    6  A    between atoms: N_14  and  C_15
REMARK    7  A    between atoms: C_18  and  C_19
REMARK                            x       y       z     vdW  Elec       q    Type
REMARK                         _______ _______ _______ _____ _____    ______ ____
ROOT
ATOM      1  C   UNL     1      43.682   5.541  11.051  0.00  0.00    +0.000 C 
ATOM      2  C   UNL     1      42.997   6.846  11.396  0.00  0.00    +0.000 C 
ATOM      3  C   UNL     1      42.319   5.573  11.749  0.00  0.00    +0.000 C 
ENDROOT
BRANCH   1   8
ATOM      4  C   UNL     1      47.167   5.893  12.699  0.00  0.00    +0.000 A 
ATOM      5  C   UNL     1      47.239   4.679  13.402  0.00  0.00    +0.000 A 
ATOM      6  C   UNL     1      46.192   3.754  13.345  0.00  0.00    +0.000 A 
ATOM      7  C   UNL     1      45.056   4.027  12.583  0.00  0.00    +0.000 A 
ATOM      8  C   UNL     1      44.936   5.221  11.860  0.00  0.00    +0.000 A 
ATOM      9  C   UNL     1      46.005   6.134  11.943  0.00  0.00    +0.000 A 
BRANCH   4  14
ATOM     10  C   UNL     1      50.053   8.069  13.873  0.00  0.00    +0.000 A 
ATOM     11  C   UNL     1      50.216   8.835  12.728  0.00  0.00    +0.000 A 
ATOM     12  N   UNL     1      49.501   8.666  11.594  0.00  0.00    +0.000 NA
ATOM     13  C   UNL     1      48.551   7.700  11.620  0.00  0.00    +0.000 A 
ATOM     14  C   UNL     1      48.268   6.879  12.715  0.00  0.00    +0.000 A 
ATOM     15  C   UNL     1      49.069   7.082  13.855  0.00  0.00    +0.000 A 
BRANCH  10  17
ATOM     16  C   UNL     1      50.246   9.208  15.934  0.00  0.00    +0.000 C 
ATOM     17  O   UNL     1      50.844   8.383  14.939  0.00  0.00    +0.000 OA
ENDBRANCH  10  17
ENDBRANCH   4  14
ENDBRANCH   1   8
BRANCH   1  18
ATOM     18  N   UNL     1      43.640   4.771   9.804  0.00  0.00    +0.000 N 
ATOM     19  H   UNL     1      42.711   4.645   9.410  0.00  0.00    +0.000 HD
BRANCH  18  20
ATOM     20  C   UNL     1      44.595   3.933   9.217  0.00  0.00    +0.000 A 
ATOM     21  C   UNL     1      45.580   4.345   8.322  0.00  0.00    +0.000 A 
ATOM     22  C   UNL     1      46.422   3.414   7.693  0.00  0.00    +0.000 A 
ATOM     23  C   UNL     1      46.291   2.046   7.963  0.00  0.00    +0.000 A 
ATOM     24  C   UNL     1      45.309   1.619   8.855  0.00  0.00    +0.000 A 
ATOM     25  C   UNL     1      44.475   2.554   9.469  0.00  0.00    +0.000 A 
BRANCH  23  26
ATOM     26  C   UNL     1      47.140   1.012   7.310  0.00  0.00    +0.000 C 
ATOM     27  N   UNL     1      46.858  -0.294   7.575  0.00  0.00    +0.000 N 
ATOM     28  O   UNL     1      48.039   1.318   6.533  0.00  0.00    +0.000 OA
ATOM     29  H   UNL     1      45.988  -0.588   7.993  0.00  0.00    +0.000 HD
ATOM     30  H   UNL     1      47.373  -0.976   7.035  0.00  0.00    +0.000 HD
ENDBRANCH  23  26
ENDBRANCH  18  20
ENDBRANCH   1  18
TORSDOF 6
ENDMDL
MODEL 4
REMARK VINA RESULT:    -7.739      1.937      2.707
REMARK INTER + INTRA:         -11.742
REMARK INTER:                 -11.129
REMARK INTRA:                  -0.613
REMARK UNBOUND:                -1.289
REMARK  Name = 
REMARK  7 active torsions:
REMARK  status: ('A' for Active; 'I' for Inactive)
REMARK    1  A    between atoms: C_1  and  O_2
REMARK    2  A    between atoms: O_2  and  C_3
REMARK    3  A    between atoms: C_7  and  C_8
REMARK    4  A    between atoms: C_12  and  C_13
REMARK    5  A    between atoms: C_13  and  N_14
REMARK    6  A    between atoms: N_14  and  C_15
REMARK    7  A    between atoms: C_18  and  C_19
REMARK                            x       y       z     vdW  Elec       q    Type
REMARK                         _______ _______ _______ _____ _____    ______ ____
ROOT
ATOM      1  C   UNL     1      43.903   4.925  11.730  0.00  0.00    +0.000 C 
ATOM      2  C   UNL     1      43.078   4.562  12.945  0.00  0.00    +0.000 C 
ATOM      3  C   UNL     1      44.343   3.826  12.700  0.00  0.00    +0.000 C 
ENDROOT
BRANCH   1   8
ATOM      4  C   UNL     1      46.584   7.667  12.262  0.00  0.00    +0.000 A 
ATOM      5  C   UNL     1      45.882   8.798  11.815  0.00  0.00    +0.000 A 
ATOM      6  C   UNL     1      44.565   8.690  11.357  0.00  0.00    +0.000 A 
ATOM      7  C   UNL     1      43.928   7.449  11.339  0.00  0.00    +0.000 A 
ATOM      8  C   UNL     1      44.583   6.291  11.778  0.00  0.00    +0.000 A 
ATOM      9  C   UNL     1      45.909   6.432  12.228  0.00  0.00    +0.000 A 
BRANCH   4  14
ATOM     10  C   UNL     1      49.665   7.186  14.435  0.00  0.00    +0.000 A 
ATOM     11  C   UNL     1      50.521   8.058  13.778  0.00  0.00    +0.000 A 
ATOM     12  N   UNL     1      50.194   8.746  12.662  0.00  0.00    +0.000 NA
ATOM     13  C   UNL     1      48.933   8.575  12.197  0.00  0.00    +0.000 A 
ATOM     14  C   UNL     1      47.966   7.750  12.779  0.00  0.00    +0.000 A 
ATOM     15  C   UNL     1      48.378   7.036  13.921  0.00  0.00    +0.000 A 
BRANCH  10  17
ATOM     16  C   UNL     1      51.434   7.017  15.991  0.00  0.00    +0.000 C 
ATOM     17  O   UNL     1      50.146   6.586  15.562  0.00  0.00    +0.000 OA
ENDBRANCH  10  17
ENDBRANCH   4  14
ENDBRANCH   1   8
BRANCH   1  18
ATOM     18  N   UNL     1      43.799   4.430  10.354  0.00  0.00    +0.000 N 
ATOM     19  H   UNL     1      42.850   4.263  10.030  0.00  0.00    +0.000 HD
BRANCH  18  20
ATOM     20  C   UNL     1      44.765   3.869   9.510  0.00  0.00    +0.000 A 
ATOM     21  C   UNL     1      45.584   4.588   8.641  0.00  0.00    +0.000 A 
ATOM     22  C   UNL     1      46.444   3.929   7.746  0.00  0.00    +0.000 A 
ATOM     23  C   UNL     1      46.500   2.530   7.720  0.00  0.00    +0.000 A 
ATOM     24  C   UNL     1      45.686   1.799   8.582  0.00  0.00    +0.000 A 
ATOM     25  C   UNL     1      44.831   2.464   9.462  0.00  0.00    +0.000 A 
BRANCH  23  26
ATOM     26  C   UNL     1      47.375   1.779   6.779  0.00  0.00    +0.000 C 
ATOM     27  N   UNL     1      48.420   2.450   6.217  0.00  0.00    +0.000 N 
ATOM     28  O   UNL     1      47.189   0.590   6.541  0.00  0.00    +0.000 OA
ATOM     29  H   UNL     1      48.753   3.332   6.575  0.00  0.00    +0.000 HD
ATOM     30  H   UNL     1      49.062   1.891   5.672  0.00  0.00    +0.000 HD
ENDBRANCH  23  26
ENDBRANCH  18  20
ENDBRANCH   1  18
TORSDOF 6
ENDMDL
MODEL 5
REMARK VINA RESULT:    -7.044      3.371      7.601
REMARK INTER + INTRA:         -10.804
REMARK INTER:                 -10.380
REMARK INTRA:                  -0.424
REMARK UNBOUND:                -1.289
REMARK  Name = 
REMARK  7 active torsions:
REMARK  status: ('A' for Active; 'I' for Inactive)
REMARK    1  A    between atoms: C_1  and  O_2
REMARK    2  A    between atoms: O_2  and  C_3
REMARK    3  A    between atoms: C_7  and  C_8
REMARK    4  A    between atoms: C_12  and  C_13
REMARK    5  A    between atoms: C_13  and  N_14
REMARK    6  A    between atoms: N_14  and  C_15
REMARK    7  A    between atoms: C_18  and  C_19
REMARK                            x       y       z     vdW  Elec       q    Type
REMARK                         _______ _______ _______ _____ _____    ______ ____
ROOT
ATOM      1  C   UNL     1      48.527   7.871  12.738  0.00  0.00    +0.000 C 
ATOM      2  C   UNL     1      49.418   8.697  11.836  0.00  0.00    +0.000 C 
ATOM      3  C   UNL     1      49.708   7.250  11.986  0.00  0.00    +0.000 C 
ENDROOT
BRANCH   1   8
ATOM      4  C   UNL     1      45.453   6.202  11.080  0.00  0.00    +0.000 A 
ATOM      5  C   UNL     1      44.468   7.169  11.342  0.00  0.00    +0.000 A 
ATOM      6  C   UNL     1      44.782   8.344  12.032  0.00  0.00    +0.000 A 
ATOM      7  C   UNL     1      46.086   8.572  12.470  0.00  0.00    +0.000 A 
ATOM      8  C   UNL     1      47.106   7.642  12.231  0.00  0.00    +0.000 A 
ATOM      9  C   UNL     1      46.756   6.468  11.539  0.00  0.00    +0.000 A 
BRANCH   4  14
ATOM     10  C   UNL     1      45.299   3.610   8.305  0.00  0.00    +0.000 A 
ATOM     11  C   UNL     1      44.464   2.691   8.925  0.00  0.00    +0.000 A 
ATOM     12  N   UNL     1      43.993   2.822  10.184  0.00  0.00    +0.000 NA
ATOM     13  C   UNL     1      44.351   3.949  10.847  0.00  0.00    +0.000 A 
ATOM     14  C   UNL     1      45.161   4.963  10.329  0.00  0.00    +0.000 A 
ATOM     15  C   UNL     1      45.647   4.753   9.024  0.00  0.00    +0.000 A 
BRANCH  10  17
ATOM     16  C   UNL     1      47.027   2.952   6.836  0.00  0.00    +0.000 C 
ATOM     17  O   UNL     1      45.668   3.335   7.022  0.00  0.00    +0.000 OA
ENDBRANCH  10  17
ENDBRANCH   4  14
ENDBRANCH   1   8
BRANCH   1  18
ATOM     18  N   UNL     1      48.621   7.647  14.184  0.00  0.00    +0.000 N 
ATOM     19  H   UNL     1      49.145   8.353  14.694  0.00  0.00    +0.000 HD
BRANCH  18  20
ATOM     20  C   UNL     1      48.377   6.498  14.947  0.00  0.00    +0.000 A 
ATOM     21  C   UNL     1      47.497   5.476  14.597  0.00  0.00    +0.000 A 
ATOM     22  C   UNL     1      47.229   4.418  15.481  0.00  0.00    +0.000 A 
ATOM     23  C   UNL     1      47.852   4.368  16.733  0.00  0.00    +0.000 A 
ATOM     24  C   UNL     1      48.733   5.384  17.098  0.00  0.00    +0.000 A 
ATOM     25  C   UNL     1      48.987   6.433  16.214  0.00  0.00    +0.000 A 
BRANCH  23  26
ATOM     26  C   UNL     1      47.589   3.284  17.719  0.00  0.00    +0.000 C 
ATOM     27  N   UNL     1      48.423   3.193  18.794  0.00  0.00    +0.000 N 
ATOM     28  O   UNL     1      46.638   2.520  17.593  0.00  0.00    +0.000 OA
ATOM     29  H   UNL     1      49.044   3.941  19.063  0.00  0.00    +0.000 HD
ATOM     30  H   UNL     1      48.158   2.523  19.503  0.00  0.00    +0.000 HD
ENDBRANCH  23  26
ENDBRANCH  18  20
ENDBRANCH   1  18
TORSDOF 6
ENDMDL
MODEL 6
REMARK VINA RESULT:    -6.827      5.432      8.718
REMARK INTER + INTRA:         -10.511
REMARK INTER:                  -9.783
REMARK INTRA:                  -0.728
REMARK UNBOUND:                -1.289
REMARK  Name = 
REMARK  7 active torsions:
REMARK  status: ('A' for Active; 'I' for Inactive)
REMARK    1  A    between atoms: C_1  and  O_2
REMARK    2  A    between atoms: O_2  and  C_3
REMARK    3  A    between atoms: C_7  and  C_8
REMARK    4  A    between atoms: C_12  and  C_13
REMARK    5  A    between atoms: C_13  and  N_14
REMARK    6  A    between atoms: N_14  and  C_15
REMARK    7  A    between atoms: C_18  and  C_19
REMARK                            x       y       z     vdW  Elec       q    Type
REMARK                         _______ _______ _______ _____ _____    ______ ____
ROOT
ATOM      1  C   UNL     1      48.169   4.501  16.949  0.00  0.00    +0.000 C 
ATOM      2  C   UNL     1      47.160   3.487  17.444  0.00  0.00    +0.000 C 
ATOM      3  C   UNL     1      47.270   4.785  18.156  0.00  0.00    +0.000 C 
ENDROOT
BRANCH   1   8
ATOM      4  C   UNL     1      46.374   5.341  13.624  0.00  0.00    +0.000 A 
ATOM      5  C   UNL     1      47.204   6.366  13.140  0.00  0.00    +0.000 A 
ATOM      6  C   UNL     1      48.329   6.778  13.861  0.00  0.00    +0.000 A 
ATOM      7  C   UNL     1      48.643   6.173  15.077  0.00  0.00    +0.000 A 
ATOM      8  C   UNL     1      47.850   5.144  15.603  0.00  0.00    +0.000 A 
ATOM      9  C   UNL     1      46.722   4.756  14.855  0.00  0.00    +0.000 A 
BRANCH   4  14
ATOM     10  C   UNL     1      44.162   3.372  11.243  0.00  0.00    +0.000 A 
ATOM     11  C   UNL     1      42.991   4.102  11.393  0.00  0.00    +0.000 A 
ATOM     12  N   UNL     1      42.852   5.146  12.241  0.00  0.00    +0.000 NA
ATOM     13  C   UNL     1      43.951   5.496  12.951  0.00  0.00    +0.000 A 
ATOM     14  C   UNL     1      45.194   4.862  12.874  0.00  0.00    +0.000 A 
ATOM     15  C   UNL     1      45.267   3.762  11.997  0.00  0.00    +0.000 A 
BRANCH  10  17
ATOM     16  C   UNL     1      44.840   2.606   9.114  0.00  0.00    +0.000 C 
ATOM     17  O   UNL     1      44.139   2.360  10.329  0.00  0.00    +0.000 OA
ENDBRANCH  10  17
ENDBRANCH   4  14
ENDBRANCH   1   8
BRANCH   1  18
ATOM     18  N   UNL     1      49.590   4.637  17.282  0.00  0.00    +0.000 N 
ATOM     19  H   UNL     1      49.989   5.552  17.093  0.00  0.00    +0.000 HD
BRANCH  18  20
ATOM     20  C   UNL     1      50.564   3.664  17.536  0.00  0.00    +0.000 A 
ATOM     21  C   UNL     1      51.842   3.919  18.029  0.00  0.00    +0.000 A 
ATOM     22  C   UNL     1      52.794   2.891  18.141  0.00  0.00    +0.000 A 
ATOM     23  C   UNL     1      52.468   1.583  17.766  0.00  0.00    +0.000 A 
ATOM     24  C   UNL     1      51.194   1.313  17.270  0.00  0.00    +0.000 A 
ATOM     25  C   UNL     1      50.260   2.343  17.157  0.00  0.00    +0.000 A 
BRANCH  23  26
ATOM     26  C   UNL     1      53.441   0.459  17.842  0.00  0.00    +0.000 C 
ATOM     27  N   UNL     1      53.077  -0.643  18.558  0.00  0.00    +0.000 N 
ATOM     28  O   UNL     1      54.517   0.502  17.256  0.00  0.00    +0.000 OA
ATOM     29  H   UNL     1      52.123  -0.820  18.834  0.00  0.00    +0.000 HD
ATOM     30  H   UNL     1      53.705  -1.433  18.502  0.00  0.00    +0.000 HD
ENDBRANCH  23  26
ENDBRANCH  18  20
ENDBRANCH   1  18
TORSDOF 6
ENDMDL
MODEL 7
REMARK VINA RESULT:    -6.528      4.113      6.177
REMARK INTER + INTRA:         -10.108
REMARK INTER:                  -9.057
REMARK INTRA:                  -1.050
REMARK UNBOUND:                -1.289
REMARK  Name = 
REMARK  7 active torsions:
REMARK  status: ('A' for Active; 'I' for Inactive)
REMARK    1  A    between atoms: C_1  and  O_2
REMARK    2  A    between atoms: O_2  and  C_3
REMARK    3  A    between atoms: C_7  and  C_8
REMARK    4  A    between atoms: C_12  and  C_13
REMARK    5  A    between atoms: C_13  and  N_14
REMARK    6  A    between atoms: N_14  and  C_15
REMARK    7  A    between atoms: C_18  and  C_19
REMARK                            x       y       z     vdW  Elec       q    Type
REMARK                         _______ _______ _______ _____ _____    ______ ____
ROOT
ATOM      1  C   UNL     1      48.056   7.966  12.561  0.00  0.00    +0.000 C 
ATOM      2  C   UNL     1      49.284   7.697  11.718  0.00  0.00    +0.000 C 
ATOM      3  C   UNL     1      48.717   9.069  11.728  0.00  0.00    +0.000 C 
ENDROOT
BRANCH   1   8
ATOM      4  C   UNL     1      48.833   6.654  16.118  0.00  0.00    +0.000 A 
ATOM      5  C   UNL     1      48.739   7.847  16.855  0.00  0.00    +0.000 A 
ATOM      6  C   UNL     1      48.422   9.055  16.225  0.00  0.00    +0.000 A 
ATOM      7  C   UNL     1      48.194   9.090  14.850  0.00  0.00    +0.000 A 
ATOM      8  C   UNL     1      48.271   7.928  14.071  0.00  0.00    +0.000 A 
ATOM      9  C   UNL     1      48.597   6.730  14.733  0.00  0.00    +0.000 A 
BRANCH   4  14
ATOM     10  C   UNL     1      50.707   3.790  17.771  0.00  0.00    +0.000 A 
ATOM     11  C   UNL     1      49.676   2.862  17.810  0.00  0.00    +0.000 A 
ATOM     12  N   UNL     1      48.415   3.110  17.392  0.00  0.00    +0.000 NA
ATOM     13  C   UNL     1      48.182   4.342  16.878  0.00  0.00    +0.000 A 
ATOM     14  C   UNL     1      49.137   5.356  16.757  0.00  0.00    +0.000 A 
ATOM     15  C   UNL     1      50.423   5.047  17.239  0.00  0.00    +0.000 A 
BRANCH  10  17
ATOM     16  C   UNL     1      52.321   2.066  17.803  0.00  0.00    +0.000 C 
ATOM     17  O   UNL     1      51.926   3.371  18.214  0.00  0.00    +0.000 OA
ENDBRANCH  10  17
ENDBRANCH   4  14
ENDBRANCH   1   8
BRANCH   1  18
ATOM     18  N   UNL     1      46.640   7.798  12.219  0.00  0.00    +0.000 N 
ATOM     19  H   UNL     1      46.063   8.622  12.365  0.00  0.00    +0.000 HD
BRANCH  18  20
ATOM     20  C   UNL     1      45.884   6.638  12.010  0.00  0.00    +0.000 A 
ATOM     21  C   UNL     1      45.308   5.865  13.016  0.00  0.00    +0.000 A 
ATOM     22  C   UNL     1      44.665   4.652  12.718  0.00  0.00    +0.000 A 
ATOM     23  C   UNL     1      44.584   4.201  11.395  0.00  0.00    +0.000 A 
ATOM     24  C   UNL     1      45.157   4.963  10.379  0.00  0.00    +0.000 A 
ATOM     25  C   UNL     1      45.799   6.163  10.688  0.00  0.00    +0.000 A 
BRANCH  23  26
ATOM     26  C   UNL     1      43.935   2.914  11.023  0.00  0.00    +0.000 C 
ATOM     27  N   UNL     1      44.483   2.206   9.995  0.00  0.00    +0.000 N 
ATOM     28  O   UNL     1      42.964   2.484  11.637  0.00  0.00    +0.000 OA
ATOM     29  H   UNL     1      45.409   2.391   9.642  0.00  0.00    +0.000 HD
ATOM     30  H   UNL     1      44.094   1.286   9.835  0.00  0.00    +0.000 HD
ENDBRANCH  23  26
ENDBRANCH  18  20
ENDBRANCH   1  18
TORSDOF 6
ENDMDL
MODEL 8
REMARK VINA RESULT:    -6.407      3.720      8.525
REMARK INTER + INTRA:          -9.943
REMARK INTER:                  -8.668
REMARK INTRA:                  -1.275
REMARK UNBOUND:                -1.289
REMARK  Name = 
REMARK  7 active torsions:
REMARK  status: ('A' for Active; 'I' for Inactive)
REMARK    1  A    between atoms: C_1  and  O_2
REMARK    2  A    between atoms: O_2  and  C_3
REMARK    3  A    between atoms: C_7  and  C_8
REMARK    4  A    between atoms: C_12  and  C_13
REMARK    5  A    between atoms: C_13  and  N_14
REMARK    6  A    between atoms: N_14  and  C_15
REMARK    7  A    between atoms: C_18  and  C_19
REMARK                            x       y       z     vdW  Elec       q    Type
REMARK                         _______ _______ _______ _____ _____    ______ ____
ROOT
ATOM      1  C   UNL     1      49.237   7.924  12.694  0.00  0.00    +0.000 C 
ATOM      2  C   UNL     1      49.966   9.094  12.070  0.00  0.00    +0.000 C 
ATOM      3  C   UNL     1      50.211   7.735  11.527  0.00  0.00    +0.000 C 
ENDROOT
BRANCH   1   8
ATOM      4  C   UNL     1      45.674   6.549  12.063  0.00  0.00    +0.000 A 
ATOM      5  C   UNL     1      44.942   7.747  12.029  0.00  0.00    +0.000 A 
ATOM      6  C   UNL     1      45.578   8.981  12.196  0.00  0.00    +0.000 A 
ATOM      7  C   UNL     1      46.957   9.037  12.400  0.00  0.00    +0.000 A 
ATOM      8  C   UNL     1      47.733   7.871  12.438  0.00  0.00    +0.000 A 
ATOM      9  C   UNL     1      47.062   6.645  12.271  0.00  0.00    +0.000 A 
BRANCH   4  14
ATOM     10  C   UNL     1      44.321   3.404  10.412  0.00  0.00    +0.000 A 
ATOM     11  C   UNL     1      43.710   2.834  11.519  0.00  0.00    +0.000 A 
ATOM     12  N   UNL     1      43.747   3.362  12.763  0.00  0.00    +0.000 NA
ATOM     13  C   UNL     1      44.404   4.539  12.897  0.00  0.00    +0.000 A 
ATOM     14  C   UNL     1      45.037   5.230  11.860  0.00  0.00    +0.000 A 
ATOM     15  C   UNL     1      44.991   4.613  10.595  0.00  0.00    +0.000 A 
BRANCH  10  17
ATOM     16  C   UNL     1      45.113   3.083   8.210  0.00  0.00    +0.000 C 
ATOM     17  O   UNL     1      44.170   2.751   9.224  0.00  0.00    +0.000 OA
ENDBRANCH  10  17
ENDBRANCH   4  14
ENDBRANCH   1   8
BRANCH   1  18
ATOM     18  N   UNL     1      49.610   7.109  13.855  0.00  0.00    +0.000 N 
ATOM     19  H   UNL     1      50.132   6.265  13.635  0.00  0.00    +0.000 HD
BRANCH  18  20
ATOM     20  C   UNL     1      49.131   7.123  15.170  0.00  0.00    +0.000 A 
ATOM     21  C   UNL     1      49.000   8.261  15.963  0.00  0.00    +0.000 A 
ATOM     22  C   UNL     1      48.622   8.164  17.312  0.00  0.00    +0.000 A 
ATOM     23  C   UNL     1      48.359   6.913  17.884  0.00  0.00    +0.000 A 
ATOM     24  C   UNL     1      48.487   5.766  17.104  0.00  0.00    +0.000 A 
ATOM     25  C   UNL     1      48.870   5.875  15.767  0.00  0.00    +0.000 A 
BRANCH  23  26
ATOM     26  C   UNL     1      47.976   6.748  19.313  0.00  0.00    +0.000 C 
ATOM     27  N   UNL     1      47.066   5.778  19.614  0.00  0.00    +0.000 N 
ATOM     28  O   UNL     1      48.484   7.431  20.197  0.00  0.00    +0.000 OA
ATOM     29  H   UNL     1      46.825   5.042  18.968  0.00  0.00    +0.000 HD
ATOM     30  H   UNL     1      46.908   5.611  20.599  0.00  0.00    +0.000 HD
ENDBRANCH  23  26
ENDBRANCH  18  20
ENDBRANCH   1  18
TORSDOF 6
ENDMDL
MODEL 9
REMARK VINA RESULT:    -5.789      4.134      6.642
REMARK INTER + INTRA:          -9.109
REMARK INTER:                  -7.981
REMARK INTRA:                  -1.128
REMARK UNBOUND:                -1.289
REMARK  Name = 
REMARK  7 active torsions:
REMARK  status: ('A' for Active; 'I' for Inactive)
REMARK    1  A    between atoms: C_1  and  O_2
REMARK    2  A    between atoms: O_2  and  C_3
REMARK    3  A    between atoms: C_7  and  C_8
REMARK    4  A    between atoms: C_12  and  C_13
REMARK    5  A    between atoms: C_13  and  N_14
REMARK    6  A    between atoms: N_14  and  C_15
REMARK    7  A    between atoms: C_18  and  C_19
REMARK                            x       y       z     vdW  Elec       q    Type
REMARK                         _______ _______ _______ _____ _____    ______ ____
ROOT
ATOM      1  C   UNL     1      48.257   8.564  13.040  0.00  0.00    +0.000 C 
ATOM      2  C   UNL     1      48.519   9.228  11.706  0.00  0.00    +0.000 C 
ATOM      3  C   UNL     1      47.886  10.027  12.784  0.00  0.00    +0.000 C 
ENDROOT
BRANCH   1   8
ATOM      4  C   UNL     1      50.553   6.991  15.730  0.00  0.00    +0.000 A 
ATOM      5  C   UNL     1      51.788   7.555  15.370  0.00  0.00    +0.000 A 
ATOM      6  C   UNL     1      51.887   8.434  14.288  0.00  0.00    +0.000 A 
ATOM      7  C   UNL     1      50.752   8.764  13.547  0.00  0.00    +0.000 A 
ATOM      8  C   UNL     1      49.496   8.233  13.867  0.00  0.00    +0.000 A 
ATOM      9  C   UNL     1      49.431   7.347  14.959  0.00  0.00    +0.000 A 
BRANCH   4  14
ATOM     10  C   UNL     1      49.106   4.506  18.215  0.00  0.00    +0.000 A 
ATOM     11  C   UNL     1      50.140   4.510  19.141  0.00  0.00    +0.000 A 
ATOM     12  N   UNL     1      51.285   5.213  18.995  0.00  0.00    +0.000 NA
ATOM     13  C   UNL     1      51.386   5.976  17.880  0.00  0.00    +0.000 A 
ATOM     14  C   UNL     1      50.409   6.082  16.887  0.00  0.00    +0.000 A 
ATOM     15  C   UNL     1      49.252   5.301  17.079  0.00  0.00    +0.000 A 
BRANCH  10  17
ATOM     16  C   UNL     1      47.486   2.958  17.468  0.00  0.00    +0.000 C 
ATOM     17  O   UNL     1      48.009   3.757  18.525  0.00  0.00    +0.000 OA
ENDBRANCH  10  17
ENDBRANCH   4  14
ENDBRANCH   1   8
BRANCH   1  18
ATOM     18  N   UNL     1      47.099   7.774  13.473  0.00  0.00    +0.000 N 
ATOM     19  H   UNL     1      46.860   7.869  14.456  0.00  0.00    +0.000 HD
BRANCH  18  20
ATOM     20  C   UNL     1      46.449   6.697  12.859  0.00  0.00    +0.000 A 
ATOM     21  C   UNL     1      45.727   6.770  11.669  0.00  0.00    +0.000 A 
ATOM     22  C   UNL     1      45.009   5.662  11.189  0.00  0.00    +0.000 A 
ATOM     23  C   UNL     1      45.014   4.455  11.899  0.00  0.00    +0.000 A 
ATOM     24  C   UNL     1      45.730   4.368  13.090  0.00  0.00    +0.000 A 
ATOM     25  C   UNL     1      46.434   5.477  13.561  0.00  0.00    +0.000 A 
BRANCH  23  26
ATOM     26  C   UNL     1      44.254   3.256  11.450  0.00  0.00    +0.000 C 
ATOM     27  N   UNL     1      43.787   2.410  12.411  0.00  0.00    +0.000 N 
ATOM     28  O   UNL     1      44.024   3.050  10.263  0.00  0.00    +0.000 OA
ATOM     29  H   UNL     1      43.732   2.672  13.384  0.00  0.00    +0.000 HD
ATOM     30  H   UNL     1      43.181   1.667  12.089  0.00  0.00    +0.000 HD
ENDBRANCH  23  26
ENDBRANCH  18  20
ENDBRANCH   1  18
TORSDOF 6
ENDMDL
