MODEL 1
REMARK VINA RESULT:    -8.559      0.000      0.000
REMARK INTER + INTRA:          -9.932
REMARK INTER:                 -10.059
REMARK INTRA:                   0.128
REMARK UNBOUND:                 0.128
REMARK  Name = 
REMARK  3 active torsions:
REMARK  status: ('A' for Active; 'I' for Inactive)
REMARK    1  A    between atoms: C_2  and  C_4
REMARK    2  A    between atoms: N_8  and  C_9
REMARK    3  A    between atoms: C_9  and  C_10
REMARK                            x       y       z     vdW  Elec       q    Type
REMARK                         _______ _______ _______ _____ _____    ______ ____
ROOT
ATOM      1  C   UNL     1      46.507   2.684   7.470  0.00  0.00    +0.000 A 
ATOM      2  C   UNL     1      46.217   4.001   7.809  0.00  0.00    +0.000 A 
ATOM      3  C   UNL     1      45.402   4.253   8.913  0.00  0.00    +0.000 A 
ATOM      4  C   UNL     1      44.889   3.198   9.661  0.00  0.00    +0.000 A 
ATOM      5  N   UNL     1      44.059   3.389  10.770  0.00  0.00    +0.000 N 
ATOM      6  N   UNL     1      45.150   1.916   9.330  0.00  0.00    +0.000 NA
ATOM      7  C   UNL     1      45.939   1.684   8.243  0.00  0.00    +0.000 A 
ATOM      8  H   UNL     1      43.895   2.485  11.206  0.00  0.00    +0.000 HD
ENDROOT
BRANCH   1  10
ATOM      9  N   UNL     1      47.269   3.102   5.201  0.00  0.00    +0.000 N 
ATOM     10  C   UNL     1      47.363   2.323   6.323  0.00  0.00    +0.000 C 
ATOM     11  O   UNL     1      48.152   1.392   6.383  0.00  0.00    +0.000 OA
ATOM     12  H   UNL     1      47.931   2.906   4.461  0.00  0.00    +0.000 HD
ATOM     13  H   UNL     1      46.824   4.009   5.198  0.00  0.00    +0.000 HD
ENDBRANCH   1  10
BRANCH   5  14
ATOM     14  C   UNL     1      44.008   4.618  11.573  0.00  0.00    +0.000 C 
ATOM     15  C   UNL     1      42.711   5.009  12.262  0.00  0.00    +0.000 C 
ATOM     16  C   UNL     1      43.152   5.768  11.054  0.00  0.00    +0.000 C 
BRANCH  14  17
ATOM     17  C   UNL     1      45.339   5.028  12.203  0.00  0.00    +0.000 A 
ATOM     18  C   UNL     1      45.863   4.349  13.312  0.00  0.00    +0.000 A 
ATOM     19  C   UNL     1      47.102   4.718  13.818  0.00  0.00    +0.000 A 
ATOM     20  N   UNL     1      47.849   5.724  13.322  0.00  0.00    +0.000 NA
ATOM     21  C   UNL     1      47.327   6.385  12.273  0.00  0.00    +0.000 A 
ATOM     22  F   UNL     1      48.041   7.392  11.754  0.00  0.00    +0.000 F 
ATOM     23  C   UNL     1      46.110   6.078  11.692  0.00  0.00    +0.000 A 
ENDBRANCH  14  17
ENDBRANCH   5  14
TORSDOF 3
ENDMDL
MODEL 2
REMARK VINA RESULT:    -7.558      3.372      6.455
REMARK INTER + INTRA:          -8.755
REMARK INTER:                  -8.442
REMARK INTRA:                  -0.314
REMARK UNBOUND:                 0.128
REMARK  Name = 
REMARK  3 active torsions:
REMARK  status: ('A' for Active; 'I' for Inactive)
REMARK    1  A    between atoms: C_2  and  C_4
REMARK    2  A    between atoms: N_8  and  C_9
REMARK    3  A    between atoms: C_9  and  C_10
REMARK                            x       y       z     vdW  Elec       q    Type
REMARK                         _______ _______ _______ _____ _____    ______ ____
ROOT
ATOM      1  C   UNL     1      47.897   5.932  14.649  0.00  0.00    +0.000 A 
ATOM      2  C   UNL     1      47.699   6.305  13.324  0.00  0.00    +0.000 A 
ATOM      3  C   UNL     1      46.804   5.575  12.542  0.00  0.00    +0.000 A 
ATOM      4  C   UNL     1      46.122   4.490  13.084  0.00  0.00    +0.000 A 
ATOM      5  N   UNL     1      45.222   3.716  12.345  0.00  0.00    +0.000 N 
ATOM      6  N   UNL     1      46.320   4.110  14.364  0.00  0.00    +0.000 NA
ATOM      7  C   UNL     1      47.205   4.825  15.113  0.00  0.00    +0.000 A 
ATOM      8  H   UNL     1      44.781   3.051  12.976  0.00  0.00    +0.000 HD
ENDROOT
BRANCH   1  10
ATOM      9  N   UNL     1      48.343   7.773  16.172  0.00  0.00    +0.000 N 
ATOM     10  C   UNL     1      48.819   6.648  15.552  0.00  0.00    +0.000 C 
ATOM     11  O   UNL     1      49.949   6.237  15.768  0.00  0.00    +0.000 OA
ATOM     12  H   UNL     1      48.949   8.196  16.862  0.00  0.00    +0.000 HD
ATOM     13  H   UNL     1      47.359   8.001  16.215  0.00  0.00    +0.000 HD
ENDBRANCH   1  10
BRANCH   5  14
ATOM     14  C   UNL     1      44.516   4.175  11.142  0.00  0.00    +0.000 C 
ATOM     15  C   UNL     1      43.796   5.513  11.161  0.00  0.00    +0.000 C 
ATOM     16  C   UNL     1      42.994   4.254  11.201  0.00  0.00    +0.000 C 
BRANCH  14  17
ATOM     17  C   UNL     1      45.091   3.656   9.824  0.00  0.00    +0.000 A 
ATOM     18  C   UNL     1      45.530   4.533   8.823  0.00  0.00    +0.000 A 
ATOM     19  C   UNL     1      46.099   4.021   7.664  0.00  0.00    +0.000 A 
ATOM     20  N   UNL     1      46.242   2.705   7.415  0.00  0.00    +0.000 NA
ATOM     21  C   UNL     1      45.796   1.871   8.370  0.00  0.00    +0.000 A 
ATOM     22  F   UNL     1      45.921   0.554   8.157  0.00  0.00    +0.000 F 
ATOM     23  C   UNL     1      45.233   2.288   9.563  0.00  0.00    +0.000 A 
ENDBRANCH  14  17
ENDBRANCH   5  14
TORSDOF 3
ENDMDL
MODEL 3
REMARK VINA RESULT:    -6.557      3.423      6.379
REMARK INTER + INTRA:          -7.579
REMARK INTER:                  -8.238
REMARK INTRA:                   0.659
REMARK UNBOUND:                 0.128
REMARK  Name = 
REMARK  3 active torsions:
REMARK  status: ('A' for Active; 'I' for Inactive)
REMARK    1  A    between atoms: C_2  and  C_4
REMARK    2  A    between atoms: N_8  and  C_9
REMARK    3  A    between atoms: C_9  and  C_10
REMARK                            x       y       z     vdW  Elec       q    Type
REMARK                         _______ _______ _______ _____ _____    ______ ____
ROOT
ATOM      1  C   UNL     1      46.893   7.617  13.171  0.00  0.00    +0.000 A 
ATOM      2  C   UNL     1      46.878   6.254  13.445  0.00  0.00    +0.000 A 
ATOM      3  C   UNL     1      45.970   5.439  12.771  0.00  0.00    +0.000 A 
ATOM      4  C   UNL     1      45.093   5.985  11.839  0.00  0.00    +0.000 A 
ATOM      5  N   UNL     1      44.155   5.219  11.141  0.00  0.00    +0.000 N 
ATOM      6  N   UNL     1      45.088   7.310  11.579  0.00  0.00    +0.000 NA
ATOM      7  C   UNL     1      45.973   8.097  12.253  0.00  0.00    +0.000 A 
ATOM      8  H   UNL     1      43.702   5.816  10.453  0.00  0.00    +0.000 HD
ENDROOT
BRANCH   1  10
ATOM      9  N   UNL     1      47.483   8.999  15.082  0.00  0.00    +0.000 N 
ATOM     10  C   UNL     1      47.822   8.555  13.832  0.00  0.00    +0.000 C 
ATOM     11  O   UNL     1      48.870   8.895  13.304  0.00  0.00    +0.000 OA
ATOM     12  H   UNL     1      48.173   9.560  15.563  0.00  0.00    +0.000 HD
ATOM     13  H   UNL     1      46.768   8.558  15.645  0.00  0.00    +0.000 HD
ENDBRANCH   1  10
BRANCH   5  14
ATOM     14  C   UNL     1      44.264   3.773  10.906  0.00  0.00    +0.000 C 
ATOM     15  C   UNL     1      43.186   2.844  11.437  0.00  0.00    +0.000 C 
ATOM     16  C   UNL     1      44.516   2.877  12.114  0.00  0.00    +0.000 C 
BRANCH  14  17
ATOM     17  C   UNL     1      45.024   3.385   9.637  0.00  0.00    +0.000 A 
ATOM     18  C   UNL     1      45.479   4.354   8.733  0.00  0.00    +0.000 A 
ATOM     19  C   UNL     1      46.214   3.963   7.621  0.00  0.00    +0.000 A 
ATOM     20  N   UNL     1      46.511   2.682   7.329  0.00  0.00    +0.000 NA
ATOM     21  C   UNL     1      46.051   1.758   8.190  0.00  0.00    +0.000 A 
ATOM     22  F   UNL     1      46.326   0.472   7.931  0.00  0.00    +0.000 F 
ATOM     23  C   UNL     1      45.326   2.053   9.331  0.00  0.00    +0.000 A 
ENDBRANCH  14  17
ENDBRANCH   5  14
TORSDOF 3
ENDMDL
MODEL 4
REMARK VINA RESULT:    -6.519      3.580      6.353
REMARK INTER + INTRA:          -7.535
REMARK INTER:                  -7.266
REMARK INTRA:                  -0.269
REMARK UNBOUND:                 0.128
REMARK  Name = 
REMARK  3 active torsions:
REMARK  status: ('A' for Active; 'I' for Inactive)
REMARK    1  A    between atoms: C_2  and  C_4
REMARK    2  A    between atoms: N_8  and  C_9
REMARK    3  A    between atoms: C_9  and  C_10
REMARK                            x       y       z     vdW  Elec       q    Type
REMARK                         _______ _______ _______ _____ _____    ______ ____
ROOT
ATOM      1  C   UNL     1      49.203   7.589  13.268  0.00  0.00    +0.000 A 
ATOM      2  C   UNL     1      48.561   7.632  12.035  0.00  0.00    +0.000 A 
ATOM      3  C   UNL     1      47.484   6.778  11.803  0.00  0.00    +0.000 A 
ATOM      4  C   UNL     1      47.060   5.897  12.794  0.00  0.00    +0.000 A 
ATOM      5  N   UNL     1      45.994   5.011  12.614  0.00  0.00    +0.000 N 
ATOM      6  N   UNL     1      47.688   5.836  13.987  0.00  0.00    +0.000 NA
ATOM      7  C   UNL     1      48.746   6.668  14.197  0.00  0.00    +0.000 A 
ATOM      8  H   UNL     1      45.812   4.546  13.500  0.00  0.00    +0.000 HD
ENDROOT
BRANCH   1  10
ATOM      9  N   UNL     1      50.954   9.125  12.573  0.00  0.00    +0.000 N 
ATOM     10  C   UNL     1      50.348   8.458  13.604  0.00  0.00    +0.000 C 
ATOM     11  O   UNL     1      50.719   8.609  14.758  0.00  0.00    +0.000 OA
ATOM     12  H   UNL     1      51.670   9.792  12.828  0.00  0.00    +0.000 HD
ATOM     13  H   UNL     1      50.531   9.223  11.659  0.00  0.00    +0.000 HD
ENDBRANCH   1  10
BRANCH   5  14
ATOM     14  C   UNL     1      44.911   5.193  11.639  0.00  0.00    +0.000 C 
ATOM     15  C   UNL     1      44.133   6.498  11.619  0.00  0.00    +0.000 C 
ATOM     16  C   UNL     1      43.484   5.273  12.171  0.00  0.00    +0.000 C 
BRANCH  14  17
ATOM     17  C   UNL     1      45.078   4.405  10.339  0.00  0.00    +0.000 A 
ATOM     18  C   UNL     1      45.625   4.996   9.192  0.00  0.00    +0.000 A 
ATOM     19  C   UNL     1      45.813   4.230   8.049  0.00  0.00    +0.000 A 
ATOM     20  N   UNL     1      45.476   2.928   7.954  0.00  0.00    +0.000 NA
ATOM     21  C   UNL     1      44.931   2.376   9.052  0.00  0.00    +0.000 A 
ATOM     22  F   UNL     1      44.583   1.084   8.993  0.00  0.00    +0.000 F 
ATOM     23  C   UNL     1      44.722   3.056  10.238  0.00  0.00    +0.000 A 
ENDBRANCH  14  17
ENDBRANCH   5  14
TORSDOF 3
ENDMDL
MODEL 5
REMARK VINA RESULT:    -6.481      3.041      4.631
REMARK INTER + INTRA:          -7.490
REMARK INTER:                  -7.220
REMARK INTRA:                  -0.269
REMARK UNBOUND:                 0.128
REMARK  Name = 
REMARK  3 active torsions:
REMARK  status: ('A' for Active; 'I' for Inactive)
REMARK    1  A    between atoms: C_2  and  C_4
REMARK    2  A    between atoms: N_8  and  C_9
REMARK    3  A    between atoms: C_9  and  C_10
REMARK                            x       y       z     vdW  Elec       q    Type
REMARK                         _______ _______ _______ _____ _____    ______ ____
ROOT
ATOM      1  C   UNL     1      45.049   3.906  10.109  0.00  0.00    +0.000 A 
ATOM      2  C   UNL     1      45.623   5.140   9.823  0.00  0.00    +0.000 A 
ATOM      3  C   UNL     1      46.024   5.961  10.876  0.00  0.00    +0.000 A 
ATOM      4  C   UNL     1      45.852   5.547  12.193  0.00  0.00    +0.000 A 
ATOM      5  N   UNL     1      46.224   6.332  13.289  0.00  0.00    +0.000 N 
ATOM      6  N   UNL     1      45.280   4.359  12.482  0.00  0.00    +0.000 NA
ATOM      7  C   UNL     1      44.883   3.572  11.443  0.00  0.00    +0.000 A 
ATOM      8  H   UNL     1      46.092   5.782  14.135  0.00  0.00    +0.000 HD
ENDROOT
BRANCH   1  10
ATOM      9  N   UNL     1      44.277   3.503   7.840  0.00  0.00    +0.000 N 
ATOM     10  C   UNL     1      44.600   2.971   9.060  0.00  0.00    +0.000 C 
ATOM     11  O   UNL     1      44.553   1.766   9.255  0.00  0.00    +0.000 OA
ATOM     12  H   UNL     1      44.067   2.843   7.102  0.00  0.00    +0.000 HD
ATOM     13  H   UNL     1      44.535   4.441   7.566  0.00  0.00    +0.000 HD
ENDBRANCH   1  10
BRANCH   5  14
ATOM     14  C   UNL     1      47.235   7.397  13.249  0.00  0.00    +0.000 C 
ATOM     15  C   UNL     1      48.703   7.031  13.118  0.00  0.00    +0.000 C 
ATOM     16  C   UNL     1      48.188   7.513  14.433  0.00  0.00    +0.000 C 
BRANCH  14  17
ATOM     17  C   UNL     1      46.744   8.726  12.674  0.00  0.00    +0.000 A 
ATOM     18  C   UNL     1      47.636   9.667  12.144  0.00  0.00    +0.000 A 
ATOM     19  C   UNL     1      47.145  10.837  11.581  0.00  0.00    +0.000 A 
ATOM     20  N   UNL     1      45.836  11.152  11.525  0.00  0.00    +0.000 NA
ATOM     21  C   UNL     1      44.989  10.254  12.058  0.00  0.00    +0.000 A 
ATOM     22  F   UNL     1      43.679  10.535  12.022  0.00  0.00    +0.000 F 
ATOM     23  C   UNL     1      45.385   9.056  12.624  0.00  0.00    +0.000 A 
ENDBRANCH  14  17
ENDBRANCH   5  14
TORSDOF 3
ENDMDL
MODEL 6
REMARK VINA RESULT:    -6.452      3.135      5.908
REMARK INTER + INTRA:          -7.456
REMARK INTER:                  -7.834
REMARK INTRA:                   0.378
REMARK UNBOUND:                 0.128
REMARK  Name = 
REMARK  3 active torsions:
REMARK  status: ('A' for Active; 'I' for Inactive)
REMARK    1  A    between atoms: C_2  and  C_4
REMARK    2  A    between atoms: N_8  and  C_9
REMARK    3  A    between atoms: C_9  and  C_10
REMARK                            x       y       z     vdW  Elec       q    Type
REMARK                         _______ _______ _______ _____ _____    ______ ____
ROOT
ATOM      1  C   UNL     1      48.372   7.048  13.316  0.00  0.00    +0.000 A 
ATOM      2  C   UNL     1      47.610   5.938  13.662  0.00  0.00    +0.000 A 
ATOM      3  C   UNL     1      46.349   5.777  13.090  0.00  0.00    +0.000 A 
ATOM      4  C   UNL     1      45.863   6.716  12.186  0.00  0.00    +0.000 A 
ATOM      5  N   UNL     1      44.603   6.614  11.589  0.00  0.00    +0.000 N 
ATOM      6  N   UNL     1      46.588   7.807  11.856  0.00  0.00    +0.000 NA
ATOM      7  C   UNL     1      47.815   7.957  12.431  0.00  0.00    +0.000 A 
ATOM      8  H   UNL     1      44.514   7.356  10.900  0.00  0.00    +0.000 HD
ENDROOT
BRANCH   1  10
ATOM      9  N   UNL     1      50.559   8.092  13.134  0.00  0.00    +0.000 N 
ATOM     10  C   UNL     1      49.719   7.297  13.866  0.00  0.00    +0.000 C 
ATOM     11  O   UNL     1      50.060   6.845  14.949  0.00  0.00    +0.000 OA
ATOM     12  H   UNL     1      51.440   8.336  13.568  0.00  0.00    +0.000 HD
ATOM     13  H   UNL     1      50.238   8.677  12.374  0.00  0.00    +0.000 HD
ENDBRANCH   1  10
BRANCH   5  14
ATOM     14  C   UNL     1      43.856   5.360  11.426  0.00  0.00    +0.000 C 
ATOM     15  C   UNL     1      42.360   5.339  11.694  0.00  0.00    +0.000 C 
ATOM     16  C   UNL     1      43.285   4.707  12.681  0.00  0.00    +0.000 C 
BRANCH  14  17
ATOM     17  C   UNL     1      44.442   4.392  10.398  0.00  0.00    +0.000 A 
ATOM     18  C   UNL     1      44.091   3.036  10.387  0.00  0.00    +0.000 A 
ATOM     19  C   UNL     1      44.603   2.203   9.401  0.00  0.00    +0.000 A 
ATOM     20  N   UNL     1      45.454   2.611   8.439  0.00  0.00    +0.000 NA
ATOM     21  C   UNL     1      45.803   3.909   8.471  0.00  0.00    +0.000 A 
ATOM     22  F   UNL     1      46.649   4.351   7.530  0.00  0.00    +0.000 F 
ATOM     23  C   UNL     1      45.332   4.816   9.403  0.00  0.00    +0.000 A 
ENDBRANCH  14  17
ENDBRANCH   5  14
TORSDOF 3
ENDMDL
MODEL 7
REMARK VINA RESULT:    -6.377      4.563      7.042
REMARK INTER + INTRA:          -7.367
REMARK INTER:                  -7.028
REMARK INTRA:                  -0.340
REMARK UNBOUND:                 0.128
REMARK  Name = 
REMARK  3 active torsions:
REMARK  status: ('A' for Active; 'I' for Inactive)
REMARK    1  A    between atoms: C_2  and  C_4
REMARK    2  A    between atoms: N_8  and  C_9
REMARK    3  A    between atoms: C_9  and  C_10
REMARK                            x       y       z     vdW  Elec       q    Type
REMARK                         _______ _______ _______ _____ _____    ______ ____
ROOT
ATOM      1  C   UNL     1      48.336   3.857  17.322  0.00  0.00    +0.000 A 
ATOM      2  C   UNL     1      47.726   4.997  16.810  0.00  0.00    +0.000 A 
ATOM      3  C   UNL     1      47.192   4.958  15.522  0.00  0.00    +0.000 A 
ATOM      4  C   UNL     1      47.269   3.794  14.765  0.00  0.00    +0.000 A 
ATOM      5  N   UNL     1      46.762   3.700  13.466  0.00  0.00    +0.000 N 
ATOM      6  N   UNL     1      47.875   2.687  15.247  0.00  0.00    +0.000 NA
ATOM      7  C   UNL     1      48.402   2.743  16.502  0.00  0.00    +0.000 A 
ATOM      8  H   UNL     1      46.847   2.734  13.159  0.00  0.00    +0.000 HD
ENDROOT
BRANCH   1  10
ATOM      9  N   UNL     1      48.256   3.074  19.622  0.00  0.00    +0.000 N 
ATOM     10  C   UNL     1      48.924   3.805  18.675  0.00  0.00    +0.000 C 
ATOM     11  O   UNL     1      49.982   4.357  18.934  0.00  0.00    +0.000 OA
ATOM     12  H   UNL     1      48.719   2.964  20.514  0.00  0.00    +0.000 HD
ATOM     13  H   UNL     1      47.528   2.412  19.390  0.00  0.00    +0.000 HD
ENDBRANCH   1  10
BRANCH   5  14
ATOM     14  C   UNL     1      45.704   4.559  12.918  0.00  0.00    +0.000 C 
ATOM     15  C   UNL     1      44.253   4.273  13.262  0.00  0.00    +0.000 C 
ATOM     16  C   UNL     1      44.754   3.948  11.894  0.00  0.00    +0.000 C 
BRANCH  14  17
ATOM     17  C   UNL     1      46.132   5.999  12.631  0.00  0.00    +0.000 A 
ATOM     18  C   UNL     1      45.282   7.081  12.897  0.00  0.00    +0.000 A 
ATOM     19  C   UNL     1      45.731   8.376  12.676  0.00  0.00    +0.000 A 
ATOM     20  N   UNL     1      46.951   8.676  12.188  0.00  0.00    +0.000 NA
ATOM     21  C   UNL     1      47.751   7.631  11.914  0.00  0.00    +0.000 A 
ATOM     22  F   UNL     1      48.972   7.891  11.427  0.00  0.00    +0.000 F 
ATOM     23  C   UNL     1      47.397   6.309  12.118  0.00  0.00    +0.000 A 
ENDBRANCH  14  17
ENDBRANCH   5  14
TORSDOF 3
ENDMDL
MODEL 8
REMARK VINA RESULT:    -6.220      2.565      3.271
REMARK INTER + INTRA:          -7.184
REMARK INTER:                  -6.901
REMARK INTRA:                  -0.283
REMARK UNBOUND:                 0.128
REMARK  Name = 
REMARK  3 active torsions:
REMARK  status: ('A' for Active; 'I' for Inactive)
REMARK    1  A    between atoms: C_2  and  C_4
REMARK    2  A    between atoms: N_8  and  C_9
REMARK    3  A    between atoms: C_9  and  C_10
REMARK                            x       y       z     vdW  Elec       q    Type
REMARK                         _______ _______ _______ _____ _____    ______ ____
ROOT
ATOM      1  C   UNL     1      46.083   3.475   7.535  0.00  0.00    +0.000 A 
ATOM      2  C   UNL     1      46.641   4.632   8.067  0.00  0.00    +0.000 A 
ATOM      3  C   UNL     1      45.993   5.274   9.122  0.00  0.00    +0.000 A 
ATOM      4  C   UNL     1      44.805   4.760   9.632  0.00  0.00    +0.000 A 
ATOM      5  N   UNL     1      44.105   5.365  10.680  0.00  0.00    +0.000 N 
ATOM      6  N   UNL     1      44.246   3.646   9.111  0.00  0.00    +0.000 NA
ATOM      7  C   UNL     1      44.885   3.036   8.073  0.00  0.00    +0.000 A 
ATOM      8  H   UNL     1      43.331   4.759  10.939  0.00  0.00    +0.000 HD
ENDROOT
BRANCH   1  10
ATOM      9  N   UNL     1      47.086   3.444   5.321  0.00  0.00    +0.000 N 
ATOM     10  C   UNL     1      46.702   2.727   6.423  0.00  0.00    +0.000 C 
ATOM     11  O   UNL     1      46.899   1.523   6.493  0.00  0.00    +0.000 OA
ATOM     12  H   UNL     1      47.597   2.937   4.610  0.00  0.00    +0.000 HD
ATOM     13  H   UNL     1      47.168   4.452   5.324  0.00  0.00    +0.000 HD
ENDBRANCH   1  10
BRANCH   5  14
ATOM     14  C   UNL     1      44.704   6.266  11.673  0.00  0.00    +0.000 C 
ATOM     15  C   UNL     1      45.970   5.846  12.399  0.00  0.00    +0.000 C 
ATOM     16  C   UNL     1      44.671   5.832  13.134  0.00  0.00    +0.000 C 
BRANCH  14  17
ATOM     17  C   UNL     1      44.444   7.753  11.429  0.00  0.00    +0.000 A 
ATOM     18  C   UNL     1      43.261   8.199  10.825  0.00  0.00    +0.000 A 
ATOM     19  C   UNL     1      43.039   9.561  10.673  0.00  0.00    +0.000 A 
ATOM     20  N   UNL     1      43.914  10.512  11.055  0.00  0.00    +0.000 NA
ATOM     21  C   UNL     1      45.057  10.075  11.612  0.00  0.00    +0.000 A 
ATOM     22  F   UNL     1      45.951  10.992  12.002  0.00  0.00    +0.000 F 
ATOM     23  C   UNL     1      45.357   8.740  11.819  0.00  0.00    +0.000 A 
ENDBRANCH  14  17
ENDBRANCH   5  14
TORSDOF 3
ENDMDL
MODEL 9
REMARK VINA RESULT:    -6.156      3.475      5.554
REMARK INTER + INTRA:          -7.108
REMARK INTER:                  -6.680
REMARK INTRA:                  -0.429
REMARK UNBOUND:                 0.128
REMARK  Name = 
REMARK  3 active torsions:
REMARK  status: ('A' for Active; 'I' for Inactive)
REMARK    1  A    between atoms: C_2  and  C_4
REMARK    2  A    between atoms: N_8  and  C_9
REMARK    3  A    between atoms: C_9  and  C_10
REMARK                            x       y       z     vdW  Elec       q    Type
REMARK                         _______ _______ _______ _____ _____    ______ ____
ROOT
ATOM      1  C   UNL     1      44.714   5.178  10.954  0.00  0.00    +0.000 A 
ATOM      2  C   UNL     1      45.931   5.754  10.608  0.00  0.00    +0.000 A 
ATOM      3  C   UNL     1      46.516   6.674  11.477  0.00  0.00    +0.000 A 
ATOM      4  C   UNL     1      45.887   7.010  12.672  0.00  0.00    +0.000 A 
ATOM      5  N   UNL     1      46.420   7.934  13.575  0.00  0.00    +0.000 N 
ATOM      6  N   UNL     1      44.696   6.470  13.008  0.00  0.00    +0.000 NA
ATOM      7  C   UNL     1      44.131   5.580  12.145  0.00  0.00    +0.000 A 
ATOM      8  H   UNL     1      45.837   7.938  14.409  0.00  0.00    +0.000 HD
ENDROOT
BRANCH   1  10
ATOM      9  N   UNL     1      44.098   4.373   8.745  0.00  0.00    +0.000 N 
ATOM     10  C   UNL     1      44.024   4.191  10.100  0.00  0.00    +0.000 C 
ATOM     11  O   UNL     1      43.442   3.229  10.578  0.00  0.00    +0.000 OA
ATOM     12  H   UNL     1      43.708   3.638   8.171  0.00  0.00    +0.000 HD
ATOM     13  H   UNL     1      44.764   4.999   8.311  0.00  0.00    +0.000 HD
ENDBRANCH   1  10
BRANCH   5  14
ATOM     14  C   UNL     1      47.842   8.290  13.666  0.00  0.00    +0.000 C 
ATOM     15  C   UNL     1      48.825   7.300  14.267  0.00  0.00    +0.000 C 
ATOM     16  C   UNL     1      48.431   8.504  15.055  0.00  0.00    +0.000 C 
BRANCH  14  17
ATOM     17  C   UNL     1      48.328   9.266  12.594  0.00  0.00    +0.000 A 
ATOM     18  C   UNL     1      47.566  10.381  12.221  0.00  0.00    +0.000 A 
ATOM     19  C   UNL     1      48.070  11.273  11.284  0.00  0.00    +0.000 A 
ATOM     20  N   UNL     1      49.262  11.129  10.673  0.00  0.00    +0.000 NA
ATOM     21  C   UNL     1      49.976  10.043  11.020  0.00  0.00    +0.000 A 
ATOM     22  F   UNL     1      51.167   9.866  10.432  0.00  0.00    +0.000 F 
ATOM     23  C   UNL     1      49.564   9.111  11.955  0.00  0.00    +0.000 A 
ENDBRANCH  14  17
ENDBRANCH   5  14
TORSDOF 3
ENDMDL
