MODEL 1
REMARK VINA RESULT:    -8.522      0.000      0.000
REMARK INTER + INTRA:         -13.002
REMARK INTER:                 -12.010
REMARK INTRA:                  -0.992
REMARK UNBOUND:                -0.992
REMARK  Name = 
REMARK  7 active torsions:
REMARK  status: ('A' for Active; 'I' for Inactive)
REMARK    1  A    between atoms: C_2  and  C_3
REMARK    2  A    between atoms: C_3  and  N_4
REMARK    3  A    between atoms: C_3  and  C_21
REMARK    4  A    between atoms: C_5  and  C_7
REMARK    5  A    between atoms: C_10  and  C_11
REMARK    6  A    between atoms: C_11  and  N_12
REMARK    7  A    between atoms: C_13  and  C_15
REMARK                            x       y       z     vdW  Elec       q    Type
REMARK                         _______ _______ _______ _____ _____    ______ ____
ROOT
ATOM      1  N   UNL     1      46.822   5.044  14.743  0.00  0.00    +0.000 N 
ATOM      2  C   UNL     1      46.547   4.130  13.739  0.00  0.00    +0.000 C 
ATOM      3  O   UNL     1      47.166   3.070  13.643  0.00  0.00    +0.000 OA
ATOM      4  H   UNL     1      46.229   5.849  14.871  0.00  0.00    +0.000 HD
ENDROOT
BRANCH   2   5
ATOM      5  C   UNL     1      45.473   4.530  12.726  0.00  0.00    +0.000 C 
ATOM      6  C   UNL     1      44.213   5.123  13.343  0.00  0.00    +0.000 C 
ATOM      7  C   UNL     1      43.099   4.903  12.310  0.00  0.00    +0.000 C 
ATOM      8  C   UNL     1      43.599   3.821  11.333  0.00  0.00    +0.000 C 
ATOM      9  C   UNL     1      44.911   3.327  11.956  0.00  0.00    +0.000 C 
BRANCH   8  10
ATOM     10  C   UNL     1      43.799   4.370   9.909  0.00  0.00    +0.000 C 
BRANCH  10  11
ATOM     11  N   UNL     1      44.573   3.483   9.065  0.00  0.00    +0.000 N 
ATOM     12  C   UNL     1      45.648   3.949   8.343  0.00  0.00    +0.000 C 
ATOM     13  O   UNL     1      45.985   5.127   8.347  0.00  0.00    +0.000 OA
ATOM     14  H   UNL     1      44.437   2.485   9.139  0.00  0.00    +0.000 HD
BRANCH  12  15
ATOM     15  C   UNL     1      46.353   2.951   7.579  0.00  0.00    +0.000 A 
ATOM     16  C   UNL     1      47.036   2.983   6.379  0.00  0.00    +0.000 A 
ATOM     17  C   UNL     1      47.518   1.675   6.192  0.00  0.00    +0.000 A 
ATOM     18  N   UNL     1      47.168   0.860   7.186  0.00  0.00    +0.000 NA
ATOM     19  N   UNL     1      46.472   1.657   8.018  0.00  0.00    +0.000 N 
ATOM     20  H   UNL     1      46.112   1.271   8.885  0.00  0.00    +0.000 HD
ENDBRANCH  12  15
ENDBRANCH  10  11
ENDBRANCH   8  10
ENDBRANCH   2   5
BRANCH   1  21
ATOM     21  C   UNL     1      47.855   4.729  15.744  0.00  0.00    +0.000 C 
BRANCH  21  22
ATOM     22  C   UNL     1      48.351   5.985  16.432  0.00  0.00    +0.000 A 
ATOM     23  C   UNL     1      48.209   6.308  17.777  0.00  0.00    +0.000 A 
ATOM     24  S   UNL     1      49.067   7.723  18.230  0.00  0.00    +0.000 S 
ATOM     25  C   UNL     1      49.635   7.957  16.644  0.00  0.00    +0.000 A 
ATOM     26  N   UNL     1      50.475   8.980  16.327  0.00  0.00    +0.000 NA
ATOM     27  C   UNL     1      50.857   8.987  15.093  0.00  0.00    +0.000 A 
ATOM     28  N   UNL     1      50.455   8.086  14.138  0.00  0.00    +0.000 N 
ATOM     29  C   UNL     1      49.521   7.113  14.388  0.00  0.00    +0.000 A 
ATOM     30  O   UNL     1      49.029   6.428  13.496  0.00  0.00    +0.000 OA
ATOM     31  C   UNL     1      49.143   6.997  15.779  0.00  0.00    +0.000 A 
ATOM     32  H   UNL     1      50.754   8.181  13.179  0.00  0.00    +0.000 HD
ENDBRANCH  21  22
BRANCH  21  34
ATOM     33  N   UNL     1      46.800   2.970  17.623  0.00  0.00    +0.000 NA
ATOM     34  C   UNL     1      47.278   3.768  16.771  0.00  0.00    +0.000 C 
ENDBRANCH  21  34
ENDBRANCH   1  21
TORSDOF 7
ENDMDL
MODEL 2
REMARK VINA RESULT:    -8.246      2.280      2.857
REMARK INTER + INTRA:         -12.613
REMARK INTER:                 -11.991
REMARK INTRA:                  -0.622
REMARK UNBOUND:                -0.992
REMARK  Name = 
REMARK  7 active torsions:
REMARK  status: ('A' for Active; 'I' for Inactive)
REMARK    1  A    between atoms: C_2  and  C_3
REMARK    2  A    between atoms: C_3  and  N_4
REMARK    3  A    between atoms: C_3  and  C_21
REMARK    4  A    between atoms: C_5  and  C_7
REMARK    5  A    between atoms: C_10  and  C_11
REMARK    6  A    between atoms: C_11  and  N_12
REMARK    7  A    between atoms: C_13  and  C_15
REMARK                            x       y       z     vdW  Elec       q    Type
REMARK                         _______ _______ _______ _____ _____    ______ ____
ROOT
ATOM      1  N   UNL     1      47.313   4.994  14.940  0.00  0.00    +0.000 N 
ATOM      2  C   UNL     1      46.897   4.231  13.861  0.00  0.00    +0.000 C 
ATOM      3  O   UNL     1      47.222   3.049  13.743  0.00  0.00    +0.000 OA
ATOM      4  H   UNL     1      46.942   5.922  15.075  0.00  0.00    +0.000 HD
ENDROOT
BRANCH   2   5
ATOM      5  C   UNL     1      46.060   4.945  12.799  0.00  0.00    +0.000 C 
ATOM      6  C   UNL     1      46.595   6.310  12.386  0.00  0.00    +0.000 C 
ATOM      7  C   UNL     1      45.391   7.077  11.823  0.00  0.00    +0.000 C 
ATOM      8  C   UNL     1      44.124   6.349  12.312  0.00  0.00    +0.000 C 
ATOM      9  C   UNL     1      44.651   5.296  13.295  0.00  0.00    +0.000 C 
BRANCH   8  10
ATOM     10  C   UNL     1      43.329   5.720  11.153  0.00  0.00    +0.000 C 
BRANCH  10  11
ATOM     11  N   UNL     1      44.167   4.981  10.231  0.00  0.00    +0.000 N 
ATOM     12  C   UNL     1      44.101   3.608  10.157  0.00  0.00    +0.000 C 
ATOM     13  O   UNL     1      43.368   2.942  10.878  0.00  0.00    +0.000 OA
ATOM     14  H   UNL     1      44.675   5.480   9.514  0.00  0.00    +0.000 HD
BRANCH  12  15
ATOM     15  C   UNL     1      44.959   3.005   9.168  0.00  0.00    +0.000 A 
ATOM     16  C   UNL     1      45.645   3.502   8.077  0.00  0.00    +0.000 A 
ATOM     17  C   UNL     1      46.322   2.397   7.530  0.00  0.00    +0.000 A 
ATOM     18  N   UNL     1      46.086   1.273   8.208  0.00  0.00    +0.000 NA
ATOM     19  N   UNL     1      45.266   1.669   9.199  0.00  0.00    +0.000 N 
ATOM     20  H   UNL     1      44.957   0.987   9.885  0.00  0.00    +0.000 HD
ENDBRANCH  12  15
ENDBRANCH  10  11
ENDBRANCH   8  10
ENDBRANCH   2   5
BRANCH   1  21
ATOM     21  C   UNL     1      48.133   4.372  15.992  0.00  0.00    +0.000 C 
BRANCH  21  22
ATOM     22  C   UNL     1      48.874   5.421  16.798  0.00  0.00    +0.000 A 
ATOM     23  C   UNL     1      48.531   6.762  16.934  0.00  0.00    +0.000 A 
ATOM     24  S   UNL     1      49.497   7.596  18.081  0.00  0.00    +0.000 S 
ATOM     25  C   UNL     1      50.412   6.201  18.413  0.00  0.00    +0.000 A 
ATOM     26  N   UNL     1      51.400   6.199  19.350  0.00  0.00    +0.000 NA
ATOM     27  C   UNL     1      51.962   5.048  19.520  0.00  0.00    +0.000 A 
ATOM     28  N   UNL     1      51.653   3.907  18.821  0.00  0.00    +0.000 N 
ATOM     29  C   UNL     1      50.748   3.896  17.790  0.00  0.00    +0.000 A 
ATOM     30  O   UNL     1      50.604   2.927  17.051  0.00  0.00    +0.000 OA
ATOM     31  C   UNL     1      50.015   5.133  17.632  0.00  0.00    +0.000 A 
ATOM     32  H   UNL     1      52.168   3.054  18.972  0.00  0.00    +0.000 HD
ENDBRANCH  21  22
BRANCH  21  34
ATOM     33  N   UNL     1      46.493   2.874  17.664  0.00  0.00    +0.000 NA
ATOM     34  C   UNL     1      47.237   3.553  16.906  0.00  0.00    +0.000 C 
ENDBRANCH  21  34
ENDBRANCH   1  21
TORSDOF 7
ENDMDL
MODEL 3
REMARK VINA RESULT:    -8.161      2.553      3.144
REMARK INTER + INTRA:         -12.493
REMARK INTER:                 -11.472
REMARK INTRA:                  -1.021
REMARK UNBOUND:                -0.992
REMARK  Name = 
REMARK  7 active torsions:
REMARK  status: ('A' for Active; 'I' for Inactive)
REMARK    1  A    between atoms: C_2  and  C_3
REMARK    2  A    between atoms: C_3  and  N_4
REMARK    3  A    between atoms: C_3  and  C_21
REMARK    4  A    between atoms: C_5  and  C_7
REMARK    5  A    between atoms: C_10  and  C_11
REMARK    6  A    between atoms: C_11  and  N_12
REMARK    7  A    between atoms: C_13  and  C_15
REMARK                            x       y       z     vdW  Elec       q    Type
REMARK                         _______ _______ _______ _____ _____    ______ ____
ROOT
ATOM      1  N   UNL     1      47.243   5.007  15.506  0.00  0.00    +0.000 N 
ATOM      2  C   UNL     1      47.089   4.089  14.480  0.00  0.00    +0.000 C 
ATOM      3  O   UNL     1      47.521   2.940  14.571  0.00  0.00    +0.000 OA
ATOM      4  H   UNL     1      46.783   5.903  15.456  0.00  0.00    +0.000 HD
ENDROOT
BRANCH   2   5
ATOM      5  C   UNL     1      46.402   4.592  13.209  0.00  0.00    +0.000 C 
ATOM      6  C   UNL     1      47.080   5.791  12.557  0.00  0.00    +0.000 C 
ATOM      7  C   UNL     1      45.993   6.482  11.723  0.00  0.00    +0.000 C 
ATOM      8  C   UNL     1      44.635   5.964  12.235  0.00  0.00    +0.000 C 
ATOM      9  C   UNL     1      44.991   5.134  13.474  0.00  0.00    +0.000 C 
BRANCH   8  10
ATOM     10  C   UNL     1      43.888   5.138  11.173  0.00  0.00    +0.000 C 
BRANCH  10  11
ATOM     11  N   UNL     1      44.765   4.618  10.144  0.00  0.00    +0.000 N 
ATOM     12  C   UNL     1      44.659   3.314   9.714  0.00  0.00    +0.000 C 
ATOM     13  O   UNL     1      43.854   2.524  10.192  0.00  0.00    +0.000 OA
ATOM     14  H   UNL     1      45.340   5.256   9.613  0.00  0.00    +0.000 HD
BRANCH  12  15
ATOM     15  C   UNL     1      45.566   2.941   8.658  0.00  0.00    +0.000 A 
ATOM     16  C   UNL     1      46.217   3.654   7.670  0.00  0.00    +0.000 A 
ATOM     17  C   UNL     1      46.980   2.703   6.968  0.00  0.00    +0.000 A 
ATOM     18  N   UNL     1      46.828   1.472   7.457  0.00  0.00    +0.000 NA
ATOM     19  N   UNL     1      45.975   1.644   8.484  0.00  0.00    +0.000 N 
ATOM     20  H   UNL     1      45.716   0.841   9.049  0.00  0.00    +0.000 HD
ENDBRANCH  12  15
ENDBRANCH  10  11
ENDBRANCH   8  10
ENDBRANCH   2   5
BRANCH   1  21
ATOM     21  C   UNL     1      47.908   4.593  16.752  0.00  0.00    +0.000 C 
BRANCH  21  22
ATOM     22  C   UNL     1      49.323   5.134  16.823  0.00  0.00    +0.000 A 
ATOM     23  C   UNL     1      49.722   6.448  16.607  0.00  0.00    +0.000 A 
ATOM     24  S   UNL     1      51.378   6.721  16.964  0.00  0.00    +0.000 S 
ATOM     25  C   UNL     1      51.614   5.093  17.396  0.00  0.00    +0.000 A 
ATOM     26  N   UNL     1      52.814   4.639  17.850  0.00  0.00    +0.000 NA
ATOM     27  C   UNL     1      52.813   3.392  18.187  0.00  0.00    +0.000 A 
ATOM     28  N   UNL     1      51.736   2.547  18.084  0.00  0.00    +0.000 N 
ATOM     29  C   UNL     1      50.545   2.935  17.523  0.00  0.00    +0.000 A 
ATOM     30  O   UNL     1      49.647   2.138  17.266  0.00  0.00    +0.000 OA
ATOM     31  C   UNL     1      50.461   4.349  17.230  0.00  0.00    +0.000 A 
ATOM     32  H   UNL     1      51.820   1.570  18.319  0.00  0.00    +0.000 HD
ENDBRANCH  21  22
BRANCH  21  34
ATOM     33  N   UNL     1      46.431   5.509  18.923  0.00  0.00    +0.000 NA
ATOM     34  C   UNL     1      47.101   5.094  17.939  0.00  0.00    +0.000 C 
ENDBRANCH  21  34
ENDBRANCH   1  21
TORSDOF 7
ENDMDL
MODEL 4
REMARK VINA RESULT:    -7.120      2.373      3.085
REMARK INTER + INTRA:         -11.025
REMARK INTER:                  -9.856
REMARK INTRA:                  -1.169
REMARK UNBOUND:                -0.992
REMARK  Name = 
REMARK  7 active torsions:
REMARK  status: ('A' for Active; 'I' for Inactive)
REMARK    1  A    between atoms: C_2  and  C_3
REMARK    2  A    between atoms: C_3  and  N_4
REMARK    3  A    between atoms: C_3  and  C_21
REMARK    4  A    between atoms: C_5  and  C_7
REMARK    5  A    between atoms: C_10  and  C_11
REMARK    6  A    between atoms: C_11  and  N_12
REMARK    7  A    between atoms: C_13  and  C_15
REMARK                            x       y       z     vdW  Elec       q    Type
REMARK                         _______ _______ _______ _____ _____    ______ ____
ROOT
ATOM      1  N   UNL     1      48.068   5.989  15.577  0.00  0.00    +0.000 N 
ATOM      2  C   UNL     1      48.273   6.140  14.216  0.00  0.00    +0.000 C 
ATOM      3  O   UNL     1      49.277   6.698  13.772  0.00  0.00    +0.000 OA
ATOM      4  H   UNL     1      47.298   5.431  15.914  0.00  0.00    +0.000 HD
ENDROOT
BRANCH   2   5
ATOM      5  C   UNL     1      47.164   5.627  13.296  0.00  0.00    +0.000 C 
ATOM      6  C   UNL     1      46.538   6.694  12.405  0.00  0.00    +0.000 C 
ATOM      7  C   UNL     1      45.146   6.166  12.037  0.00  0.00    +0.000 C 
ATOM      8  C   UNL     1      44.806   5.050  13.045  0.00  0.00    +0.000 C 
ATOM      9  C   UNL     1      45.945   5.110  14.071  0.00  0.00    +0.000 C 
BRANCH   8  10
ATOM     10  C   UNL     1      44.698   3.670  12.371  0.00  0.00    +0.000 C 
BRANCH  10  11
ATOM     11  N   UNL     1      45.348   3.621  11.078  0.00  0.00    +0.000 N 
ATOM     12  C   UNL     1      44.813   2.888  10.043  0.00  0.00    +0.000 C 
ATOM     13  O   UNL     1      43.793   2.220  10.164  0.00  0.00    +0.000 OA
ATOM     14  H   UNL     1      46.100   4.264  10.876  0.00  0.00    +0.000 HD
BRANCH  12  15
ATOM     15  C   UNL     1      45.540   2.960   8.800  0.00  0.00    +0.000 A 
ATOM     16  C   UNL     1      46.174   2.016   8.016  0.00  0.00    +0.000 A 
ATOM     17  C   UNL     1      46.677   2.729   6.912  0.00  0.00    +0.000 A 
ATOM     18  N   UNL     1      46.398   4.031   6.981  0.00  0.00    +0.000 NA
ATOM     19  N   UNL     1      45.701   4.144   8.127  0.00  0.00    +0.000 N 
ATOM     20  H   UNL     1      45.342   5.054   8.397  0.00  0.00    +0.000 HD
ENDBRANCH  12  15
ENDBRANCH  10  11
ENDBRANCH   8  10
ENDBRANCH   2   5
BRANCH   1  21
ATOM     21  C   UNL     1      49.089   6.474  16.520  0.00  0.00    +0.000 C 
BRANCH  21  22
ATOM     22  C   UNL     1      48.450   7.063  17.763  0.00  0.00    +0.000 A 
ATOM     23  C   UNL     1      48.246   6.419  18.978  0.00  0.00    +0.000 A 
ATOM     24  S   UNL     1      47.672   7.464  20.211  0.00  0.00    +0.000 S 
ATOM     25  C   UNL     1      47.660   8.799  19.156  0.00  0.00    +0.000 A 
ATOM     26  N   UNL     1      47.308  10.044  19.580  0.00  0.00    +0.000 NA
ATOM     27  C   UNL     1      47.404  10.957  18.671  0.00  0.00    +0.000 A 
ATOM     28  N   UNL     1      47.786  10.739  17.370  0.00  0.00    +0.000 N 
ATOM     29  C   UNL     1      48.034   9.484  16.875  0.00  0.00    +0.000 A 
ATOM     30  O   UNL     1      48.198   9.269  15.678  0.00  0.00    +0.000 OA
ATOM     31  C   UNL     1      48.046   8.442  17.878  0.00  0.00    +0.000 A 
ATOM     32  H   UNL     1      47.790  11.492  16.699  0.00  0.00    +0.000 HD
ENDBRANCH  21  22
BRANCH  21  34
ATOM     33  N   UNL     1      50.758   4.363  17.222  0.00  0.00    +0.000 NA
ATOM     34  C   UNL     1      50.001   5.320  16.904  0.00  0.00    +0.000 C 
ENDBRANCH  21  34
ENDBRANCH   1  21
TORSDOF 7
ENDMDL
MODEL 5
REMARK VINA RESULT:    -7.027      3.628      8.572
REMARK INTER + INTRA:         -10.895
REMARK INTER:                 -10.060
REMARK INTRA:                  -0.835
REMARK UNBOUND:                -0.992
REMARK  Name = 
REMARK  7 active torsions:
REMARK  status: ('A' for Active; 'I' for Inactive)
REMARK    1  A    between atoms: C_2  and  C_3
REMARK    2  A    between atoms: C_3  and  N_4
REMARK    3  A    between atoms: C_3  and  C_21
REMARK    4  A    between atoms: C_5  and  C_7
REMARK    5  A    between atoms: C_10  and  C_11
REMARK    6  A    between atoms: C_11  and  N_12
REMARK    7  A    between atoms: C_13  and  C_15
REMARK                            x       y       z     vdW  Elec       q    Type
REMARK                         _______ _______ _______ _____ _____    ______ ____
ROOT
ATOM      1  N   UNL     1      47.134   6.100  14.254  0.00  0.00    +0.000 N 
ATOM      2  C   UNL     1      48.409   6.176  14.788  0.00  0.00    +0.000 C 
ATOM      3  O   UNL     1      49.360   6.605  14.133  0.00  0.00    +0.000 OA
ATOM      4  H   UNL     1      46.353   5.854  14.842  0.00  0.00    +0.000 HD
ENDROOT
BRANCH   2   5
ATOM      5  C   UNL     1      48.586   5.650  16.214  0.00  0.00    +0.000 C 
ATOM      6  C   UNL     1      47.509   4.673  16.665  0.00  0.00    +0.000 C 
ATOM      7  C   UNL     1      47.506   4.732  18.198  0.00  0.00    +0.000 C 
ATOM      8  C   UNL     1      48.239   6.028  18.600  0.00  0.00    +0.000 C 
ATOM      9  C   UNL     1      48.469   6.757  17.270  0.00  0.00    +0.000 C 
BRANCH   8  10
ATOM     10  C   UNL     1      49.554   5.746  19.348  0.00  0.00    +0.000 C 
BRANCH  10  11
ATOM     11  N   UNL     1      50.099   4.435  19.056  0.00  0.00    +0.000 N 
ATOM     12  C   UNL     1      51.217   4.291  18.267  0.00  0.00    +0.000 C 
ATOM     13  O   UNL     1      51.785   5.244  17.746  0.00  0.00    +0.000 OA
ATOM     14  H   UNL     1      49.766   3.634  19.574  0.00  0.00    +0.000 HD
BRANCH  12  15
ATOM     15  C   UNL     1      51.674   2.936  18.092  0.00  0.00    +0.000 A 
ATOM     16  C   UNL     1      51.236   1.879  17.318  0.00  0.00    +0.000 A 
ATOM     17  C   UNL     1      52.132   0.828  17.585  0.00  0.00    +0.000 A 
ATOM     18  N   UNL     1      53.069   1.174  18.468  0.00  0.00    +0.000 NA
ATOM     19  N   UNL     1      52.777   2.457  18.752  0.00  0.00    +0.000 N 
ATOM     20  H   UNL     1      53.374   2.968  19.394  0.00  0.00    +0.000 HD
ENDBRANCH  12  15
ENDBRANCH  10  11
ENDBRANCH   8  10
ENDBRANCH   2   5
BRANCH   1  21
ATOM     21  C   UNL     1      46.896   6.575  12.881  0.00  0.00    +0.000 C 
BRANCH  21  22
ATOM     22  C   UNL     1      45.476   6.282  12.439  0.00  0.00    +0.000 A 
ATOM     23  C   UNL     1      44.539   7.204  11.986  0.00  0.00    +0.000 A 
ATOM     24  S   UNL     1      43.103   6.476  11.393  0.00  0.00    +0.000 S 
ATOM     25  C   UNL     1      43.680   4.915  11.741  0.00  0.00    +0.000 A 
ATOM     26  N   UNL     1      42.959   3.800  11.440  0.00  0.00    +0.000 NA
ATOM     27  C   UNL     1      43.560   2.691  11.718  0.00  0.00    +0.000 A 
ATOM     28  N   UNL     1      44.801   2.590  12.298  0.00  0.00    +0.000 N 
ATOM     29  C   UNL     1      45.508   3.686  12.723  0.00  0.00    +0.000 A 
ATOM     30  O   UNL     1      46.527   3.590  13.400  0.00  0.00    +0.000 OA
ATOM     31  C   UNL     1      44.926   4.953  12.338  0.00  0.00    +0.000 A 
ATOM     32  H   UNL     1      45.189   1.690  12.534  0.00  0.00    +0.000 HD
ENDBRANCH  21  22
BRANCH  21  34
ATOM     33  N   UNL     1      47.380   9.312  12.764  0.00  0.00    +0.000 NA
ATOM     34  C   UNL     1      47.160   8.071  12.818  0.00  0.00    +0.000 C 
ENDBRANCH  21  34
ENDBRANCH   1  21
TORSDOF 7
ENDMDL
MODEL 6
REMARK VINA RESULT:    -6.753      4.376      5.995
REMARK INTER + INTRA:         -10.509
REMARK INTER:                  -9.712
REMARK INTRA:                  -0.797
REMARK UNBOUND:                -0.992
REMARK  Name = 
REMARK  7 active torsions:
REMARK  status: ('A' for Active; 'I' for Inactive)
REMARK    1  A    between atoms: C_2  and  C_3
REMARK    2  A    between atoms: C_3  and  N_4
REMARK    3  A    between atoms: C_3  and  C_21
REMARK    4  A    between atoms: C_5  and  C_7
REMARK    5  A    between atoms: C_10  and  C_11
REMARK    6  A    between atoms: C_11  and  N_12
REMARK    7  A    between atoms: C_13  and  C_15
REMARK                            x       y       z     vdW  Elec       q    Type
REMARK                         _______ _______ _______ _____ _____    ______ ____
ROOT
ATOM      1  N   UNL     1      47.519   4.899  15.617  0.00  0.00    +0.000 N 
ATOM      2  C   UNL     1      47.046   4.614  14.347  0.00  0.00    +0.000 C 
ATOM      3  O   UNL     1      47.293   3.544  13.791  0.00  0.00    +0.000 OA
ATOM      4  H   UNL     1      47.210   5.731  16.097  0.00  0.00    +0.000 HD
ENDROOT
BRANCH   2   5
ATOM      5  C   UNL     1      46.247   5.717  13.650  0.00  0.00    +0.000 C 
ATOM      6  C   UNL     1      44.990   5.233  12.939  0.00  0.00    +0.000 C 
ATOM      7  C   UNL     1      44.684   6.288  11.868  0.00  0.00    +0.000 C 
ATOM      8  C   UNL     1      45.971   7.113  11.667  0.00  0.00    +0.000 C 
ATOM      9  C   UNL     1      47.025   6.374  12.502  0.00  0.00    +0.000 C 
BRANCH   8  10
ATOM     10  C   UNL     1      45.798   8.578  12.107  0.00  0.00    +0.000 C 
BRANCH  10  11
ATOM     11  N   UNL     1      44.441   9.058  11.949  0.00  0.00    +0.000 N 
ATOM     12  C   UNL     1      44.168  10.184  11.206  0.00  0.00    +0.000 C 
ATOM     13  O   UNL     1      45.046  10.852  10.673  0.00  0.00    +0.000 OA
ATOM     14  H   UNL     1      43.671   8.471  12.236  0.00  0.00    +0.000 HD
BRANCH  12  15
ATOM     15  C   UNL     1      42.772  10.526  11.099  0.00  0.00    +0.000 A 
ATOM     16  C   UNL     1      41.875  10.531  10.048  0.00  0.00    +0.000 A 
ATOM     17  C   UNL     1      40.653  10.948  10.606  0.00  0.00    +0.000 A 
ATOM     18  N   UNL     1      40.754  11.201  11.911  0.00  0.00    +0.000 NA
ATOM     19  N   UNL     1      42.042  10.929  12.187  0.00  0.00    +0.000 N 
ATOM     20  H   UNL     1      42.372  11.019  13.143  0.00  0.00    +0.000 HD
ENDBRANCH  12  15
ENDBRANCH  10  11
ENDBRANCH   8  10
ENDBRANCH   2   5
BRANCH   1  21
ATOM     21  C   UNL     1      48.307   3.887  16.339  0.00  0.00    +0.000 C 
BRANCH  21  22
ATOM     22  C   UNL     1      49.420   4.531  17.142  0.00  0.00    +0.000 A 
ATOM     23  C   UNL     1      49.445   5.832  17.634  0.00  0.00    +0.000 A 
ATOM     24  S   UNL     1      50.784   6.143  18.660  0.00  0.00    +0.000 S 
ATOM     25  C   UNL     1      51.379   4.562  18.462  0.00  0.00    +0.000 A 
ATOM     26  N   UNL     1      52.496   4.129  19.109  0.00  0.00    +0.000 NA
ATOM     27  C   UNL     1      52.783   2.888  18.895  0.00  0.00    +0.000 A 
ATOM     28  N   UNL     1      52.079   2.046  18.069  0.00  0.00    +0.000 N 
ATOM     29  C   UNL     1      51.019   2.474  17.310  0.00  0.00    +0.000 A 
ATOM     30  O   UNL     1      50.507   1.774  16.441  0.00  0.00    +0.000 OA
ATOM     31  C   UNL     1      50.593   3.826  17.596  0.00  0.00    +0.000 A 
ATOM     32  H   UNL     1      52.390   1.101  17.908  0.00  0.00    +0.000 HD
ENDBRANCH  21  22
BRANCH  21  34
ATOM     33  N   UNL     1      46.626   2.453  18.027  0.00  0.00    +0.000 NA
ATOM     34  C   UNL     1      47.388   3.104  17.262  0.00  0.00    +0.000 C 
ENDBRANCH  21  34
ENDBRANCH   1  21
TORSDOF 7
ENDMDL
MODEL 7
REMARK VINA RESULT:    -6.708      2.053      2.397
REMARK INTER + INTRA:         -10.444
REMARK INTER:                  -9.931
REMARK INTRA:                  -0.514
REMARK UNBOUND:                -0.992
REMARK  Name = 
REMARK  7 active torsions:
REMARK  status: ('A' for Active; 'I' for Inactive)
REMARK    1  A    between atoms: C_2  and  C_3
REMARK    2  A    between atoms: C_3  and  N_4
REMARK    3  A    between atoms: C_3  and  C_21
REMARK    4  A    between atoms: C_5  and  C_7
REMARK    5  A    between atoms: C_10  and  C_11
REMARK    6  A    between atoms: C_11  and  N_12
REMARK    7  A    between atoms: C_13  and  C_15
REMARK                            x       y       z     vdW  Elec       q    Type
REMARK                         _______ _______ _______ _____ _____    ______ ____
ROOT
ATOM      1  N   UNL     1      47.497   5.083  15.759  0.00  0.00    +0.000 N 
ATOM      2  C   UNL     1      47.292   4.148  14.758  0.00  0.00    +0.000 C 
ATOM      3  O   UNL     1      47.602   2.965  14.906  0.00  0.00    +0.000 OA
ATOM      4  H   UNL     1      47.133   6.018  15.660  0.00  0.00    +0.000 HD
ENDROOT
BRANCH   2   5
ATOM      5  C   UNL     1      46.711   4.669  13.443  0.00  0.00    +0.000 C 
ATOM      6  C   UNL     1      47.571   5.714  12.743  0.00  0.00    +0.000 C 
ATOM      7  C   UNL     1      46.615   6.506  11.842  0.00  0.00    +0.000 C 
ATOM      8  C   UNL     1      45.186   6.226  12.345  0.00  0.00    +0.000 C 
ATOM      9  C   UNL     1      45.392   5.428  13.639  0.00  0.00    +0.000 C 
BRANCH   8  10
ATOM     10  C   UNL     1      44.344   5.456  11.312  0.00  0.00    +0.000 C 
BRANCH  10  11
ATOM     11  N   UNL     1      45.150   4.809  10.297  0.00  0.00    +0.000 N 
ATOM     12  C   UNL     1      44.770   3.604   9.751  0.00  0.00    +0.000 C 
ATOM     13  O   UNL     1      43.763   3.005  10.109  0.00  0.00    +0.000 OA
ATOM     14  H   UNL     1      45.902   5.322   9.860  0.00  0.00    +0.000 HD
BRANCH  12  15
ATOM     15  C   UNL     1      45.642   3.093   8.724  0.00  0.00    +0.000 A 
ATOM     16  C   UNL     1      46.036   1.820   8.360  0.00  0.00    +0.000 A 
ATOM     17  C   UNL     1      46.888   1.997   7.255  0.00  0.00    +0.000 A 
ATOM     18  N   UNL     1      47.040   3.282   6.935  0.00  0.00    +0.000 NA
ATOM     19  N   UNL     1      46.270   3.924   7.831  0.00  0.00    +0.000 N 
ATOM     20  H   UNL     1      46.192   4.935   7.781  0.00  0.00    +0.000 HD
ENDBRANCH  12  15
ENDBRANCH  10  11
ENDBRANCH   8  10
ENDBRANCH   2   5
BRANCH   1  21
ATOM     21  C   UNL     1      48.066   4.651  17.046  0.00  0.00    +0.000 C 
BRANCH  21  22
ATOM     22  C   UNL     1      49.543   4.986  17.131  0.00  0.00    +0.000 A 
ATOM     23  C   UNL     1      50.549   4.179  17.652  0.00  0.00    +0.000 A 
ATOM     24  S   UNL     1      52.124   4.813  17.402  0.00  0.00    +0.000 S 
ATOM     25  C   UNL     1      51.508   6.188  16.612  0.00  0.00    +0.000 A 
ATOM     26  N   UNL     1      52.328   7.143  16.091  0.00  0.00    +0.000 NA
ATOM     27  C   UNL     1      51.707   8.094  15.476  0.00  0.00    +0.000 A 
ATOM     28  N   UNL     1      50.342   8.200  15.360  0.00  0.00    +0.000 N 
ATOM     29  C   UNL     1      49.480   7.324  15.970  0.00  0.00    +0.000 A 
ATOM     30  O   UNL     1      48.269   7.518  16.018  0.00  0.00    +0.000 OA
ATOM     31  C   UNL     1      50.127   6.182  16.579  0.00  0.00    +0.000 A 
ATOM     32  H   UNL     1      49.922   8.997  14.909  0.00  0.00    +0.000 HD
ENDBRANCH  21  22
BRANCH  21  34
ATOM     33  N   UNL     1      46.692   5.899  19.117  0.00  0.00    +0.000 NA
ATOM     34  C   UNL     1      47.315   5.333  18.178  0.00  0.00    +0.000 C 
ENDBRANCH  21  34
ENDBRANCH   1  21
TORSDOF 7
ENDMDL
MODEL 8
REMARK VINA RESULT:    -6.644      2.700      8.368
REMARK INTER + INTRA:         -10.355
REMARK INTER:                  -9.227
REMARK INTRA:                  -1.128
REMARK UNBOUND:                -0.992
REMARK  Name = 
REMARK  7 active torsions:
REMARK  status: ('A' for Active; 'I' for Inactive)
REMARK    1  A    between atoms: C_2  and  C_3
REMARK    2  A    between atoms: C_3  and  N_4
REMARK    3  A    between atoms: C_3  and  C_21
REMARK    4  A    between atoms: C_5  and  C_7
REMARK    5  A    between atoms: C_10  and  C_11
REMARK    6  A    between atoms: C_11  and  N_12
REMARK    7  A    between atoms: C_13  and  C_15
REMARK                            x       y       z     vdW  Elec       q    Type
REMARK                         _______ _______ _______ _____ _____    ______ ____
ROOT
ATOM      1  N   UNL     1      46.572   7.660  12.875  0.00  0.00    +0.000 N 
ATOM      2  C   UNL     1      47.925   7.939  12.775  0.00  0.00    +0.000 C 
ATOM      3  O   UNL     1      48.531   7.822  11.710  0.00  0.00    +0.000 OA
ATOM      4  H   UNL     1      46.074   7.872  13.726  0.00  0.00    +0.000 HD
ENDROOT
BRANCH   2   5
ATOM      5  C   UNL     1      48.637   8.349  14.065  0.00  0.00    +0.000 C 
ATOM      6  C   UNL     1      48.925   9.840  14.181  0.00  0.00    +0.000 C 
ATOM      7  C   UNL     1      50.096   9.964  15.165  0.00  0.00    +0.000 C 
ATOM      8  C   UNL     1      50.752   8.572  15.261  0.00  0.00    +0.000 C 
ATOM      9  C   UNL     1      50.043   7.746  14.180  0.00  0.00    +0.000 C 
BRANCH   8  10
ATOM     10  C   UNL     1      50.602   7.953  16.662  0.00  0.00    +0.000 C 
BRANCH  10  11
ATOM     11  N   UNL     1      49.903   6.685  16.647  0.00  0.00    +0.000 N 
ATOM     12  C   UNL     1      48.759   6.496  17.388  0.00  0.00    +0.000 C 
ATOM     13  O   UNL     1      48.293   7.364  18.117  0.00  0.00    +0.000 OA
ATOM     14  H   UNL     1      50.152   5.990  15.957  0.00  0.00    +0.000 HD
BRANCH  12  15
ATOM     15  C   UNL     1      48.144   5.200  17.248  0.00  0.00    +0.000 A 
ATOM     16  C   UNL     1      48.081   4.087  18.063  0.00  0.00    +0.000 A 
ATOM     17  C   UNL     1      47.306   3.151  17.354  0.00  0.00    +0.000 A 
ATOM     18  N   UNL     1      46.907   3.619  16.171  0.00  0.00    +0.000 NA
ATOM     19  N   UNL     1      47.418   4.863  16.135  0.00  0.00    +0.000 N 
ATOM     20  H   UNL     1      47.227   5.451  15.330  0.00  0.00    +0.000 HD
ENDBRANCH  12  15
ENDBRANCH  10  11
ENDBRANCH   8  10
ENDBRANCH   2   5
BRANCH   1  21
ATOM     21  C   UNL     1      45.828   7.247  11.674  0.00  0.00    +0.000 C 
BRANCH  21  22
ATOM     22  C   UNL     1      45.201   5.879  11.863  0.00  0.00    +0.000 A 
ATOM     23  C   UNL     1      44.599   5.393  13.018  0.00  0.00    +0.000 A 
ATOM     24  S   UNL     1      43.831   3.875  12.796  0.00  0.00    +0.000 S 
ATOM     25  C   UNL     1      44.298   3.813  11.161  0.00  0.00    +0.000 A 
ATOM     26  N   UNL     1      43.929   2.784  10.349  0.00  0.00    +0.000 NA
ATOM     27  C   UNL     1      44.318   2.913   9.124  0.00  0.00    +0.000 A 
ATOM     28  N   UNL     1      45.067   3.957   8.639  0.00  0.00    +0.000 N 
ATOM     29  C   UNL     1      45.556   4.952   9.448  0.00  0.00    +0.000 A 
ATOM     30  O   UNL     1      46.370   5.781   9.053  0.00  0.00    +0.000 OA
ATOM     31  C   UNL     1      45.060   4.909  10.806  0.00  0.00    +0.000 A 
ATOM     32  H   UNL     1      45.378   3.969   7.680  0.00  0.00    +0.000 HD
ENDBRANCH  21  22
BRANCH  21  34
ATOM     33  N   UNL     1      43.853   9.127  11.128  0.00  0.00    +0.000 NA
ATOM     34  C   UNL     1      44.749   8.275  11.376  0.00  0.00    +0.000 C 
ENDBRANCH  21  34
ENDBRANCH   1  21
TORSDOF 7
ENDMDL
MODEL 9
REMARK VINA RESULT:    -6.457      2.913      4.400
REMARK INTER + INTRA:         -10.091
REMARK INTER:                  -8.908
REMARK INTRA:                  -1.182
REMARK UNBOUND:                -0.992
REMARK  Name = 
REMARK  7 active torsions:
REMARK  status: ('A' for Active; 'I' for Inactive)
REMARK    1  A    between atoms: C_2  and  C_3
REMARK    2  A    between atoms: C_3  and  N_4
REMARK    3  A    between atoms: C_3  and  C_21
REMARK    4  A    between atoms: C_5  and  C_7
REMARK    5  A    between atoms: C_10  and  C_11
REMARK    6  A    between atoms: C_11  and  N_12
REMARK    7  A    between atoms: C_13  and  C_15
REMARK                            x       y       z     vdW  Elec       q    Type
REMARK                         _______ _______ _______ _____ _____    ______ ____
ROOT
ATOM      1  N   UNL     1      48.436   6.430  16.229  0.00  0.00    +0.000 N 
ATOM      2  C   UNL     1      49.012   6.811  15.028  0.00  0.00    +0.000 C 
ATOM      3  O   UNL     1      50.221   7.027  14.931  0.00  0.00    +0.000 OA
ATOM      4  H   UNL     1      47.468   6.148  16.258  0.00  0.00    +0.000 HD
ENDROOT
BRANCH   2   5
ATOM      5  C   UNL     1      48.064   7.001  13.844  0.00  0.00    +0.000 C 
ATOM      6  C   UNL     1      48.757   7.138  12.495  0.00  0.00    +0.000 C 
ATOM      7  C   UNL     1      47.766   7.882  11.589  0.00  0.00    +0.000 C 
ATOM      8  C   UNL     1      46.726   8.548  12.511  0.00  0.00    +0.000 C 
ATOM      9  C   UNL     1      47.272   8.313  13.926  0.00  0.00    +0.000 C 
BRANCH   8  10
ATOM     10  C   UNL     1      45.318   7.957  12.323  0.00  0.00    +0.000 C 
BRANCH  10  11
ATOM     11  N   UNL     1      45.238   7.031  11.212  0.00  0.00    +0.000 N 
ATOM     12  C   UNL     1      45.178   5.672  11.424  0.00  0.00    +0.000 C 
ATOM     13  O   UNL     1      45.220   5.175  12.543  0.00  0.00    +0.000 OA
ATOM     14  H   UNL     1      45.050   7.384  10.285  0.00  0.00    +0.000 HD
BRANCH  12  15
ATOM     15  C   UNL     1      45.061   4.870  10.233  0.00  0.00    +0.000 A 
ATOM     16  C   UNL     1      44.332   3.739   9.918  0.00  0.00    +0.000 A 
ATOM     17  C   UNL     1      44.643   3.459   8.575  0.00  0.00    +0.000 A 
ATOM     18  N   UNL     1      45.511   4.333   8.064  0.00  0.00    +0.000 NA
ATOM     19  N   UNL     1      45.740   5.182   9.083  0.00  0.00    +0.000 N 
ATOM     20  H   UNL     1      46.360   5.972   8.936  0.00  0.00    +0.000 HD
ENDBRANCH  12  15
ENDBRANCH  10  11
ENDBRANCH   8  10
ENDBRANCH   2   5
BRANCH   1  21
ATOM     21  C   UNL     1      49.290   6.242  17.413  0.00  0.00    +0.000 C 
BRANCH  21  22
ATOM     22  C   UNL     1      48.503   6.446  18.693  0.00  0.00    +0.000 A 
ATOM     23  C   UNL     1      48.204   5.480  19.648  0.00  0.00    +0.000 A 
ATOM     24  S   UNL     1      47.462   6.124  21.054  0.00  0.00    +0.000 S 
ATOM     25  C   UNL     1      47.500   7.703  20.422  0.00  0.00    +0.000 A 
ATOM     26  N   UNL     1      47.053   8.771  21.138  0.00  0.00    +0.000 NA
ATOM     27  C   UNL     1      47.200   9.906  20.539  0.00  0.00    +0.000 A 
ATOM     28  N   UNL     1      47.723  10.072  19.280  0.00  0.00    +0.000 N 
ATOM     29  C   UNL     1      48.075   9.013  18.482  0.00  0.00    +0.000 A 
ATOM     30  O   UNL     1      48.369   9.150  17.298  0.00  0.00    +0.000 OA
ATOM     31  C   UNL     1      48.029   7.729  19.147  0.00  0.00    +0.000 A 
ATOM     32  H   UNL     1      47.762  10.985  18.852  0.00  0.00    +0.000 HD
ENDBRANCH  21  22
BRANCH  21  34
ATOM     33  N   UNL     1      50.374   3.681  17.364  0.00  0.00    +0.000 NA
ATOM     34  C   UNL     1      49.882   4.842  17.385  0.00  0.00    +0.000 C 
ENDBRANCH  21  34
ENDBRANCH   1  21
TORSDOF 7
ENDMDL
