MODEL 1
REMARK VINA RESULT:    -7.426      0.000      0.000
REMARK INTER + INTRA:         -10.594
REMARK INTER:                  -9.814
REMARK INTRA:                  -0.780
REMARK UNBOUND:                -0.780
REMARK  Name = 
REMARK  6 active torsions:
REMARK  status: ('A' for Active; 'I' for Inactive)
REMARK    1  A    between atoms: C_2  and  C_18
REMARK    2  A    between atoms: N_3  and  C_4
REMARK    3  A    between atoms: C_4  and  C_5
REMARK    4  A    between atoms: C_8  and  C_9
REMARK    5  A    between atoms: C_9  and  N_10
REMARK    6  A    between atoms: C_13  and  O_14
REMARK                            x       y       z     vdW  Elec       q    Type
REMARK                         _______ _______ _______ _____ _____    ______ ____
ROOT
ATOM      1  O   UNL     1      48.148   7.035  12.814  0.00  0.00    +0.000 OA
ATOM      2  C   UNL     1      47.563   6.646  13.821  0.00  0.00    +0.000 C 
ATOM      3  N   UNL     1      46.204   6.479  13.862  0.00  0.00    +0.000 N 
ATOM      4  H   UNL     1      45.752   6.294  14.751  0.00  0.00    +0.000 HD
ENDROOT
BRANCH   2   5
ATOM      5  C   UNL     1      48.302   6.301  15.044  0.00  0.00    +0.000 A 
ATOM      6  C   UNL     1      49.264   7.174  15.536  0.00  0.00    +0.000 A 
ATOM      7  S   UNL     1      49.994   6.641  16.983  0.00  0.00    +0.000 S 
ATOM      8  C   UNL     1      49.024   5.244  17.022  0.00  0.00    +0.000 A 
ATOM      9  N   UNL     1      49.110   4.360  18.052  0.00  0.00    +0.000 NA
ATOM     10  C   UNL     1      48.290   3.368  17.975  0.00  0.00    +0.000 A 
ATOM     11  N   UNL     1      47.405   3.164  16.946  0.00  0.00    +0.000 N 
ATOM     12  C   UNL     1      47.348   3.980  15.841  0.00  0.00    +0.000 A 
ATOM     13  O   UNL     1      46.666   3.683  14.865  0.00  0.00    +0.000 OA
ATOM     14  C   UNL     1      48.193   5.157  15.917  0.00  0.00    +0.000 A 
ATOM     15  H   UNL     1      46.825   2.338  16.921  0.00  0.00    +0.000 HD
ENDBRANCH   2   5
BRANCH   3  16
ATOM     16  C   UNL     1      45.345   6.850  12.766  0.00  0.00    +0.000 C 
BRANCH  16  17
ATOM     17  C   UNL     1      45.313   5.794  11.702  0.00  0.00    +0.000 A 
ATOM     18  C   UNL     1      44.882   4.495  11.983  0.00  0.00    +0.000 A 
ATOM     19  C   UNL     1      44.841   3.542  10.968  0.00  0.00    +0.000 A 
ATOM     20  C   UNL     1      45.259   3.899   9.691  0.00  0.00    +0.000 A 
ATOM     21  N   UNL     1      45.708   5.148   9.397  0.00  0.00    +0.000 NA
ATOM     22  C   UNL     1      45.728   6.058  10.400  0.00  0.00    +0.000 A 
BRANCH  20  23
ATOM     23  C   UNL     1      45.235   2.878   8.564  0.00  0.00    +0.000 C 
BRANCH  23  24
ATOM     24  N   UNL     1      46.470   2.807   7.750  0.00  0.00    +0.000 NA
ATOM     25  C   UNL     1      46.307   3.557   6.494  0.00  0.00    +0.000 C 
ATOM     26  C   UNL     1      46.826   2.681   5.359  0.00  0.00    +0.000 C 
ATOM     27  C   UNL     1      47.512   1.516   6.043  0.00  0.00    +0.000 C 
ATOM     28  C   UNL     1      46.800   1.413   7.390  0.00  0.00    +0.000 C 
BRANCH  27  29
ATOM     29  O   UNL     1      48.900   1.801   6.206  0.00  0.00    +0.000 OA
ATOM     30  H   UNL     1      49.024   2.018   7.147  0.00  0.00    +0.000 HD
ENDBRANCH  27  29
ENDBRANCH  23  24
ENDBRANCH  20  23
ENDBRANCH  16  17
ENDBRANCH   3  16
TORSDOF 6
ENDMDL
MODEL 2
REMARK VINA RESULT:    -7.115      4.199      9.194
REMARK INTER + INTRA:         -10.182
REMARK INTER:                  -9.535
REMARK INTRA:                  -0.648
REMARK UNBOUND:                -0.780
REMARK  Name = 
REMARK  6 active torsions:
REMARK  status: ('A' for Active; 'I' for Inactive)
REMARK    1  A    between atoms: C_2  and  C_18
REMARK    2  A    between atoms: N_3  and  C_4
REMARK    3  A    between atoms: C_4  and  C_5
REMARK    4  A    between atoms: C_8  and  C_9
REMARK    5  A    between atoms: C_9  and  N_10
REMARK    6  A    between atoms: C_13  and  O_14
REMARK                            x       y       z     vdW  Elec       q    Type
REMARK                         _______ _______ _______ _____ _____    ______ ____
ROOT
ATOM      1  O   UNL     1      47.165   3.062  14.047  0.00  0.00    +0.000 OA
ATOM      2  C   UNL     1      46.773   4.125  14.520  0.00  0.00    +0.000 C 
ATOM      3  N   UNL     1      46.779   4.374  15.867  0.00  0.00    +0.000 N 
ATOM      4  H   UNL     1      46.317   5.205  16.221  0.00  0.00    +0.000 HD
ENDROOT
BRANCH   2   5
ATOM      5  C   UNL     1      46.302   5.215  13.654  0.00  0.00    +0.000 A 
ATOM      6  C   UNL     1      47.139   6.289  13.382  0.00  0.00    +0.000 A 
ATOM      7  S   UNL     1      46.453   7.441  12.328  0.00  0.00    +0.000 S 
ATOM      8  C   UNL     1      45.027   6.527  12.169  0.00  0.00    +0.000 A 
ATOM      9  N   UNL     1      44.022   6.932  11.347  0.00  0.00    +0.000 NA
ATOM     10  C   UNL     1      43.019   6.125  11.290  0.00  0.00    +0.000 A 
ATOM     11  N   UNL     1      42.915   4.956  12.002  0.00  0.00    +0.000 N 
ATOM     12  C   UNL     1      43.864   4.552  12.912  0.00  0.00    +0.000 A 
ATOM     13  O   UNL     1      43.670   3.592  13.650  0.00  0.00    +0.000 OA
ATOM     14  C   UNL     1      45.051   5.385  12.952  0.00  0.00    +0.000 A 
ATOM     15  H   UNL     1      42.079   4.393  11.950  0.00  0.00    +0.000 HD
ENDBRANCH   2   5
BRANCH   3  16
ATOM     16  C   UNL     1      47.141   3.373  16.839  0.00  0.00    +0.000 C 
BRANCH  16  17
ATOM     17  C   UNL     1      48.615   3.375  17.116  0.00  0.00    +0.000 A 
ATOM     18  C   UNL     1      49.242   4.483  17.692  0.00  0.00    +0.000 A 
ATOM     19  C   UNL     1      50.609   4.445  17.959  0.00  0.00    +0.000 A 
ATOM     20  C   UNL     1      51.331   3.306  17.621  0.00  0.00    +0.000 A 
ATOM     21  N   UNL     1      50.749   2.225  17.036  0.00  0.00    +0.000 NA
ATOM     22  C   UNL     1      49.418   2.284  16.797  0.00  0.00    +0.000 A 
BRANCH  20  23
ATOM     23  C   UNL     1      52.825   3.238  17.892  0.00  0.00    +0.000 C 
BRANCH  23  24
ATOM     24  N   UNL     1      53.269   2.084  18.706  0.00  0.00    +0.000 NA
ATOM     25  C   UNL     1      54.247   2.509  19.721  0.00  0.00    +0.000 C 
ATOM     26  C   UNL     1      55.409   1.523  19.689  0.00  0.00    +0.000 C 
ATOM     27  C   UNL     1      54.941   0.392  18.796  0.00  0.00    +0.000 C 
ATOM     28  C   UNL     1      53.921   1.054  17.872  0.00  0.00    +0.000 C 
BRANCH  27  29
ATOM     29  O   UNL     1      54.342  -0.631  19.588  0.00  0.00    +0.000 OA
ATOM     30  H   UNL     1      53.381  -0.476  19.552  0.00  0.00    +0.000 HD
ENDBRANCH  27  29
ENDBRANCH  23  24
ENDBRANCH  20  23
ENDBRANCH  16  17
ENDBRANCH   3  16
TORSDOF 6
ENDMDL
MODEL 3
REMARK VINA RESULT:    -6.870      4.135      5.891
REMARK INTER + INTRA:          -9.858
REMARK INTER:                  -8.912
REMARK INTRA:                  -0.946
REMARK UNBOUND:                -0.780
REMARK  Name = 
REMARK  6 active torsions:
REMARK  status: ('A' for Active; 'I' for Inactive)
REMARK    1  A    between atoms: C_2  and  C_18
REMARK    2  A    between atoms: N_3  and  C_4
REMARK    3  A    between atoms: C_4  and  C_5
REMARK    4  A    between atoms: C_8  and  C_9
REMARK    5  A    between atoms: C_9  and  N_10
REMARK    6  A    between atoms: C_13  and  O_14
REMARK                            x       y       z     vdW  Elec       q    Type
REMARK                         _______ _______ _______ _____ _____    ______ ____
ROOT
ATOM      1  O   UNL     1      51.700   6.188  16.612  0.00  0.00    +0.000 OA
ATOM      2  C   UNL     1      51.387   5.290  17.390  0.00  0.00    +0.000 C 
ATOM      3  N   UNL     1      50.103   5.122  17.836  0.00  0.00    +0.000 N 
ATOM      4  H   UNL     1      49.918   4.460  18.583  0.00  0.00    +0.000 HD
ENDROOT
BRANCH   2   5
ATOM      5  C   UNL     1      52.378   4.315  17.864  0.00  0.00    +0.000 A 
ATOM      6  C   UNL     1      53.552   4.760  18.458  0.00  0.00    +0.000 A 
ATOM      7  S   UNL     1      54.571   3.499  18.989  0.00  0.00    +0.000 S 
ATOM      8  C   UNL     1      53.462   2.315  18.478  0.00  0.00    +0.000 A 
ATOM      9  N   UNL     1      53.702   0.992  18.687  0.00  0.00    +0.000 NA
ATOM     10  C   UNL     1      52.761   0.208  18.286  0.00  0.00    +0.000 A 
ATOM     11  N   UNL     1      51.607   0.623  17.670  0.00  0.00    +0.000 N 
ATOM     12  C   UNL     1      51.363   1.939  17.357  0.00  0.00    +0.000 A 
ATOM     13  O   UNL     1      50.403   2.261  16.664  0.00  0.00    +0.000 OA
ATOM     14  C   UNL     1      52.354   2.871  17.860  0.00  0.00    +0.000 A 
ATOM     15  H   UNL     1      50.932  -0.048  17.335  0.00  0.00    +0.000 HD
ENDBRANCH   2   5
BRANCH   3  16
ATOM     16  C   UNL     1      49.044   6.046  17.516  0.00  0.00    +0.000 C 
BRANCH  16  17
ATOM     17  C   UNL     1      48.281   5.618  16.299  0.00  0.00    +0.000 A 
ATOM     18  C   UNL     1      48.282   6.391  15.135  0.00  0.00    +0.000 A 
ATOM     19  C   UNL     1      47.582   5.955  14.012  0.00  0.00    +0.000 A 
ATOM     20  C   UNL     1      46.869   4.763  14.082  0.00  0.00    +0.000 A 
ATOM     21  N   UNL     1      46.830   4.006  15.211  0.00  0.00    +0.000 NA
ATOM     22  C   UNL     1      47.527   4.448  16.285  0.00  0.00    +0.000 A 
BRANCH  20  23
ATOM     23  C   UNL     1      46.087   4.266  12.877  0.00  0.00    +0.000 C 
BRANCH  23  24
ATOM     24  N   UNL     1      44.712   4.800  12.752  0.00  0.00    +0.000 NA
ATOM     25  C   UNL     1      43.753   3.711  12.506  0.00  0.00    +0.000 C 
ATOM     26  C   UNL     1      42.841   4.143  11.363  0.00  0.00    +0.000 C 
ATOM     27  C   UNL     1      43.159   5.608  11.139  0.00  0.00    +0.000 C 
ATOM     28  C   UNL     1      44.600   5.747  11.623  0.00  0.00    +0.000 C 
BRANCH  27  29
ATOM     29  O   UNL     1      42.270   6.417  11.904  0.00  0.00    +0.000 OA
ATOM     30  H   UNL     1      41.739   6.921  11.261  0.00  0.00    +0.000 HD
ENDBRANCH  27  29
ENDBRANCH  23  24
ENDBRANCH  20  23
ENDBRANCH  16  17
ENDBRANCH   3  16
TORSDOF 6
ENDMDL
MODEL 4
REMARK VINA RESULT:    -6.838      3.324      4.059
REMARK INTER + INTRA:          -9.816
REMARK INTER:                  -9.041
REMARK INTRA:                  -0.775
REMARK UNBOUND:                -0.780
REMARK  Name = 
REMARK  6 active torsions:
REMARK  status: ('A' for Active; 'I' for Inactive)
REMARK    1  A    between atoms: C_2  and  C_18
REMARK    2  A    between atoms: N_3  and  C_4
REMARK    3  A    between atoms: C_4  and  C_5
REMARK    4  A    between atoms: C_8  and  C_9
REMARK    5  A    between atoms: C_9  and  N_10
REMARK    6  A    between atoms: C_13  and  O_14
REMARK                            x       y       z     vdW  Elec       q    Type
REMARK                         _______ _______ _______ _____ _____    ______ ____
ROOT
ATOM      1  O   UNL     1      48.321   8.547  15.783  0.00  0.00    +0.000 OA
ATOM      2  C   UNL     1      48.800   7.470  15.440  0.00  0.00    +0.000 C 
ATOM      3  N   UNL     1      49.028   7.154  14.126  0.00  0.00    +0.000 N 
ATOM      4  H   UNL     1      49.291   6.205  13.881  0.00  0.00    +0.000 HD
ENDROOT
BRANCH   2   5
ATOM      5  C   UNL     1      49.192   6.461  16.434  0.00  0.00    +0.000 A 
ATOM      6  C   UNL     1      50.256   6.715  17.289  0.00  0.00    +0.000 A 
ATOM      7  S   UNL     1      50.550   5.460  18.407  0.00  0.00    +0.000 S 
ATOM      8  C   UNL     1      49.242   4.550  17.811  0.00  0.00    +0.000 A 
ATOM      9  N   UNL     1      48.901   3.360  18.375  0.00  0.00    +0.000 NA
ATOM     10  C   UNL     1      47.867   2.797  17.851  0.00  0.00    +0.000 A 
ATOM     11  N   UNL     1      47.152   3.303  16.794  0.00  0.00    +0.000 N 
ATOM     12  C   UNL     1      47.514   4.454  16.135  0.00  0.00    +0.000 A 
ATOM     13  O   UNL     1      46.957   4.795  15.097  0.00  0.00    +0.000 OA
ATOM     14  C   UNL     1      48.623   5.169  16.738  0.00  0.00    +0.000 A 
ATOM     15  H   UNL     1      46.381   2.786  16.399  0.00  0.00    +0.000 HD
ENDBRANCH   2   5
BRANCH   3  16
ATOM     16  C   UNL     1      48.624   8.013  13.042  0.00  0.00    +0.000 C 
BRANCH  16  17
ATOM     17  C   UNL     1      47.281   7.627  12.498  0.00  0.00    +0.000 A 
ATOM     18  C   UNL     1      47.153   6.640  11.517  0.00  0.00    +0.000 A 
ATOM     19  C   UNL     1      45.890   6.287  11.048  0.00  0.00    +0.000 A 
ATOM     20  C   UNL     1      44.774   6.947  11.552  0.00  0.00    +0.000 A 
ATOM     21  N   UNL     1      44.873   7.929  12.487  0.00  0.00    +0.000 NA
ATOM     22  C   UNL     1      46.113   8.246  12.932  0.00  0.00    +0.000 A 
BRANCH  20  23
ATOM     23  C   UNL     1      43.383   6.591  11.052  0.00  0.00    +0.000 C 
BRANCH  23  24
ATOM     24  N   UNL     1      42.923   5.224  11.388  0.00  0.00    +0.000 NA
ATOM     25  C   UNL     1      42.997   4.993  12.839  0.00  0.00    +0.000 C 
ATOM     26  C   UNL     1      43.654   3.634  13.060  0.00  0.00    +0.000 C 
ATOM     27  C   UNL     1      43.723   3.002  11.685  0.00  0.00    +0.000 C 
ATOM     28  C   UNL     1      43.761   4.197  10.735  0.00  0.00    +0.000 C 
BRANCH  27  29
ATOM     29  O   UNL     1      42.568   2.196  11.466  0.00  0.00    +0.000 OA
ATOM     30  H   UNL     1      41.966   2.375  12.211  0.00  0.00    +0.000 HD
ENDBRANCH  27  29
ENDBRANCH  23  24
ENDBRANCH  20  23
ENDBRANCH  16  17
ENDBRANCH   3  16
TORSDOF 6
ENDMDL
MODEL 5
REMARK VINA RESULT:    -6.636      3.673      8.756
REMARK INTER + INTRA:          -9.550
REMARK INTER:                  -8.736
REMARK INTRA:                  -0.814
REMARK UNBOUND:                -0.780
REMARK  Name = 
REMARK  6 active torsions:
REMARK  status: ('A' for Active; 'I' for Inactive)
REMARK    1  A    between atoms: C_2  and  C_18
REMARK    2  A    between atoms: N_3  and  C_4
REMARK    3  A    between atoms: C_4  and  C_5
REMARK    4  A    between atoms: C_8  and  C_9
REMARK    5  A    between atoms: C_9  and  N_10
REMARK    6  A    between atoms: C_13  and  O_14
REMARK                            x       y       z     vdW  Elec       q    Type
REMARK                         _______ _______ _______ _____ _____    ______ ____
ROOT
ATOM      1  O   UNL     1      45.503   7.928  11.736  0.00  0.00    +0.000 OA
ATOM      2  C   UNL     1      46.167   6.919  11.515  0.00  0.00    +0.000 C 
ATOM      3  N   UNL     1      47.478   6.806  11.899  0.00  0.00    +0.000 N 
ATOM      4  H   UNL     1      48.025   6.016  11.572  0.00  0.00    +0.000 HD
ENDROOT
BRANCH   2   5
ATOM      5  C   UNL     1      45.576   5.750  10.850  0.00  0.00    +0.000 A 
ATOM      6  C   UNL     1      45.830   5.524   9.503  0.00  0.00    +0.000 A 
ATOM      7  S   UNL     1      45.104   4.103   8.900  0.00  0.00    +0.000 S 
ATOM      8  C   UNL     1      44.456   3.721  10.426  0.00  0.00    +0.000 A 
ATOM      9  N   UNL     1      43.749   2.575  10.621  0.00  0.00    +0.000 NA
ATOM     10  C   UNL     1      43.352   2.392  11.834  0.00  0.00    +0.000 A 
ATOM     11  N   UNL     1      43.575   3.264  12.869  0.00  0.00    +0.000 N 
ATOM     12  C   UNL     1      44.204   4.475  12.700  0.00  0.00    +0.000 A 
ATOM     13  O   UNL     1      44.245   5.303  13.604  0.00  0.00    +0.000 OA
ATOM     14  C   UNL     1      44.743   4.692  11.371  0.00  0.00    +0.000 A 
ATOM     15  H   UNL     1      43.192   3.084  13.786  0.00  0.00    +0.000 HD
ENDBRANCH   2   5
BRANCH   3  16
ATOM     16  C   UNL     1      48.209   7.898  12.491  0.00  0.00    +0.000 C 
BRANCH  16  17
ATOM     17  C   UNL     1      48.476   7.664  13.948  0.00  0.00    +0.000 A 
ATOM     18  C   UNL     1      48.272   6.409  14.529  0.00  0.00    +0.000 A 
ATOM     19  C   UNL     1      48.551   6.217  15.880  0.00  0.00    +0.000 A 
ATOM     20  C   UNL     1      49.006   7.293  16.635  0.00  0.00    +0.000 A 
ATOM     21  N   UNL     1      49.187   8.530  16.099  0.00  0.00    +0.000 NA
ATOM     22  C   UNL     1      48.917   8.686  14.781  0.00  0.00    +0.000 A 
BRANCH  20  23
ATOM     23  C   UNL     1      49.310   7.117  18.114  0.00  0.00    +0.000 C 
BRANCH  23  24
ATOM     24  N   UNL     1      48.686   5.934  18.750  0.00  0.00    +0.000 NA
ATOM     25  C   UNL     1      47.634   6.347  19.693  0.00  0.00    +0.000 C 
ATOM     26  C   UNL     1      47.833   5.561  20.985  0.00  0.00    +0.000 C 
ATOM     27  C   UNL     1      48.879   4.516  20.652  0.00  0.00    +0.000 C 
ATOM     28  C   UNL     1      49.677   5.147  19.514  0.00  0.00    +0.000 C 
BRANCH  27  29
ATOM     29  O   UNL     1      48.241   3.310  20.239  0.00  0.00    +0.000 OA
ATOM     30  H   UNL     1      48.513   2.626  20.877  0.00  0.00    +0.000 HD
ENDBRANCH  27  29
ENDBRANCH  23  24
ENDBRANCH  20  23
ENDBRANCH  16  17
ENDBRANCH   3  16
TORSDOF 6
ENDMDL
MODEL 6
REMARK VINA RESULT:    -6.627      3.970      8.158
REMARK INTER + INTRA:          -9.538
REMARK INTER:                  -8.606
REMARK INTRA:                  -0.932
REMARK UNBOUND:                -0.780
REMARK  Name = 
REMARK  6 active torsions:
REMARK  status: ('A' for Active; 'I' for Inactive)
REMARK    1  A    between atoms: C_2  and  C_18
REMARK    2  A    between atoms: N_3  and  C_4
REMARK    3  A    between atoms: C_4  and  C_5
REMARK    4  A    between atoms: C_8  and  C_9
REMARK    5  A    between atoms: C_9  and  N_10
REMARK    6  A    between atoms: C_13  and  O_14
REMARK                            x       y       z     vdW  Elec       q    Type
REMARK                         _______ _______ _______ _____ _____    ______ ____
ROOT
ATOM      1  O   UNL     1      47.915   7.427  11.859  0.00  0.00    +0.000 OA
ATOM      2  C   UNL     1      47.062   7.121  12.688  0.00  0.00    +0.000 C 
ATOM      3  N   UNL     1      47.248   7.306  14.033  0.00  0.00    +0.000 N 
ATOM      4  H   UNL     1      46.579   6.911  14.686  0.00  0.00    +0.000 HD
ENDROOT
BRANCH   2   5
ATOM      5  C   UNL     1      45.767   6.563  12.276  0.00  0.00    +0.000 A 
ATOM      6  C   UNL     1      44.824   7.386  11.673  0.00  0.00    +0.000 A 
ATOM      7  S   UNL     1      43.396   6.571  11.220  0.00  0.00    +0.000 S 
ATOM      8  C   UNL     1      44.002   5.084  11.779  0.00  0.00    +0.000 A 
ATOM      9  N   UNL     1      43.283   3.937  11.640  0.00  0.00    +0.000 NA
ATOM     10  C   UNL     1      43.878   2.878  12.070  0.00  0.00    +0.000 A 
ATOM     11  N   UNL     1      45.122   2.861  12.650  0.00  0.00    +0.000 N 
ATOM     12  C   UNL     1      45.845   4.005  12.893  0.00  0.00    +0.000 A 
ATOM     13  O   UNL     1      46.876   3.977  13.557  0.00  0.00    +0.000 OA
ATOM     14  C   UNL     1      45.255   5.216  12.354  0.00  0.00    +0.000 A 
ATOM     15  H   UNL     1      45.510   2.002  13.012  0.00  0.00    +0.000 HD
ENDBRANCH   2   5
BRANCH   3  16
ATOM     16  C   UNL     1      48.494   7.770  14.587  0.00  0.00    +0.000 C 
BRANCH  16  17
ATOM     17  C   UNL     1      49.080   6.779  15.547  0.00  0.00    +0.000 A 
ATOM     18  C   UNL     1      48.276   5.843  16.202  0.00  0.00    +0.000 A 
ATOM     19  C   UNL     1      48.852   4.920  17.071  0.00  0.00    +0.000 A 
ATOM     20  C   UNL     1      50.225   4.966  17.290  0.00  0.00    +0.000 A 
ATOM     21  N   UNL     1      51.026   5.883  16.686  0.00  0.00    +0.000 NA
ATOM     22  C   UNL     1      50.441   6.763  15.839  0.00  0.00    +0.000 A 
BRANCH  20  23
ATOM     23  C   UNL     1      50.882   3.978  18.241  0.00  0.00    +0.000 C 
BRANCH  23  24
ATOM     24  N   UNL     1      51.853   3.050  17.616  0.00  0.00    +0.000 NA
ATOM     25  C   UNL     1      51.217   1.757  17.316  0.00  0.00    +0.000 C 
ATOM     26  C   UNL     1      52.152   0.655  17.801  0.00  0.00    +0.000 C 
ATOM     27  C   UNL     1      53.443   1.364  18.160  0.00  0.00    +0.000 C 
ATOM     28  C   UNL     1      52.995   2.780  18.513  0.00  0.00    +0.000 C 
BRANCH  27  29
ATOM     29  O   UNL     1      54.323   1.358  17.039  0.00  0.00    +0.000 OA
ATOM     30  H   UNL     1      53.991   2.040  16.428  0.00  0.00    +0.000 HD
ENDBRANCH  27  29
ENDBRANCH  23  24
ENDBRANCH  20  23
ENDBRANCH  16  17
ENDBRANCH   3  16
TORSDOF 6
ENDMDL
MODEL 7
REMARK VINA RESULT:    -6.570      2.183      3.059
REMARK INTER + INTRA:          -9.462
REMARK INTER:                  -8.633
REMARK INTRA:                  -0.829
REMARK UNBOUND:                -0.780
REMARK  Name = 
REMARK  6 active torsions:
REMARK  status: ('A' for Active; 'I' for Inactive)
REMARK    1  A    between atoms: C_2  and  C_18
REMARK    2  A    between atoms: N_3  and  C_4
REMARK    3  A    between atoms: C_4  and  C_5
REMARK    4  A    between atoms: C_8  and  C_9
REMARK    5  A    between atoms: C_9  and  N_10
REMARK    6  A    between atoms: C_13  and  O_14
REMARK                            x       y       z     vdW  Elec       q    Type
REMARK                         _______ _______ _______ _____ _____    ______ ____
ROOT
ATOM      1  O   UNL     1      50.157   7.917  14.953  0.00  0.00    +0.000 OA
ATOM      2  C   UNL     1      49.208   7.982  15.730  0.00  0.00    +0.000 C 
ATOM      3  N   UNL     1      47.960   8.383  15.331  0.00  0.00    +0.000 N 
ATOM      4  H   UNL     1      47.246   8.557  16.032  0.00  0.00    +0.000 HD
ENDROOT
BRANCH   2   5
ATOM      5  C   UNL     1      49.352   7.597  17.141  0.00  0.00    +0.000 A 
ATOM      6  C   UNL     1      49.755   8.543  18.075  0.00  0.00    +0.000 A 
ATOM      7  S   UNL     1      49.830   7.941  19.669  0.00  0.00    +0.000 S 
ATOM      8  C   UNL     1      49.292   6.405  19.172  0.00  0.00    +0.000 A 
ATOM      9  N   UNL     1      49.084   5.409  20.076  0.00  0.00    +0.000 NA
ATOM     10  C   UNL     1      48.638   4.312  19.567  0.00  0.00    +0.000 A 
ATOM     11  N   UNL     1      48.402   4.108  18.231  0.00  0.00    +0.000 N 
ATOM     12  C   UNL     1      48.682   5.054  17.273  0.00  0.00    +0.000 A 
ATOM     13  O   UNL     1      48.616   4.789  16.078  0.00  0.00    +0.000 OA
ATOM     14  C   UNL     1      49.109   6.336  17.801  0.00  0.00    +0.000 A 
ATOM     15  H   UNL     1      48.099   3.207  17.892  0.00  0.00    +0.000 HD
ENDBRANCH   2   5
BRANCH   3  16
ATOM     16  C   UNL     1      47.689   8.862  14.000  0.00  0.00    +0.000 C 
BRANCH  16  17
ATOM     17  C   UNL     1      46.843   7.898  13.223  0.00  0.00    +0.000 A 
ATOM     18  C   UNL     1      47.220   6.561  13.075  0.00  0.00    +0.000 A 
ATOM     19  C   UNL     1      46.402   5.683  12.367  0.00  0.00    +0.000 A 
ATOM     20  C   UNL     1      45.230   6.167  11.795  0.00  0.00    +0.000 A 
ATOM     21  N   UNL     1      44.854   7.469  11.901  0.00  0.00    +0.000 NA
ATOM     22  C   UNL     1      45.663   8.298  12.603  0.00  0.00    +0.000 A 
BRANCH  20  23
ATOM     23  C   UNL     1      44.321   5.236  11.008  0.00  0.00    +0.000 C 
BRANCH  23  24
ATOM     24  N   UNL     1      45.011   4.145  10.282  0.00  0.00    +0.000 NA
ATOM     25  C   UNL     1      45.345   4.563   8.911  0.00  0.00    +0.000 C 
ATOM     26  C   UNL     1      44.933   3.438   7.968  0.00  0.00    +0.000 C 
ATOM     27  C   UNL     1      44.582   2.275   8.873  0.00  0.00    +0.000 C 
ATOM     28  C   UNL     1      44.158   2.943  10.179  0.00  0.00    +0.000 C 
BRANCH  27  29
ATOM     29  O   UNL     1      45.726   1.445   9.058  0.00  0.00    +0.000 OA
ATOM     30  H   UNL     1      45.389   0.543   9.201  0.00  0.00    +0.000 HD
ENDBRANCH  27  29
ENDBRANCH  23  24
ENDBRANCH  20  23
ENDBRANCH  16  17
ENDBRANCH   3  16
TORSDOF 6
ENDMDL
MODEL 8
REMARK VINA RESULT:    -6.495      2.601      3.565
REMARK INTER + INTRA:          -9.363
REMARK INTER:                  -9.011
REMARK INTRA:                  -0.352
REMARK UNBOUND:                -0.780
REMARK  Name = 
REMARK  6 active torsions:
REMARK  status: ('A' for Active; 'I' for Inactive)
REMARK    1  A    between atoms: C_2  and  C_18
REMARK    2  A    between atoms: N_3  and  C_4
REMARK    3  A    between atoms: C_4  and  C_5
REMARK    4  A    between atoms: C_8  and  C_9
REMARK    5  A    between atoms: C_9  and  N_10
REMARK    6  A    between atoms: C_13  and  O_14
REMARK                            x       y       z     vdW  Elec       q    Type
REMARK                         _______ _______ _______ _____ _____    ______ ____
ROOT
ATOM      1  O   UNL     1      50.170   6.627  15.566  0.00  0.00    +0.000 OA
ATOM      2  C   UNL     1      49.036   6.346  15.942  0.00  0.00    +0.000 C 
ATOM      3  N   UNL     1      47.962   6.337  15.092  0.00  0.00    +0.000 N 
ATOM      4  H   UNL     1      47.026   6.238  15.472  0.00  0.00    +0.000 HD
ENDROOT
BRANCH   2   5
ATOM      5  C   UNL     1      48.770   5.964  17.336  0.00  0.00    +0.000 A 
ATOM      6  C   UNL     1      48.990   4.655  17.745  0.00  0.00    +0.000 A 
ATOM      7  S   UNL     1      48.673   4.394  19.401  0.00  0.00    +0.000 S 
ATOM      8  C   UNL     1      48.267   6.029  19.637  0.00  0.00    +0.000 A 
ATOM      9  N   UNL     1      47.940   6.499  20.871  0.00  0.00    +0.000 NA
ATOM     10  C   UNL     1      47.695   7.764  20.914  0.00  0.00    +0.000 A 
ATOM     11  N   UNL     1      47.721   8.602  19.828  0.00  0.00    +0.000 N 
ATOM     12  C   UNL     1      47.955   8.155  18.549  0.00  0.00    +0.000 A 
ATOM     13  O   UNL     1      47.812   8.894  17.580  0.00  0.00    +0.000 OA
ATOM     14  C   UNL     1      48.319   6.753  18.458  0.00  0.00    +0.000 A 
ATOM     15  H   UNL     1      47.469   9.575  19.921  0.00  0.00    +0.000 HD
ENDBRANCH   2   5
BRANCH   3  16
ATOM     16  C   UNL     1      48.058   6.763  13.718  0.00  0.00    +0.000 C 
BRANCH  16  17
ATOM     17  C   UNL     1      46.932   6.223  12.888  0.00  0.00    +0.000 A 
ATOM     18  C   UNL     1      46.254   7.033  11.974  0.00  0.00    +0.000 A 
ATOM     19  C   UNL     1      45.227   6.497  11.200  0.00  0.00    +0.000 A 
ATOM     20  C   UNL     1      44.879   5.162  11.374  0.00  0.00    +0.000 A 
ATOM     21  N   UNL     1      45.505   4.359  12.275  0.00  0.00    +0.000 NA
ATOM     22  C   UNL     1      46.506   4.904  13.007  0.00  0.00    +0.000 A 
BRANCH  20  23
ATOM     23  C   UNL     1      43.756   4.550  10.551  0.00  0.00    +0.000 C 
BRANCH  23  24
ATOM     24  N   UNL     1      44.177   3.915   9.281  0.00  0.00    +0.000 NA
ATOM     25  C   UNL     1      44.341   2.462   9.457  0.00  0.00    +0.000 C 
ATOM     26  C   UNL     1      45.665   2.063   8.814  0.00  0.00    +0.000 C 
ATOM     27  C   UNL     1      46.121   3.294   8.057  0.00  0.00    +0.000 C 
ATOM     28  C   UNL     1      45.472   4.450   8.813  0.00  0.00    +0.000 C 
BRANCH  27  29
ATOM     29  O   UNL     1      45.662   3.228   6.708  0.00  0.00    +0.000 OA
ATOM     30  H   UNL     1      45.120   4.024   6.566  0.00  0.00    +0.000 HD
ENDBRANCH  27  29
ENDBRANCH  23  24
ENDBRANCH  20  23
ENDBRANCH  16  17
ENDBRANCH   3  16
TORSDOF 6
ENDMDL
MODEL 9
REMARK VINA RESULT:    -6.490      4.379      7.306
REMARK INTER + INTRA:          -9.357
REMARK INTER:                  -8.560
REMARK INTRA:                  -0.797
REMARK UNBOUND:                -0.780
REMARK  Name = 
REMARK  6 active torsions:
REMARK  status: ('A' for Active; 'I' for Inactive)
REMARK    1  A    between atoms: C_2  and  C_18
REMARK    2  A    between atoms: N_3  and  C_4
REMARK    3  A    between atoms: C_4  and  C_5
REMARK    4  A    between atoms: C_8  and  C_9
REMARK    5  A    between atoms: C_9  and  N_10
REMARK    6  A    between atoms: C_13  and  O_14
REMARK                            x       y       z     vdW  Elec       q    Type
REMARK                         _______ _______ _______ _____ _____    ______ ____
ROOT
ATOM      1  O   UNL     1      44.457   7.630  11.023  0.00  0.00    +0.000 OA
ATOM      2  C   UNL     1      44.893   6.726  11.732  0.00  0.00    +0.000 C 
ATOM      3  N   UNL     1      45.708   6.965  12.807  0.00  0.00    +0.000 N 
ATOM      4  H   UNL     1      46.156   6.184  13.275  0.00  0.00    +0.000 HD
ENDROOT
BRANCH   2   5
ATOM      5  C   UNL     1      44.531   5.323  11.483  0.00  0.00    +0.000 A 
ATOM      6  C   UNL     1      43.795   4.624  12.431  0.00  0.00    +0.000 A 
ATOM      7  S   UNL     1      43.426   3.025  11.966  0.00  0.00    +0.000 S 
ATOM      8  C   UNL     1      44.205   3.223  10.467  0.00  0.00    +0.000 A 
ATOM      9  N   UNL     1      44.212   2.224   9.544  0.00  0.00    +0.000 NA
ATOM     10  C   UNL     1      44.803   2.524   8.437  0.00  0.00    +0.000 A 
ATOM     11  N   UNL     1      45.410   3.726   8.176  0.00  0.00    +0.000 N 
ATOM     12  C   UNL     1      45.506   4.730   9.110  0.00  0.00    +0.000 A 
ATOM     13  O   UNL     1      46.193   5.725   8.907  0.00  0.00    +0.000 OA
ATOM     14  C   UNL     1      44.786   4.474  10.344  0.00  0.00    +0.000 A 
ATOM     15  H   UNL     1      45.899   3.878   7.306  0.00  0.00    +0.000 HD
ENDBRANCH   2   5
BRANCH   3  16
ATOM     16  C   UNL     1      46.206   8.280  13.124  0.00  0.00    +0.000 C 
BRANCH  16  17
ATOM     17  C   UNL     1      47.591   8.494  12.591  0.00  0.00    +0.000 A 
ATOM     18  C   UNL     1      47.912   9.631  11.846  0.00  0.00    +0.000 A 
ATOM     19  C   UNL     1      49.214   9.814  11.384  0.00  0.00    +0.000 A 
ATOM     20  C   UNL     1      50.168   8.838  11.654  0.00  0.00    +0.000 A 
ATOM     21  N   UNL     1      49.875   7.710  12.354  0.00  0.00    +0.000 NA
ATOM     22  C   UNL     1      48.604   7.563  12.800  0.00  0.00    +0.000 A 
BRANCH  20  23
ATOM     23  C   UNL     1      51.595   9.004  11.155  0.00  0.00    +0.000 C 
BRANCH  23  24
ATOM     24  N   UNL     1      52.406   7.765  11.141  0.00  0.00    +0.000 NA
ATOM     25  C   UNL     1      53.832   8.076  11.336  0.00  0.00    +0.000 C 
ATOM     26  C   UNL     1      54.625   7.295  10.294  0.00  0.00    +0.000 C 
ATOM     27  C   UNL     1      53.624   6.346   9.667  0.00  0.00    +0.000 C 
ATOM     28  C   UNL     1      52.284   7.055   9.851  0.00  0.00    +0.000 C 
BRANCH  27  29
ATOM     29  O   UNL     1      53.651   5.095  10.352  0.00  0.00    +0.000 OA
ATOM     30  H   UNL     1      54.347   4.565   9.923  0.00  0.00    +0.000 HD
ENDBRANCH  27  29
ENDBRANCH  23  24
ENDBRANCH  20  23
ENDBRANCH  16  17
ENDBRANCH   3  16
TORSDOF 6
ENDMDL
