MODEL 1
REMARK VINA RESULT:    -7.697      0.000      0.000
REMARK INTER + INTRA:         -12.435
REMARK INTER:                 -11.297
REMARK INTRA:                  -1.138
REMARK UNBOUND:                -1.138
REMARK  Name = 
REMARK  9 active torsions:
REMARK  status: ('A' for Active; 'I' for Inactive)
REMARK    1  A    between atoms: C_1  and  O_2
REMARK    2  A    between atoms: O_2  and  C_3
REMARK    3  A    between atoms: C_10  and  C_11
REMARK    4  A    between atoms: N_13  and  C_14
REMARK    5  A    between atoms: C_14  and  C_15
REMARK    6  A    between atoms: C_18  and  C_19
REMARK    7  A    between atoms: C_19  and  S_20
REMARK    8  A    between atoms: S_20  and  C_21
REMARK    9  A    between atoms: C_21  and  C_22
REMARK                            x       y       z     vdW  Elec       q    Type
REMARK                         _______ _______ _______ _____ _____    ______ ____
ROOT
ATOM      1  C   UNL     1      48.937   7.143  13.590  0.00  0.00    +0.000 C 
ENDROOT
BRANCH   1   2
ATOM      2  C   UNL     1      47.725   6.427  13.052  0.00  0.00    +0.000 A 
ATOM      3  C   UNL     1      47.164   6.797  11.824  0.00  0.00    +0.000 A 
ATOM      4  C   UNL     1      46.033   6.138  11.331  0.00  0.00    +0.000 A 
ATOM      5  C   UNL     1      45.443   5.089  12.051  0.00  0.00    +0.000 A 
ATOM      6  C   UNL     1      45.984   4.748  13.299  0.00  0.00    +0.000 A 
ATOM      7  C   UNL     1      47.109   5.412  13.796  0.00  0.00    +0.000 A 
BRANCH   5   8
ATOM      8  C   UNL     1      44.222   4.367  11.533  0.00  0.00    +0.000 C 
BRANCH   8   9
ATOM      9  S   UNL     1      44.135   4.216   9.725  0.00  0.00    +0.000 S 
BRANCH   9  10
ATOM     10  C   UNL     1      44.663   2.474   9.520  0.00  0.00    +0.000 C 
BRANCH  10  11
ATOM     11  C   UNL     1      45.652   2.313   8.383  0.00  0.00    +0.000 A 
ATOM     12  C   UNL     1      45.905   3.372   7.509  0.00  0.00    +0.000 A 
ATOM     13  C   UNL     1      46.803   3.188   6.461  0.00  0.00    +0.000 A 
ATOM     14  C   UNL     1      47.440   1.963   6.320  0.00  0.00    +0.000 A 
ATOM     15  C   UNL     1      47.152   0.969   7.239  0.00  0.00    +0.000 A 
ATOM     16  N   UNL     1      46.281   1.115   8.263  0.00  0.00    +0.000 NA
ENDBRANCH  10  11
ENDBRANCH   9  10
ENDBRANCH   8   9
ENDBRANCH   5   8
ENDBRANCH   1   2
BRANCH   1  19
ATOM     17  C   UNL     1      50.171   7.192  15.714  0.00  0.00    +0.000 C 
ATOM     18  O   UNL     1      51.228   7.405  15.126  0.00  0.00    +0.000 OA
ATOM     19  N   UNL     1      48.997   7.048  15.026  0.00  0.00    +0.000 N 
ATOM     20  H   UNL     1      48.142   6.830  15.518  0.00  0.00    +0.000 HD
BRANCH  17  28
ATOM     21  C   UNL     1      48.977   4.779  17.863  0.00  0.00    +0.000 A 
ATOM     22  N   UNL     1      48.620   4.009  18.912  0.00  0.00    +0.000 NA
ATOM     23  C   UNL     1      48.863   4.471  20.141  0.00  0.00    +0.000 A 
ATOM     24  N   UNL     1      49.425   5.632  20.465  0.00  0.00    +0.000 NA
ATOM     25  C   UNL     1      49.773   6.364  19.393  0.00  0.00    +0.000 A 
ATOM     26  S   UNL     1      50.500   7.881  19.618  0.00  0.00    +0.000 S 
ATOM     27  C   UNL     1      50.617   8.128  17.942  0.00  0.00    +0.000 A 
ATOM     28  C   UNL     1      50.118   7.077  17.181  0.00  0.00    +0.000 A 
ATOM     29  C   UNL     1      49.603   6.024  18.054  0.00  0.00    +0.000 A 
BRANCH  21  31
ATOM     30  C   UNL     1      48.020   3.066  16.588  0.00  0.00    +0.000 C 
ATOM     31  O   UNL     1      48.750   4.291  16.594  0.00  0.00    +0.000 OA
ENDBRANCH  21  31
ENDBRANCH  17  28
ENDBRANCH   1  19
TORSDOF 8
ENDMDL
MODEL 2
REMARK VINA RESULT:    -7.487      1.913      2.763
REMARK INTER + INTRA:         -12.127
REMARK INTER:                 -11.001
REMARK INTRA:                  -1.126
REMARK UNBOUND:                -1.138
REMARK  Name = 
REMARK  9 active torsions:
REMARK  status: ('A' for Active; 'I' for Inactive)
REMARK    1  A    between atoms: C_1  and  O_2
REMARK    2  A    between atoms: O_2  and  C_3
REMARK    3  A    between atoms: C_10  and  C_11
REMARK    4  A    between atoms: N_13  and  C_14
REMARK    5  A    between atoms: C_14  and  C_15
REMARK    6  A    between atoms: C_18  and  C_19
REMARK    7  A    between atoms: C_19  and  S_20
REMARK    8  A    between atoms: S_20  and  C_21
REMARK    9  A    between atoms: C_21  and  C_22
REMARK                            x       y       z     vdW  Elec       q    Type
REMARK                         _______ _______ _______ _____ _____    ______ ____
ROOT
ATOM      1  C   UNL     1      48.466   6.373  14.287  0.00  0.00    +0.000 C 
ENDROOT
BRANCH   1   2
ATOM      2  C   UNL     1      47.254   5.910  13.520  0.00  0.00    +0.000 A 
ATOM      3  C   UNL     1      46.466   4.855  13.997  0.00  0.00    +0.000 A 
ATOM      4  C   UNL     1      45.348   4.421  13.279  0.00  0.00    +0.000 A 
ATOM      5  C   UNL     1      44.987   5.036  12.071  0.00  0.00    +0.000 A 
ATOM      6  C   UNL     1      45.801   6.065  11.577  0.00  0.00    +0.000 A 
ATOM      7  C   UNL     1      46.923   6.494  12.290  0.00  0.00    +0.000 A 
BRANCH   5   8
ATOM      8  C   UNL     1      43.783   4.579  11.284  0.00  0.00    +0.000 C 
BRANCH   8   9
ATOM      9  S   UNL     1      44.089   4.301   9.514  0.00  0.00    +0.000 S 
BRANCH   9  10
ATOM     10  C   UNL     1      44.805   2.616   9.571  0.00  0.00    +0.000 C 
BRANCH  10  11
ATOM     11  C   UNL     1      45.731   2.356   8.399  0.00  0.00    +0.000 A 
ATOM     12  C   UNL     1      46.020   3.372   7.486  0.00  0.00    +0.000 A 
ATOM     13  C   UNL     1      46.857   3.097   6.408  0.00  0.00    +0.000 A 
ATOM     14  C   UNL     1      47.399   1.826   6.275  0.00  0.00    +0.000 A 
ATOM     15  C   UNL     1      47.082   0.880   7.233  0.00  0.00    +0.000 A 
ATOM     16  N   UNL     1      46.268   1.114   8.288  0.00  0.00    +0.000 NA
ENDBRANCH  10  11
ENDBRANCH   9  10
ENDBRANCH   8   9
ENDBRANCH   5   8
ENDBRANCH   1   2
BRANCH   1  19
ATOM     17  C   UNL     1      49.105   6.052  16.637  0.00  0.00    +0.000 C 
ATOM     18  O   UNL     1      50.209   5.624  16.306  0.00  0.00    +0.000 OA
ATOM     19  N   UNL     1      48.188   6.439  15.699  0.00  0.00    +0.000 N 
ATOM     20  H   UNL     1      47.269   6.748  15.982  0.00  0.00    +0.000 HD
BRANCH  17  28
ATOM     21  C   UNL     1      47.843   8.618  18.558  0.00  0.00    +0.000 A 
ATOM     22  N   UNL     1      47.337   9.418  19.518  0.00  0.00    +0.000 NA
ATOM     23  C   UNL     1      47.179   8.907  20.742  0.00  0.00    +0.000 A 
ATOM     24  N   UNL     1      47.472   7.672  21.139  0.00  0.00    +0.000 NA
ATOM     25  C   UNL     1      47.965   6.906  20.150  0.00  0.00    +0.000 A 
ATOM     26  S   UNL     1      48.400   5.298  20.478  0.00  0.00    +0.000 S 
ATOM     27  C   UNL     1      48.879   5.048  18.868  0.00  0.00    +0.000 A 
ATOM     28  C   UNL     1      48.718   6.163  18.052  0.00  0.00    +0.000 A 
ATOM     29  C   UNL     1      48.178   7.279  18.827  0.00  0.00    +0.000 A 
BRANCH  21  31
ATOM     30  C   UNL     1      49.037  10.093  17.188  0.00  0.00    +0.000 C 
ATOM     31  O   UNL     1      47.983   9.139  17.289  0.00  0.00    +0.000 OA
ENDBRANCH  21  31
ENDBRANCH  17  28
ENDBRANCH   1  19
TORSDOF 8
ENDMDL
MODEL 3
REMARK VINA RESULT:    -7.331      2.247      2.757
REMARK INTER + INTRA:         -11.898
REMARK INTER:                 -10.887
REMARK INTRA:                  -1.011
REMARK UNBOUND:                -1.138
REMARK  Name = 
REMARK  9 active torsions:
REMARK  status: ('A' for Active; 'I' for Inactive)
REMARK    1  A    between atoms: C_1  and  O_2
REMARK    2  A    between atoms: O_2  and  C_3
REMARK    3  A    between atoms: C_10  and  C_11
REMARK    4  A    between atoms: N_13  and  C_14
REMARK    5  A    between atoms: C_14  and  C_15
REMARK    6  A    between atoms: C_18  and  C_19
REMARK    7  A    between atoms: C_19  and  S_20
REMARK    8  A    between atoms: S_20  and  C_21
REMARK    9  A    between atoms: C_21  and  C_22
REMARK                            x       y       z     vdW  Elec       q    Type
REMARK                         _______ _______ _______ _____ _____    ______ ____
ROOT
ATOM      1  C   UNL     1      49.014   7.638  15.736  0.00  0.00    +0.000 C 
ENDROOT
BRANCH   1   2
ATOM      2  C   UNL     1      48.236   7.173  14.532  0.00  0.00    +0.000 A 
ATOM      3  C   UNL     1      48.092   7.999  13.410  0.00  0.00    +0.000 A 
ATOM      4  C   UNL     1      47.362   7.569  12.298  0.00  0.00    +0.000 A 
ATOM      5  C   UNL     1      46.766   6.299  12.278  0.00  0.00    +0.000 A 
ATOM      6  C   UNL     1      46.880   5.491  13.418  0.00  0.00    +0.000 A 
ATOM      7  C   UNL     1      47.602   5.923  14.533  0.00  0.00    +0.000 A 
BRANCH   5   8
ATOM      8  C   UNL     1      45.975   5.819  11.085  0.00  0.00    +0.000 C 
BRANCH   8   9
ATOM      9  S   UNL     1      44.945   4.355  11.392  0.00  0.00    +0.000 S 
BRANCH   9  10
ATOM     10  C   UNL     1      44.229   4.108   9.725  0.00  0.00    +0.000 C 
BRANCH  10  11
ATOM     11  C   UNL     1      45.196   3.407   8.792  0.00  0.00    +0.000 A 
ATOM     12  C   UNL     1      45.419   2.033   8.904  0.00  0.00    +0.000 A 
ATOM     13  C   UNL     1      46.329   1.421   8.048  0.00  0.00    +0.000 A 
ATOM     14  C   UNL     1      46.981   2.185   7.090  0.00  0.00    +0.000 A 
ATOM     15  C   UNL     1      46.691   3.536   7.027  0.00  0.00    +0.000 A 
ATOM     16  N   UNL     1      45.817   4.162   7.849  0.00  0.00    +0.000 NA
ENDBRANCH  10  11
ENDBRANCH   9  10
ENDBRANCH   8   9
ENDBRANCH   5   8
ENDBRANCH   1   2
BRANCH   1  19
ATOM     17  C   UNL     1      50.010   6.138  17.406  0.00  0.00    +0.000 C 
ATOM     18  O   UNL     1      49.206   6.508  18.258  0.00  0.00    +0.000 OA
ATOM     19  N   UNL     1      49.982   6.651  16.138  0.00  0.00    +0.000 N 
ATOM     20  H   UNL     1      50.676   6.370  15.460  0.00  0.00    +0.000 HD
BRANCH  17  28
ATOM     21  C   UNL     1      50.166   2.716  17.043  0.00  0.00    +0.000 A 
ATOM     22  N   UNL     1      50.501   1.410  16.997  0.00  0.00    +0.000 NA
ATOM     23  C   UNL     1      51.708   1.055  17.446  0.00  0.00    +0.000 A 
ATOM     24  N   UNL     1      52.642   1.855  17.951  0.00  0.00    +0.000 NA
ATOM     25  C   UNL     1      52.272   3.147  17.971  0.00  0.00    +0.000 A 
ATOM     26  S   UNL     1      53.341   4.313  18.589  0.00  0.00    +0.000 S 
ATOM     27  C   UNL     1      52.232   5.562  18.284  0.00  0.00    +0.000 A 
ATOM     28  C   UNL     1      51.041   5.132  17.710  0.00  0.00    +0.000 A 
ATOM     29  C   UNL     1      51.064   3.681  17.532  0.00  0.00    +0.000 A 
BRANCH  21  31
ATOM     30  C   UNL     1      47.898   3.015  17.537  0.00  0.00    +0.000 C 
ATOM     31  O   UNL     1      48.930   3.085  16.555  0.00  0.00    +0.000 OA
ENDBRANCH  21  31
ENDBRANCH  17  28
ENDBRANCH   1  19
TORSDOF 8
ENDMDL
MODEL 4
REMARK VINA RESULT:    -7.314      2.018      2.343
REMARK INTER + INTRA:         -11.873
REMARK INTER:                 -10.762
REMARK INTRA:                  -1.111
REMARK UNBOUND:                -1.138
REMARK  Name = 
REMARK  9 active torsions:
REMARK  status: ('A' for Active; 'I' for Inactive)
REMARK    1  A    between atoms: C_1  and  O_2
REMARK    2  A    between atoms: O_2  and  C_3
REMARK    3  A    between atoms: C_10  and  C_11
REMARK    4  A    between atoms: N_13  and  C_14
REMARK    5  A    between atoms: C_14  and  C_15
REMARK    6  A    between atoms: C_18  and  C_19
REMARK    7  A    between atoms: C_19  and  S_20
REMARK    8  A    between atoms: S_20  and  C_21
REMARK    9  A    between atoms: C_21  and  C_22
REMARK                            x       y       z     vdW  Elec       q    Type
REMARK                         _______ _______ _______ _____ _____    ______ ____
ROOT
ATOM      1  C   UNL     1      47.727   8.371  13.719  0.00  0.00    +0.000 C 
ENDROOT
BRANCH   1   2
ATOM      2  C   UNL     1      47.020   7.133  13.233  0.00  0.00    +0.000 A 
ATOM      3  C   UNL     1      47.220   5.900  13.866  0.00  0.00    +0.000 A 
ATOM      4  C   UNL     1      46.569   4.751  13.407  0.00  0.00    +0.000 A 
ATOM      5  C   UNL     1      45.698   4.808  12.310  0.00  0.00    +0.000 A 
ATOM      6  C   UNL     1      45.531   6.036  11.654  0.00  0.00    +0.000 A 
ATOM      7  C   UNL     1      46.187   7.184  12.107  0.00  0.00    +0.000 A 
BRANCH   5   8
ATOM      8  C   UNL     1      44.988   3.576  11.802  0.00  0.00    +0.000 C 
BRANCH   8   9
ATOM      9  S   UNL     1      44.177   3.774  10.188  0.00  0.00    +0.000 S 
BRANCH   9  10
ATOM     10  C   UNL     1      44.535   2.139   9.444  0.00  0.00    +0.000 C 
BRANCH  10  11
ATOM     11  C   UNL     1      45.610   2.225   8.379  0.00  0.00    +0.000 A 
ATOM     12  C   UNL     1      45.812   3.411   7.671  0.00  0.00    +0.000 A 
ATOM     13  C   UNL     1      46.792   3.453   6.684  0.00  0.00    +0.000 A 
ATOM     14  C   UNL     1      47.559   2.323   6.438  0.00  0.00    +0.000 A 
ATOM     15  C   UNL     1      47.313   1.192   7.196  0.00  0.00    +0.000 A 
ATOM     16  N   UNL     1      46.364   1.117   8.158  0.00  0.00    +0.000 NA
ENDBRANCH  10  11
ENDBRANCH   9  10
ENDBRANCH   8   9
ENDBRANCH   5   8
ENDBRANCH   1   2
BRANCH   1  19
ATOM     17  C   UNL     1      48.375   9.303  15.897  0.00  0.00    +0.000 C 
ATOM     18  O   UNL     1      49.373   9.827  15.407  0.00  0.00    +0.000 OA
ATOM     19  N   UNL     1      47.516   8.566  15.130  0.00  0.00    +0.000 N 
ATOM     20  H   UNL     1      46.724   8.103  15.554  0.00  0.00    +0.000 HD
BRANCH  17  28
ATOM     21  C   UNL     1      48.025   7.043  18.473  0.00  0.00    +0.000 A 
ATOM     22  N   UNL     1      47.854   6.398  19.646  0.00  0.00    +0.000 NA
ATOM     23  C   UNL     1      47.573   7.128  20.729  0.00  0.00    +0.000 A 
ATOM     24  N   UNL     1      47.435   8.449  20.791  0.00  0.00    +0.000 NA
ATOM     25  C   UNL     1      47.621   9.053  19.605  0.00  0.00    +0.000 A 
ATOM     26  S   UNL     1      47.476  10.741  19.496  0.00  0.00    +0.000 S 
ATOM     27  C   UNL     1      47.827  10.712  17.834  0.00  0.00    +0.000 A 
ATOM     28  C   UNL     1      48.063   9.439  17.329  0.00  0.00    +0.000 A 
ATOM     29  C   UNL     1      47.929   8.444  18.393  0.00  0.00    +0.000 A 
BRANCH  21  31
ATOM     30  C   UNL     1      49.738   6.048  17.227  0.00  0.00    +0.000 C 
ATOM     31  O   UNL     1      48.339   6.292  17.361  0.00  0.00    +0.000 OA
ENDBRANCH  21  31
ENDBRANCH  17  28
ENDBRANCH   1  19
TORSDOF 8
ENDMDL
MODEL 5
REMARK VINA RESULT:    -6.783      3.435      5.148
REMARK INTER + INTRA:         -11.094
REMARK INTER:                  -9.487
REMARK INTRA:                  -1.606
REMARK UNBOUND:                -1.138
REMARK  Name = 
REMARK  9 active torsions:
REMARK  status: ('A' for Active; 'I' for Inactive)
REMARK    1  A    between atoms: C_1  and  O_2
REMARK    2  A    between atoms: O_2  and  C_3
REMARK    3  A    between atoms: C_10  and  C_11
REMARK    4  A    between atoms: N_13  and  C_14
REMARK    5  A    between atoms: C_14  and  C_15
REMARK    6  A    between atoms: C_18  and  C_19
REMARK    7  A    between atoms: C_19  and  S_20
REMARK    8  A    between atoms: S_20  and  C_21
REMARK    9  A    between atoms: C_21  and  C_22
REMARK                            x       y       z     vdW  Elec       q    Type
REMARK                         _______ _______ _______ _____ _____    ______ ____
ROOT
ATOM      1  C   UNL     1      47.804   3.180  17.307  0.00  0.00    +0.000 C 
ENDROOT
BRANCH   1   2
ATOM      2  C   UNL     1      47.686   4.101  16.120  0.00  0.00    +0.000 A 
ATOM      3  C   UNL     1      47.062   3.672  14.942  0.00  0.00    +0.000 A 
ATOM      4  C   UNL     1      46.963   4.525  13.839  0.00  0.00    +0.000 A 
ATOM      5  C   UNL     1      47.477   5.829  13.890  0.00  0.00    +0.000 A 
ATOM      6  C   UNL     1      48.136   6.240  15.057  0.00  0.00    +0.000 A 
ATOM      7  C   UNL     1      48.243   5.386  16.158  0.00  0.00    +0.000 A 
BRANCH   5   8
ATOM      8  C   UNL     1      47.378   6.762  12.708  0.00  0.00    +0.000 C 
BRANCH   8   9
ATOM      9  S   UNL     1      45.981   7.923  12.767  0.00  0.00    +0.000 S 
BRANCH   9  10
ATOM     10  C   UNL     1      44.966   7.277  11.386  0.00  0.00    +0.000 C 
BRANCH  10  11
ATOM     11  C   UNL     1      44.477   5.868  11.654  0.00  0.00    +0.000 A 
ATOM     12  C   UNL     1      44.798   4.829  10.778  0.00  0.00    +0.000 A 
ATOM     13  C   UNL     1      44.317   3.549  11.038  0.00  0.00    +0.000 A 
ATOM     14  C   UNL     1      43.546   3.330  12.171  0.00  0.00    +0.000 A 
ATOM     15  C   UNL     1      43.290   4.406  13.003  0.00  0.00    +0.000 A 
ATOM     16  N   UNL     1      43.737   5.662  12.774  0.00  0.00    +0.000 NA
ENDBRANCH  10  11
ENDBRANCH   9  10
ENDBRANCH   8   9
ENDBRANCH   5   8
ENDBRANCH   1   2
BRANCH   1  19
ATOM     17  C   UNL     1      50.063   2.258  17.020  0.00  0.00    +0.000 C 
ATOM     18  O   UNL     1      49.713   1.642  16.016  0.00  0.00    +0.000 OA
ATOM     19  N   UNL     1      49.178   3.037  17.715  0.00  0.00    +0.000 N 
ATOM     20  H   UNL     1      49.467   3.503  18.563  0.00  0.00    +0.000 HD
BRANCH  17  28
ATOM     21  C   UNL     1      52.246   4.589  18.311  0.00  0.00    +0.000 A 
ATOM     22  N   UNL     1      53.275   5.270  18.857  0.00  0.00    +0.000 NA
ATOM     23  C   UNL     1      54.390   4.596  19.148  0.00  0.00    +0.000 A 
ATOM     24  N   UNL     1      54.616   3.299  18.956  0.00  0.00    +0.000 NA
ATOM     25  C   UNL     1      53.564   2.657  18.418  0.00  0.00    +0.000 A 
ATOM     26  S   UNL     1      53.677   0.994  18.097  0.00  0.00    +0.000 S 
ATOM     27  C   UNL     1      52.090   0.954  17.493  0.00  0.00    +0.000 A 
ATOM     28  C   UNL     1      51.444   2.184  17.523  0.00  0.00    +0.000 A 
ATOM     29  C   UNL     1      52.335   3.206  18.070  0.00  0.00    +0.000 A 
BRANCH  21  31
ATOM     30  C   UNL     1      50.594   6.019  19.151  0.00  0.00    +0.000 C 
ATOM     31  O   UNL     1      51.086   5.281  18.034  0.00  0.00    +0.000 OA
ENDBRANCH  21  31
ENDBRANCH  17  28
ENDBRANCH   1  19
TORSDOF 8
ENDMDL
MODEL 6
REMARK VINA RESULT:    -6.693      3.584      8.939
REMARK INTER + INTRA:         -10.962
REMARK INTER:                  -9.028
REMARK INTRA:                  -1.934
REMARK UNBOUND:                -1.138
REMARK  Name = 
REMARK  9 active torsions:
REMARK  status: ('A' for Active; 'I' for Inactive)
REMARK    1  A    between atoms: C_1  and  O_2
REMARK    2  A    between atoms: O_2  and  C_3
REMARK    3  A    between atoms: C_10  and  C_11
REMARK    4  A    between atoms: N_13  and  C_14
REMARK    5  A    between atoms: C_14  and  C_15
REMARK    6  A    between atoms: C_18  and  C_19
REMARK    7  A    between atoms: C_19  and  S_20
REMARK    8  A    between atoms: S_20  and  C_21
REMARK    9  A    between atoms: C_21  and  C_22
REMARK                            x       y       z     vdW  Elec       q    Type
REMARK                         _______ _______ _______ _____ _____    ______ ____
ROOT
ATOM      1  C   UNL     1      47.200   3.323  16.833  0.00  0.00    +0.000 C 
ENDROOT
BRANCH   1   2
ATOM      2  C   UNL     1      48.495   3.678  17.517  0.00  0.00    +0.000 A 
ATOM      3  C   UNL     1      49.696   3.068  17.136  0.00  0.00    +0.000 A 
ATOM      4  C   UNL     1      50.895   3.392  17.779  0.00  0.00    +0.000 A 
ATOM      5  C   UNL     1      50.922   4.339  18.813  0.00  0.00    +0.000 A 
ATOM      6  C   UNL     1      49.711   4.918  19.219  0.00  0.00    +0.000 A 
ATOM      7  C   UNL     1      48.512   4.589  18.582  0.00  0.00    +0.000 A 
BRANCH   5   8
ATOM      8  C   UNL     1      52.208   4.699  19.517  0.00  0.00    +0.000 C 
BRANCH   8   9
ATOM      9  S   UNL     1      53.579   5.156  18.416  0.00  0.00    +0.000 S 
BRANCH   9  10
ATOM     10  C   UNL     1      53.282   6.956  18.259  0.00  0.00    +0.000 C 
BRANCH  10  11
ATOM     11  C   UNL     1      51.964   7.254  17.573  0.00  0.00    +0.000 A 
ATOM     12  C   UNL     1      51.683   6.718  16.315  0.00  0.00    +0.000 A 
ATOM     13  C   UNL     1      50.473   7.026  15.700  0.00  0.00    +0.000 A 
ATOM     14  C   UNL     1      49.565   7.845  16.359  0.00  0.00    +0.000 A 
ATOM     15  C   UNL     1      49.907   8.320  17.613  0.00  0.00    +0.000 A 
ATOM     16  N   UNL     1      51.077   8.043  18.233  0.00  0.00    +0.000 NA
ENDBRANCH  10  11
ENDBRANCH   9  10
ENDBRANCH   8   9
ENDBRANCH   5   8
ENDBRANCH   1   2
BRANCH   1  19
ATOM     17  C   UNL     1      46.902   4.202  14.559  0.00  0.00    +0.000 C 
ATOM     18  O   UNL     1      47.345   3.165  14.071  0.00  0.00    +0.000 OA
ATOM     19  N   UNL     1      46.802   4.358  15.914  0.00  0.00    +0.000 N 
ATOM     20  H   UNL     1      46.478   5.232  16.303  0.00  0.00    +0.000 HD
BRANCH  17  28
ATOM     21  C   UNL     1      44.112   4.762  12.618  0.00  0.00    +0.000 A 
ATOM     22  N   UNL     1      43.140   5.244  11.817  0.00  0.00    +0.000 NA
ATOM     23  C   UNL     1      43.308   6.459  11.287  0.00  0.00    +0.000 A 
ATOM     24  N   UNL     1      44.349   7.270  11.456  0.00  0.00    +0.000 NA
ATOM     25  C   UNL     1      45.289   6.756  12.267  0.00  0.00    +0.000 A 
ATOM     26  S   UNL     1      46.693   7.653  12.591  0.00  0.00    +0.000 S 
ATOM     27  C   UNL     1      47.303   6.427  13.595  0.00  0.00    +0.000 A 
ATOM     28  C   UNL     1      46.466   5.323  13.711  0.00  0.00    +0.000 A 
ATOM     29  C   UNL     1      45.262   5.520  12.904  0.00  0.00    +0.000 A 
BRANCH  21  31
ATOM     30  C   UNL     1      43.460   2.544  12.255  0.00  0.00    +0.000 C 
ATOM     31  O   UNL     1      43.927   3.519  13.185  0.00  0.00    +0.000 OA
ENDBRANCH  21  31
ENDBRANCH  17  28
ENDBRANCH   1  19
TORSDOF 8
ENDMDL
MODEL 7
REMARK VINA RESULT:    -6.680      4.818      9.412
REMARK INTER + INTRA:         -10.942
REMARK INTER:                 -10.116
REMARK INTRA:                  -0.826
REMARK UNBOUND:                -1.138
REMARK  Name = 
REMARK  9 active torsions:
REMARK  status: ('A' for Active; 'I' for Inactive)
REMARK    1  A    between atoms: C_1  and  O_2
REMARK    2  A    between atoms: O_2  and  C_3
REMARK    3  A    between atoms: C_10  and  C_11
REMARK    4  A    between atoms: N_13  and  C_14
REMARK    5  A    between atoms: C_14  and  C_15
REMARK    6  A    between atoms: C_18  and  C_19
REMARK    7  A    between atoms: C_19  and  S_20
REMARK    8  A    between atoms: S_20  and  C_21
REMARK    9  A    between atoms: C_21  and  C_22
REMARK                            x       y       z     vdW  Elec       q    Type
REMARK                         _______ _______ _______ _____ _____    ______ ____
ROOT
ATOM      1  C   UNL     1      47.324   3.362  16.800  0.00  0.00    +0.000 C 
ENDROOT
BRANCH   1   2
ATOM      2  C   UNL     1      48.796   3.474  17.104  0.00  0.00    +0.000 A 
ATOM      3  C   UNL     1      49.614   2.337  17.106  0.00  0.00    +0.000 A 
ATOM      4  C   UNL     1      50.977   2.441  17.397  0.00  0.00    +0.000 A 
ATOM      5  C   UNL     1      51.557   3.685  17.686  0.00  0.00    +0.000 A 
ATOM      6  C   UNL     1      50.727   4.815  17.722  0.00  0.00    +0.000 A 
ATOM      7  C   UNL     1      49.363   4.711  17.439  0.00  0.00    +0.000 A 
BRANCH   5   8
ATOM      8  C   UNL     1      53.027   3.816  18.002  0.00  0.00    +0.000 C 
BRANCH   8   9
ATOM      9  S   UNL     1      53.762   2.370  18.822  0.00  0.00    +0.000 S 
BRANCH   9  10
ATOM     10  C   UNL     1      54.526   1.535  17.383  0.00  0.00    +0.000 C 
BRANCH  10  11
ATOM     11  C   UNL     1      54.621   0.036  17.583  0.00  0.00    +0.000 A 
ATOM     12  C   UNL     1      55.098  -0.786  16.561  0.00  0.00    +0.000 A 
ATOM     13  C   UNL     1      55.153  -2.162  16.767  0.00  0.00    +0.000 A 
ATOM     14  C   UNL     1      54.750  -2.683  17.988  0.00  0.00    +0.000 A 
ATOM     15  C   UNL     1      54.310  -1.801  18.959  0.00  0.00    +0.000 A 
ATOM     16  N   UNL     1      54.239  -0.461  18.788  0.00  0.00    +0.000 NA
ENDBRANCH  10  11
ENDBRANCH   9  10
ENDBRANCH   8   9
ENDBRANCH   5   8
ENDBRANCH   1   2
BRANCH   1  19
ATOM     17  C   UNL     1      46.930   4.234  14.538  0.00  0.00    +0.000 C 
ATOM     18  O   UNL     1      47.321   3.184  14.036  0.00  0.00    +0.000 OA
ATOM     19  N   UNL     1      46.904   4.401  15.896  0.00  0.00    +0.000 N 
ATOM     20  H   UNL     1      46.622   5.285  16.295  0.00  0.00    +0.000 HD
BRANCH  17  28
ATOM     21  C   UNL     1      44.182   4.741  12.523  0.00  0.00    +0.000 A 
ATOM     22  N   UNL     1      43.218   5.207  11.704  0.00  0.00    +0.000 NA
ATOM     23  C   UNL     1      43.355   6.441  11.211  0.00  0.00    +0.000 A 
ATOM     24  N   UNL     1      44.357   7.286  11.435  0.00  0.00    +0.000 NA
ATOM     25  C   UNL     1      45.291   6.786  12.262  0.00  0.00    +0.000 A 
ATOM     26  S   UNL     1      46.649   7.727  12.655  0.00  0.00    +0.000 S 
ATOM     27  C   UNL     1      47.274   6.498  13.646  0.00  0.00    +0.000 A 
ATOM     28  C   UNL     1      46.477   5.361  13.706  0.00  0.00    +0.000 A 
ATOM     29  C   UNL     1      45.292   5.533  12.866  0.00  0.00    +0.000 A 
BRANCH  21  31
ATOM     30  C   UNL     1      43.456   2.551  12.129  0.00  0.00    +0.000 C 
ATOM     31  O   UNL     1      44.027   3.476  13.051  0.00  0.00    +0.000 OA
ENDBRANCH  21  31
ENDBRANCH  17  28
ENDBRANCH   1  19
TORSDOF 8
ENDMDL
MODEL 8
REMARK VINA RESULT:    -6.677      1.581      2.117
REMARK INTER + INTRA:         -10.938
REMARK INTER:                  -9.955
REMARK INTRA:                  -0.983
REMARK UNBOUND:                -1.138
REMARK  Name = 
REMARK  9 active torsions:
REMARK  status: ('A' for Active; 'I' for Inactive)
REMARK    1  A    between atoms: C_1  and  O_2
REMARK    2  A    between atoms: O_2  and  C_3
REMARK    3  A    between atoms: C_10  and  C_11
REMARK    4  A    between atoms: N_13  and  C_14
REMARK    5  A    between atoms: C_14  and  C_15
REMARK    6  A    between atoms: C_18  and  C_19
REMARK    7  A    between atoms: C_19  and  S_20
REMARK    8  A    between atoms: S_20  and  C_21
REMARK    9  A    between atoms: C_21  and  C_22
REMARK                            x       y       z     vdW  Elec       q    Type
REMARK                         _______ _______ _______ _____ _____    ______ ____
ROOT
ATOM      1  C   UNL     1      48.247   7.828  14.215  0.00  0.00    +0.000 C 
ENDROOT
BRANCH   1   2
ATOM      2  C   UNL     1      47.298   6.829  13.606  0.00  0.00    +0.000 A 
ATOM      3  C   UNL     1      47.352   5.478  13.971  0.00  0.00    +0.000 A 
ATOM      4  C   UNL     1      46.476   4.551  13.397  0.00  0.00    +0.000 A 
ATOM      5  C   UNL     1      45.522   4.953  12.451  0.00  0.00    +0.000 A 
ATOM      6  C   UNL     1      45.498   6.300  12.059  0.00  0.00    +0.000 A 
ATOM      7  C   UNL     1      46.378   7.225  12.626  0.00  0.00    +0.000 A 
BRANCH   5   8
ATOM      8  C   UNL     1      44.570   3.965  11.823  0.00  0.00    +0.000 C 
BRANCH   8   9
ATOM      9  S   UNL     1      44.278   4.211  10.046  0.00  0.00    +0.000 S 
BRANCH   9  10
ATOM     10  C   UNL     1      44.462   2.490   9.447  0.00  0.00    +0.000 C 
BRANCH  10  11
ATOM     11  C   UNL     1      45.527   2.376   8.374  0.00  0.00    +0.000 A 
ATOM     12  C   UNL     1      45.774   3.442   7.506  0.00  0.00    +0.000 A 
ATOM     13  C   UNL     1      46.744   3.300   6.517  0.00  0.00    +0.000 A 
ATOM     14  C   UNL     1      47.454   2.111   6.427  0.00  0.00    +0.000 A 
ATOM     15  C   UNL     1      47.166   1.110   7.338  0.00  0.00    +0.000 A 
ATOM     16  N   UNL     1      46.226   1.214   8.306  0.00  0.00    +0.000 NA
ENDBRANCH  10  11
ENDBRANCH   9  10
ENDBRANCH   8   9
ENDBRANCH   5   8
ENDBRANCH   1   2
BRANCH   1  19
ATOM     17  C   UNL     1      48.508   8.468  16.572  0.00  0.00    +0.000 C 
ATOM     18  O   UNL     1      48.277   9.645  16.306  0.00  0.00    +0.000 OA
ATOM     19  N   UNL     1      48.514   7.512  15.595  0.00  0.00    +0.000 N 
ATOM     20  H   UNL     1      48.748   6.555  15.820  0.00  0.00    +0.000 HD
BRANCH  17  28
ATOM     21  C   UNL     1      50.841   6.346  17.957  0.00  0.00    +0.000 A 
ATOM     22  N   UNL     1      51.637   5.602  18.753  0.00  0.00    +0.000 NA
ATOM     23  C   UNL     1      51.401   5.617  20.067  0.00  0.00    +0.000 A 
ATOM     24  N   UNL     1      50.448   6.292  20.703  0.00  0.00    +0.000 NA
ATOM     25  C   UNL     1      49.683   7.026  19.876  0.00  0.00    +0.000 A 
ATOM     26  S   UNL     1      48.410   7.949  20.515  0.00  0.00    +0.000 S 
ATOM     27  C   UNL     1      47.986   8.521  18.973  0.00  0.00    +0.000 A 
ATOM     28  C   UNL     1      48.792   8.034  17.950  0.00  0.00    +0.000 A 
ATOM     29  C   UNL     1      49.804   7.130  18.494  0.00  0.00    +0.000 A 
BRANCH  21  31
ATOM     30  C   UNL     1      52.471   6.602  16.297  0.00  0.00    +0.000 C 
ATOM     31  O   UNL     1      51.101   6.350  16.603  0.00  0.00    +0.000 OA
ENDBRANCH  21  31
ENDBRANCH  17  28
ENDBRANCH   1  19
TORSDOF 8
ENDMDL
MODEL 9
REMARK VINA RESULT:    -6.547      2.023      2.331
REMARK INTER + INTRA:         -10.747
REMARK INTER:                  -9.594
REMARK INTRA:                  -1.153
REMARK UNBOUND:                -1.138
REMARK  Name = 
REMARK  9 active torsions:
REMARK  status: ('A' for Active; 'I' for Inactive)
REMARK    1  A    between atoms: C_1  and  O_2
REMARK    2  A    between atoms: O_2  and  C_3
REMARK    3  A    between atoms: C_10  and  C_11
REMARK    4  A    between atoms: N_13  and  C_14
REMARK    5  A    between atoms: C_14  and  C_15
REMARK    6  A    between atoms: C_18  and  C_19
REMARK    7  A    between atoms: C_19  and  S_20
REMARK    8  A    between atoms: S_20  and  C_21
REMARK    9  A    between atoms: C_21  and  C_22
REMARK                            x       y       z     vdW  Elec       q    Type
REMARK                         _______ _______ _______ _____ _____    ______ ____
ROOT
ATOM      1  C   UNL     1      49.358   8.087  12.874  0.00  0.00    +0.000 C 
ENDROOT
BRANCH   1   2
ATOM      2  C   UNL     1      48.038   7.359  12.870  0.00  0.00    +0.000 A 
ATOM      3  C   UNL     1      46.855   8.027  12.530  0.00  0.00    +0.000 A 
ATOM      4  C   UNL     1      45.630   7.352  12.537  0.00  0.00    +0.000 A 
ATOM      5  C   UNL     1      45.561   5.992  12.876  0.00  0.00    +0.000 A 
ATOM      6  C   UNL     1      46.742   5.338  13.254  0.00  0.00    +0.000 A 
ATOM      7  C   UNL     1      47.965   6.014  13.255  0.00  0.00    +0.000 A 
BRANCH   5   8
ATOM      8  C   UNL     1      44.247   5.249  12.888  0.00  0.00    +0.000 C 
BRANCH   8   9
ATOM      9  S   UNL     1      44.349   3.512  12.365  0.00  0.00    +0.000 S 
BRANCH   9  10
ATOM     10  C   UNL     1      43.611   3.634  10.694  0.00  0.00    +0.000 C 
BRANCH  10  11
ATOM     11  C   UNL     1      44.617   3.315   9.607  0.00  0.00    +0.000 A 
ATOM     12  C   UNL     1      45.222   4.342   8.878  0.00  0.00    +0.000 A 
ATOM     13  C   UNL     1      46.127   4.018   7.871  0.00  0.00    +0.000 A 
ATOM     14  C   UNL     1      46.422   2.684   7.626  0.00  0.00    +0.000 A 
ATOM     15  C   UNL     1      45.798   1.725   8.405  0.00  0.00    +0.000 A 
ATOM     16  N   UNL     1      44.910   2.008   9.386  0.00  0.00    +0.000 NA
ENDBRANCH  10  11
ENDBRANCH   9  10
ENDBRANCH   8   9
ENDBRANCH   5   8
ENDBRANCH   1   2
BRANCH   1  19
ATOM     17  C   UNL     1      50.584   7.841  14.988  0.00  0.00    +0.000 C 
ATOM     18  O   UNL     1      50.018   8.825  15.461  0.00  0.00    +0.000 OA
ATOM     19  N   UNL     1      50.314   7.416  13.716  0.00  0.00    +0.000 N 
ATOM     20  H   UNL     1      50.818   6.633  13.324  0.00  0.00    +0.000 HD
BRANCH  17  28
ATOM     21  C   UNL     1      50.375   5.133  17.107  0.00  0.00    +0.000 A 
ATOM     22  N   UNL     1      50.585   4.095  17.942  0.00  0.00    +0.000 NA
ATOM     23  C   UNL     1      51.837   3.852  18.339  0.00  0.00    +0.000 A 
ATOM     24  N   UNL     1      52.930   4.531  18.004  0.00  0.00    +0.000 NA
ATOM     25  C   UNL     1      52.679   5.550  17.165  0.00  0.00    +0.000 A 
ATOM     26  S   UNL     1      53.959   6.532  16.636  0.00  0.00    +0.000 S 
ATOM     27  C   UNL     1      52.908   7.482  15.701  0.00  0.00    +0.000 A 
ATOM     28  C   UNL     1      51.578   7.082  15.763  0.00  0.00    +0.000 A 
ATOM     29  C   UNL     1      51.442   5.928  16.650  0.00  0.00    +0.000 A 
BRANCH  21  31
ATOM     30  C   UNL     1      48.312   6.116  17.612  0.00  0.00    +0.000 C 
ATOM     31  O   UNL     1      49.086   5.369  16.677  0.00  0.00    +0.000 OA
ENDBRANCH  21  31
ENDBRANCH  17  28
ENDBRANCH   1  19
TORSDOF 8
ENDMDL
