MODEL 1
REMARK VINA RESULT:    -8.151      0.000      0.000
REMARK INTER + INTRA:         -13.288
REMARK INTER:                 -11.963
REMARK INTRA:                  -1.325
REMARK UNBOUND:                -1.325
REMARK  Name = 
REMARK  9 active torsions:
REMARK  status: ('A' for Active; 'I' for Inactive)
REMARK    1  A    between atoms: C_1  and  C_2
REMARK    2  A    between atoms: C_2  and  N_3
REMARK    3  A    between atoms: N_3  and  C_4
REMARK    4  A    between atoms: N_3  and  C_11
REMARK    5  A    between atoms: C_4  and  C_5
REMARK    6  A    between atoms: C_11  and  C_12
REMARK    7  A    between atoms: C_15  and  C_16
REMARK    8  A    between atoms: C_16  and  N_17
REMARK    9  A    between atoms: C_18  and  C_20
REMARK                            x       y       z     vdW  Elec       q    Type
REMARK                         _______ _______ _______ _____ _____    ______ ____
ROOT
ATOM      1  C   UNL     1      44.882   6.026  11.103  0.00  0.00    +0.000 A 
ATOM      2  C   UNL     1      46.266   6.009  10.911  0.00  0.00    +0.000 A 
ATOM      3  C   UNL     1      47.086   6.782  11.728  0.00  0.00    +0.000 A 
ATOM      4  C   UNL     1      46.501   7.579  12.707  0.00  0.00    +0.000 A 
ATOM      5  N   UNL     1      45.157   7.631  12.899  0.00  0.00    +0.000 NA
ATOM      6  C   UNL     1      44.387   6.860  12.099  0.00  0.00    +0.000 A 
ENDROOT
BRANCH   1   7
ATOM      7  C   UNL     1      43.965   5.135  10.300  0.00  0.00    +0.000 C 
BRANCH   7   8
ATOM      8  N   UNL     1      44.554   3.805   9.995  0.00  0.00    +0.000 NA
BRANCH   8  10
ATOM      9  C   UNL     1      43.758   2.949  12.259  0.00  0.00    +0.000 C 
ATOM     10  C   UNL     1      43.822   2.759  10.748  0.00  0.00    +0.000 C 
ENDBRANCH   8  10
BRANCH   8  11
ATOM     11  C   UNL     1      44.525   3.542   8.538  0.00  0.00    +0.000 C 
BRANCH  11  12
ATOM     12  C   UNL     1      45.737   2.791   8.023  0.00  0.00    +0.000 A 
ATOM     13  C   UNL     1      46.725   3.441   7.276  0.00  0.00    +0.000 A 
ATOM     14  C   UNL     1      47.777   2.692   6.768  0.00  0.00    +0.000 A 
ATOM     15  N   UNL     1      47.914   1.361   6.957  0.00  0.00    +0.000 NA
ATOM     16  C   UNL     1      46.964   0.756   7.699  0.00  0.00    +0.000 A 
ATOM     17  C   UNL     1      45.879   1.419   8.254  0.00  0.00    +0.000 A 
ENDBRANCH  11  12
ENDBRANCH   8  11
ENDBRANCH   7   8
ENDBRANCH   1   7
BRANCH   4  18
ATOM     18  C   UNL     1      47.365   8.405  13.629  0.00  0.00    +0.000 C 
BRANCH  18  19
ATOM     19  N   UNL     1      47.807   7.658  14.789  0.00  0.00    +0.000 N 
ATOM     20  C   UNL     1      49.085   7.187  14.920  0.00  0.00    +0.000 C 
ATOM     21  O   UNL     1      49.933   7.351  14.047  0.00  0.00    +0.000 OA
ATOM     22  H   UNL     1      47.071   7.313  15.398  0.00  0.00    +0.000 HD
BRANCH  20  23
ATOM     23  C   UNL     1      49.417   6.534  16.194  0.00  0.00    +0.000 A 
ATOM     24  C   UNL     1      50.417   7.067  16.995  0.00  0.00    +0.000 A 
ATOM     25  S   UNL     1      50.645   6.224  18.461  0.00  0.00    +0.000 S 
ATOM     26  C   UNL     1      49.450   5.085  18.055  0.00  0.00    +0.000 A 
ATOM     27  N   UNL     1      49.161   4.049  18.887  0.00  0.00    +0.000 NA
ATOM     28  C   UNL     1      48.257   3.239  18.441  0.00  0.00    +0.000 A 
ATOM     29  N   UNL     1      47.611   3.383  17.240  0.00  0.00    +0.000 N 
ATOM     30  C   UNL     1      47.831   4.440  16.393  0.00  0.00    +0.000 A 
ATOM     31  O   UNL     1      47.171   4.583  15.369  0.00  0.00    +0.000 OA
ATOM     32  C   UNL     1      48.863   5.358  16.833  0.00  0.00    +0.000 A 
ATOM     33  H   UNL     1      46.900   2.724  16.955  0.00  0.00    +0.000 HD
ENDBRANCH  20  23
ENDBRANCH  18  19
ENDBRANCH   4  18
TORSDOF 8
ENDMDL
MODEL 2
REMARK VINA RESULT:    -7.446      1.652      1.871
REMARK INTER + INTRA:         -12.254
REMARK INTER:                 -11.256
REMARK INTRA:                  -0.998
REMARK UNBOUND:                -1.325
REMARK  Name = 
REMARK  9 active torsions:
REMARK  status: ('A' for Active; 'I' for Inactive)
REMARK    1  A    between atoms: C_1  and  C_2
REMARK    2  A    between atoms: C_2  and  N_3
REMARK    3  A    between atoms: N_3  and  C_4
REMARK    4  A    between atoms: N_3  and  C_11
REMARK    5  A    between atoms: C_4  and  C_5
REMARK    6  A    between atoms: C_11  and  C_12
REMARK    7  A    between atoms: C_15  and  C_16
REMARK    8  A    between atoms: C_16  and  N_17
REMARK    9  A    between atoms: C_18  and  C_20
REMARK                            x       y       z     vdW  Elec       q    Type
REMARK                         _______ _______ _______ _____ _____    ______ ____
ROOT
ATOM      1  C   UNL     1      45.848   5.752  11.565  0.00  0.00    +0.000 A 
ATOM      2  C   UNL     1      46.792   6.629  11.026  0.00  0.00    +0.000 A 
ATOM      3  C   UNL     1      47.855   7.067  11.810  0.00  0.00    +0.000 A 
ATOM      4  C   UNL     1      47.938   6.638  13.132  0.00  0.00    +0.000 A 
ATOM      5  N   UNL     1      47.021   5.804  13.687  0.00  0.00    +0.000 NA
ATOM      6  C   UNL     1      46.007   5.385  12.897  0.00  0.00    +0.000 A 
ENDROOT
BRANCH   1   7
ATOM      7  C   UNL     1      44.732   5.182  10.723  0.00  0.00    +0.000 C 
BRANCH   7   8
ATOM      8  N   UNL     1      45.023   3.821  10.202  0.00  0.00    +0.000 NA
BRANCH   8  10
ATOM      9  C   UNL     1      43.082   3.427  11.805  0.00  0.00    +0.000 C 
ATOM     10  C   UNL     1      44.101   2.846  10.832  0.00  0.00    +0.000 C 
ENDBRANCH   8  10
BRANCH   8  11
ATOM     11  C   UNL     1      44.912   3.792   8.725  0.00  0.00    +0.000 C 
BRANCH  11  12
ATOM     12  C   UNL     1      45.962   2.935   8.045  0.00  0.00    +0.000 A 
ATOM     13  C   UNL     1      46.876   3.492   7.144  0.00  0.00    +0.000 A 
ATOM     14  C   UNL     1      47.768   2.651   6.496  0.00  0.00    +0.000 A 
ATOM     15  N   UNL     1      47.818   1.314   6.687  0.00  0.00    +0.000 NA
ATOM     16  C   UNL     1      46.944   0.799   7.576  0.00  0.00    +0.000 A 
ATOM     17  C   UNL     1      46.019   1.557   8.277  0.00  0.00    +0.000 A 
ENDBRANCH  11  12
ENDBRANCH   8  11
ENDBRANCH   7   8
ENDBRANCH   1   7
BRANCH   4  18
ATOM     18  C   UNL     1      49.095   7.070  13.999  0.00  0.00    +0.000 C 
BRANCH  18  19
ATOM     19  N   UNL     1      48.847   6.841  15.407  0.00  0.00    +0.000 N 
ATOM     20  C   UNL     1      49.096   7.787  16.364  0.00  0.00    +0.000 C 
ATOM     21  O   UNL     1      49.569   8.886  16.087  0.00  0.00    +0.000 OA
ATOM     22  H   UNL     1      48.686   5.875  15.675  0.00  0.00    +0.000 HD
BRANCH  20  23
ATOM     23  C   UNL     1      48.701   7.451  17.739  0.00  0.00    +0.000 A 
ATOM     24  C   UNL     1      48.078   8.410  18.525  0.00  0.00    +0.000 A 
ATOM     25  S   UNL     1      47.638   7.848  20.075  0.00  0.00    +0.000 S 
ATOM     26  C   UNL     1      48.309   6.315  19.769  0.00  0.00    +0.000 A 
ATOM     27  N   UNL     1      48.294   5.344  20.721  0.00  0.00    +0.000 NA
ATOM     28  C   UNL     1      48.868   4.240  20.368  0.00  0.00    +0.000 A 
ATOM     29  N   UNL     1      49.445   4.022  19.144  0.00  0.00    +0.000 N 
ATOM     30  C   UNL     1      49.437   4.953  18.135  0.00  0.00    +0.000 A 
ATOM     31  O   UNL     1      49.885   4.691  17.024  0.00  0.00    +0.000 OA
ATOM     32  C   UNL     1      48.836   6.223  18.494  0.00  0.00    +0.000 A 
ATOM     33  H   UNL     1      49.863   3.129  18.922  0.00  0.00    +0.000 HD
ENDBRANCH  20  23
ENDBRANCH  18  19
ENDBRANCH   4  18
TORSDOF 8
ENDMDL
MODEL 3
REMARK VINA RESULT:    -7.203      2.885      5.245
REMARK INTER + INTRA:         -11.897
REMARK INTER:                 -10.592
REMARK INTRA:                  -1.306
REMARK UNBOUND:                -1.325
REMARK  Name = 
REMARK  9 active torsions:
REMARK  status: ('A' for Active; 'I' for Inactive)
REMARK    1  A    between atoms: C_1  and  C_2
REMARK    2  A    between atoms: C_2  and  N_3
REMARK    3  A    between atoms: N_3  and  C_4
REMARK    4  A    between atoms: N_3  and  C_11
REMARK    5  A    between atoms: C_4  and  C_5
REMARK    6  A    between atoms: C_11  and  C_12
REMARK    7  A    between atoms: C_15  and  C_16
REMARK    8  A    between atoms: C_16  and  N_17
REMARK    9  A    between atoms: C_18  and  C_20
REMARK                            x       y       z     vdW  Elec       q    Type
REMARK                         _______ _______ _______ _____ _____    ______ ____
ROOT
ATOM      1  C   UNL     1      47.413   5.769  13.924  0.00  0.00    +0.000 A 
ATOM      2  C   UNL     1      48.092   6.224  15.057  0.00  0.00    +0.000 A 
ATOM      3  C   UNL     1      48.181   5.409  16.182  0.00  0.00    +0.000 A 
ATOM      4  C   UNL     1      47.565   4.161  16.160  0.00  0.00    +0.000 A 
ATOM      5  N   UNL     1      46.880   3.705  15.079  0.00  0.00    +0.000 NA
ATOM      6  C   UNL     1      46.822   4.513  13.996  0.00  0.00    +0.000 A 
ENDROOT
BRANCH   1   7
ATOM      7  C   UNL     1      47.370   6.583  12.653  0.00  0.00    +0.000 C 
BRANCH   7   8
ATOM      8  N   UNL     1      46.004   7.051  12.299  0.00  0.00    +0.000 NA
BRANCH   8  10
ATOM      9  C   UNL     1      47.281   9.255  12.255  0.00  0.00    +0.000 C 
ATOM     10  C   UNL     1      45.950   8.528  12.399  0.00  0.00    +0.000 C 
ENDBRANCH   8  10
BRANCH   8  11
ATOM     11  C   UNL     1      45.629   6.587  10.943  0.00  0.00    +0.000 C 
BRANCH  11  12
ATOM     12  C   UNL     1      44.812   5.309  10.933  0.00  0.00    +0.000 A 
ATOM     13  C   UNL     1      43.878   5.041  11.939  0.00  0.00    +0.000 A 
ATOM     14  C   UNL     1      43.210   3.826  11.921  0.00  0.00    +0.000 A 
ATOM     15  N   UNL     1      43.398   2.877  10.978  0.00  0.00    +0.000 NA
ATOM     16  C   UNL     1      44.285   3.163  10.003  0.00  0.00    +0.000 A 
ATOM     17  C   UNL     1      44.998   4.350   9.932  0.00  0.00    +0.000 A 
ENDBRANCH  11  12
ENDBRANCH   8  11
ENDBRANCH   7   8
ENDBRANCH   1   7
BRANCH   4  18
ATOM     18  C   UNL     1      47.670   3.242  17.352  0.00  0.00    +0.000 C 
BRANCH  18  19
ATOM     19  N   UNL     1      49.043   2.999  17.743  0.00  0.00    +0.000 N 
ATOM     20  C   UNL     1      49.902   2.242  16.993  0.00  0.00    +0.000 C 
ATOM     21  O   UNL     1      49.551   1.702  15.947  0.00  0.00    +0.000 OA
ATOM     22  H   UNL     1      49.276   3.233  18.704  0.00  0.00    +0.000 HD
BRANCH  20  23
ATOM     23  C   UNL     1      51.292   2.165  17.463  0.00  0.00    +0.000 A 
ATOM     24  C   UNL     1      51.944   0.941  17.471  0.00  0.00    +0.000 A 
ATOM     25  S   UNL     1      53.566   1.029  17.995  0.00  0.00    +0.000 S 
ATOM     26  C   UNL     1      53.440   2.702  18.278  0.00  0.00    +0.000 A 
ATOM     27  N   UNL     1      54.491   3.408  18.774  0.00  0.00    +0.000 NA
ATOM     28  C   UNL     1      54.248   4.661  18.973  0.00  0.00    +0.000 A 
ATOM     29  N   UNL     1      53.049   5.271  18.709  0.00  0.00    +0.000 N 
ATOM     30  C   UNL     1      51.978   4.612  18.159  0.00  0.00    +0.000 A 
ATOM     31  O   UNL     1      50.951   5.208  17.856  0.00  0.00    +0.000 OA
ATOM     32  C   UNL     1      52.189   3.192  17.951  0.00  0.00    +0.000 A 
ATOM     33  H   UNL     1      52.927   6.262  18.871  0.00  0.00    +0.000 HD
ENDBRANCH  20  23
ENDBRANCH  18  19
ENDBRANCH   4  18
TORSDOF 8
ENDMDL
MODEL 4
REMARK VINA RESULT:    -7.120      3.212      8.102
REMARK INTER + INTRA:         -11.775
REMARK INTER:                 -10.320
REMARK INTRA:                  -1.455
REMARK UNBOUND:                -1.325
REMARK  Name = 
REMARK  9 active torsions:
REMARK  status: ('A' for Active; 'I' for Inactive)
REMARK    1  A    between atoms: C_1  and  C_2
REMARK    2  A    between atoms: C_2  and  N_3
REMARK    3  A    between atoms: N_3  and  C_4
REMARK    4  A    between atoms: N_3  and  C_11
REMARK    5  A    between atoms: C_4  and  C_5
REMARK    6  A    between atoms: C_11  and  C_12
REMARK    7  A    between atoms: C_15  and  C_16
REMARK    8  A    between atoms: C_16  and  N_17
REMARK    9  A    between atoms: C_18  and  C_20
REMARK                            x       y       z     vdW  Elec       q    Type
REMARK                         _______ _______ _______ _____ _____    ______ ____
ROOT
ATOM      1  C   UNL     1      48.829   7.676  16.426  0.00  0.00    +0.000 A 
ATOM      2  C   UNL     1      48.274   8.840  15.887  0.00  0.00    +0.000 A 
ATOM      3  C   UNL     1      48.141   8.966  14.508  0.00  0.00    +0.000 A 
ATOM      4  C   UNL     1      48.591   7.933  13.690  0.00  0.00    +0.000 A 
ATOM      5  N   UNL     1      49.154   6.802  14.187  0.00  0.00    +0.000 NA
ATOM      6  C   UNL     1      49.259   6.702  15.532  0.00  0.00    +0.000 A 
ENDROOT
BRANCH   1   7
ATOM      7  C   UNL     1      48.908   7.460  17.918  0.00  0.00    +0.000 C 
BRANCH   7   8
ATOM      8  N   UNL     1      49.930   6.455  18.314  0.00  0.00    +0.000 NA
BRANCH   8  10
ATOM      9  C   UNL     1      51.292   6.146  20.445  0.00  0.00    +0.000 C 
ATOM     10  C   UNL     1      50.853   7.057  19.305  0.00  0.00    +0.000 C 
ENDBRANCH   8  10
BRANCH   8  11
ATOM     11  C   UNL     1      49.282   5.236  18.850  0.00  0.00    +0.000 C 
BRANCH  11  12
ATOM     12  C   UNL     1      49.334   4.046  17.912  0.00  0.00    +0.000 A 
ATOM     13  C   UNL     1      48.213   3.661  17.169  0.00  0.00    +0.000 A 
ATOM     14  C   UNL     1      48.295   2.523  16.380  0.00  0.00    +0.000 A 
ATOM     15  N   UNL     1      49.403   1.758  16.275  0.00  0.00    +0.000 NA
ATOM     16  C   UNL     1      50.481   2.157  16.980  0.00  0.00    +0.000 A 
ATOM     17  C   UNL     1      50.500   3.282  17.791  0.00  0.00    +0.000 A 
ENDBRANCH  11  12
ENDBRANCH   8  11
ENDBRANCH   7   8
ENDBRANCH   1   7
BRANCH   4  18
ATOM     18  C   UNL     1      48.432   8.028  12.192  0.00  0.00    +0.000 C 
BRANCH  18  19
ATOM     19  N   UNL     1      47.677   6.919  11.645  0.00  0.00    +0.000 N 
ATOM     20  C   UNL     1      46.310   6.914  11.587  0.00  0.00    +0.000 C 
ATOM     21  O   UNL     1      45.636   7.846  12.017  0.00  0.00    +0.000 OA
ATOM     22  H   UNL     1      48.197   6.057  11.509  0.00  0.00    +0.000 HD
BRANCH  20  23
ATOM     23  C   UNL     1      45.685   5.766  10.915  0.00  0.00    +0.000 A 
ATOM     24  C   UNL     1      45.840   5.609   9.545  0.00  0.00    +0.000 A 
ATOM     25  S   UNL     1      45.098   4.203   8.927  0.00  0.00    +0.000 S 
ATOM     26  C   UNL     1      44.500   3.778  10.461  0.00  0.00    +0.000 A 
ATOM     27  N   UNL     1      43.736   2.665  10.630  0.00  0.00    +0.000 NA
ATOM     28  C   UNL     1      43.321   2.479  11.840  0.00  0.00    +0.000 A 
ATOM     29  N   UNL     1      43.612   3.304  12.895  0.00  0.00    +0.000 N 
ATOM     30  C   UNL     1      44.421   4.407  12.784  0.00  0.00    +0.000 A 
ATOM     31  O   UNL     1      44.731   5.071  13.767  0.00  0.00    +0.000 OA
ATOM     32  C   UNL     1      44.884   4.679  11.437  0.00  0.00    +0.000 A 
ATOM     33  H   UNL     1      43.270   3.094  13.824  0.00  0.00    +0.000 HD
ENDBRANCH  20  23
ENDBRANCH  18  19
ENDBRANCH   4  18
TORSDOF 8
ENDMDL
MODEL 5
REMARK VINA RESULT:    -6.963      2.825      8.446
REMARK INTER + INTRA:         -11.545
REMARK INTER:                 -10.138
REMARK INTRA:                  -1.407
REMARK UNBOUND:                -1.325
REMARK  Name = 
REMARK  9 active torsions:
REMARK  status: ('A' for Active; 'I' for Inactive)
REMARK    1  A    between atoms: C_1  and  C_2
REMARK    2  A    between atoms: C_2  and  N_3
REMARK    3  A    between atoms: N_3  and  C_4
REMARK    4  A    between atoms: N_3  and  C_11
REMARK    5  A    between atoms: C_4  and  C_5
REMARK    6  A    between atoms: C_11  and  C_12
REMARK    7  A    between atoms: C_15  and  C_16
REMARK    8  A    between atoms: C_16  and  N_17
REMARK    9  A    between atoms: C_18  and  C_20
REMARK                            x       y       z     vdW  Elec       q    Type
REMARK                         _______ _______ _______ _____ _____    ______ ____
ROOT
ATOM      1  C   UNL     1      49.084   7.672  16.457  0.00  0.00    +0.000 A 
ATOM      2  C   UNL     1      48.379   8.779  15.979  0.00  0.00    +0.000 A 
ATOM      3  C   UNL     1      47.914   8.787  14.667  0.00  0.00    +0.000 A 
ATOM      4  C   UNL     1      48.189   7.695  13.848  0.00  0.00    +0.000 A 
ATOM      5  N   UNL     1      48.893   6.617  14.282  0.00  0.00    +0.000 NA
ATOM      6  C   UNL     1      49.320   6.632  15.566  0.00  0.00    +0.000 A 
ENDROOT
BRANCH   1   7
ATOM      7  C   UNL     1      49.527   7.584  17.898  0.00  0.00    +0.000 C 
BRANCH   7   8
ATOM      8  N   UNL     1      50.364   6.390  18.185  0.00  0.00    +0.000 NA
BRANCH   8  10
ATOM      9  C   UNL     1      51.936   8.229  18.983  0.00  0.00    +0.000 C 
ATOM     10  C   UNL     1      51.483   6.777  19.076  0.00  0.00    +0.000 C 
ENDBRANCH   8  10
BRANCH   8  11
ATOM     11  C   UNL     1      49.545   5.311  18.785  0.00  0.00    +0.000 C 
BRANCH  11  12
ATOM     12  C   UNL     1      49.490   4.044  17.953  0.00  0.00    +0.000 A 
ATOM     13  C   UNL     1      50.626   3.247  17.774  0.00  0.00    +0.000 A 
ATOM     14  C   UNL     1      50.538   2.139  16.945  0.00  0.00    +0.000 A 
ATOM     15  N   UNL     1      49.411   1.769  16.298  0.00  0.00    +0.000 NA
ATOM     16  C   UNL     1      48.320   2.537  16.501  0.00  0.00    +0.000 A 
ATOM     17  C   UNL     1      48.307   3.660  17.314  0.00  0.00    +0.000 A 
ENDBRANCH  11  12
ENDBRANCH   8  11
ENDBRANCH   7   8
ENDBRANCH   1   7
BRANCH   4  18
ATOM     18  C   UNL     1      47.673   7.660  12.431  0.00  0.00    +0.000 C 
BRANCH  18  19
ATOM     19  N   UNL     1      46.950   6.440  12.136  0.00  0.00    +0.000 N 
ATOM     20  C   UNL     1      45.592   6.336  12.271  0.00  0.00    +0.000 C 
ATOM     21  O   UNL     1      44.903   7.269  12.674  0.00  0.00    +0.000 OA
ATOM     22  H   UNL     1      47.518   5.604  12.034  0.00  0.00    +0.000 HD
BRANCH  20  23
ATOM     23  C   UNL     1      44.984   5.069  11.839  0.00  0.00    +0.000 A 
ATOM     24  C   UNL     1      44.260   4.312  12.749  0.00  0.00    +0.000 A 
ATOM     25  S   UNL     1      43.578   2.899  12.080  0.00  0.00    +0.000 S 
ATOM     26  C   UNL     1      44.268   3.221  10.559  0.00  0.00    +0.000 A 
ATOM     27  N   UNL     1      44.093   2.365   9.517  0.00  0.00    +0.000 NA
ATOM     28  C   UNL     1      44.699   2.714   8.430  0.00  0.00    +0.000 A 
ATOM     29  N   UNL     1      45.456   3.848   8.293  0.00  0.00    +0.000 N 
ATOM     30  C   UNL     1      45.616   4.768   9.299  0.00  0.00    +0.000 A 
ATOM     31  O   UNL     1      46.227   5.815   9.113  0.00  0.00    +0.000 OA
ATOM     32  C   UNL     1      44.985   4.404  10.552  0.00  0.00    +0.000 A 
ATOM     33  H   UNL     1      45.892   4.075   7.409  0.00  0.00    +0.000 HD
ENDBRANCH  20  23
ENDBRANCH  18  19
ENDBRANCH   4  18
TORSDOF 8
ENDMDL
MODEL 6
REMARK VINA RESULT:    -6.866      2.890      3.805
REMARK INTER + INTRA:         -11.403
REMARK INTER:                 -10.144
REMARK INTRA:                  -1.259
REMARK UNBOUND:                -1.325
REMARK  Name = 
REMARK  9 active torsions:
REMARK  status: ('A' for Active; 'I' for Inactive)
REMARK    1  A    between atoms: C_1  and  C_2
REMARK    2  A    between atoms: C_2  and  N_3
REMARK    3  A    between atoms: N_3  and  C_4
REMARK    4  A    between atoms: N_3  and  C_11
REMARK    5  A    between atoms: C_4  and  C_5
REMARK    6  A    between atoms: C_11  and  C_12
REMARK    7  A    between atoms: C_15  and  C_16
REMARK    8  A    between atoms: C_16  and  N_17
REMARK    9  A    between atoms: C_18  and  C_20
REMARK                            x       y       z     vdW  Elec       q    Type
REMARK                         _______ _______ _______ _____ _____    ______ ____
ROOT
ATOM      1  C   UNL     1      46.818   5.591  12.878  0.00  0.00    +0.000 A 
ATOM      2  C   UNL     1      46.343   4.342  13.288  0.00  0.00    +0.000 A 
ATOM      3  C   UNL     1      46.657   3.867  14.557  0.00  0.00    +0.000 A 
ATOM      4  C   UNL     1      47.466   4.641  15.385  0.00  0.00    +0.000 A 
ATOM      5  N   UNL     1      47.960   5.847  15.001  0.00  0.00    +0.000 NA
ATOM      6  C   UNL     1      47.626   6.289  13.767  0.00  0.00    +0.000 A 
ENDROOT
BRANCH   1   7
ATOM      7  C   UNL     1      46.426   6.183  11.545  0.00  0.00    +0.000 C 
BRANCH   7   8
ATOM      8  N   UNL     1      45.309   5.458  10.884  0.00  0.00    +0.000 NA
BRANCH   8  10
ATOM      9  C   UNL     1      42.875   5.104  11.550  0.00  0.00    +0.000 C 
ATOM     10  C   UNL     1      44.021   6.073  11.283  0.00  0.00    +0.000 C 
ENDBRANCH   8  10
BRANCH   8  11
ATOM     11  C   UNL     1      45.479   5.467   9.413  0.00  0.00    +0.000 C 
BRANCH  11  12
ATOM     12  C   UNL     1      45.782   4.105   8.819  0.00  0.00    +0.000 A 
ATOM     13  C   UNL     1      46.554   3.977   7.659  0.00  0.00    +0.000 A 
ATOM     14  C   UNL     1      46.740   2.713   7.119  0.00  0.00    +0.000 A 
ATOM     15  N   UNL     1      46.226   1.583   7.651  0.00  0.00    +0.000 NA
ATOM     16  C   UNL     1      45.504   1.723   8.782  0.00  0.00    +0.000 A 
ATOM     17  C   UNL     1      45.267   2.942   9.401  0.00  0.00    +0.000 A 
ENDBRANCH  11  12
ENDBRANCH   8  11
ENDBRANCH   7   8
ENDBRANCH   1   7
BRANCH   4  18
ATOM     18  C   UNL     1      47.800   4.168  16.778  0.00  0.00    +0.000 C 
BRANCH  18  19
ATOM     19  N   UNL     1      49.219   3.944  16.961  0.00  0.00    +0.000 N 
ATOM     20  C   UNL     1      49.901   4.390  18.061  0.00  0.00    +0.000 C 
ATOM     21  O   UNL     1      49.352   5.029  18.953  0.00  0.00    +0.000 OA
ATOM     22  H   UNL     1      49.726   3.633  16.137  0.00  0.00    +0.000 HD
BRANCH  20  23
ATOM     23  C   UNL     1      51.315   4.002  18.158  0.00  0.00    +0.000 A 
ATOM     24  C   UNL     1      52.247   4.923  18.615  0.00  0.00    +0.000 A 
ATOM     25  S   UNL     1      53.833   4.303  18.718  0.00  0.00    +0.000 S 
ATOM     26  C   UNL     1      53.341   2.794  18.108  0.00  0.00    +0.000 A 
ATOM     27  N   UNL     1      54.240   1.792  17.914  0.00  0.00    +0.000 NA
ATOM     28  C   UNL     1      53.737   0.711  17.414  0.00  0.00    +0.000 A 
ATOM     29  N   UNL     1      52.414   0.543  17.100  0.00  0.00    +0.000 N 
ATOM     30  C   UNL     1      51.462   1.506  17.328  0.00  0.00    +0.000 A 
ATOM     31  O   UNL     1      50.274   1.289  17.117  0.00  0.00    +0.000 OA
ATOM     32  C   UNL     1      51.982   2.752  17.855  0.00  0.00    +0.000 A 
ATOM     33  H   UNL     1      52.079  -0.334  16.727  0.00  0.00    +0.000 HD
ENDBRANCH  20  23
ENDBRANCH  18  19
ENDBRANCH   4  18
TORSDOF 8
ENDMDL
MODEL 7
REMARK VINA RESULT:    -6.690      3.483      8.041
REMARK INTER + INTRA:         -11.143
REMARK INTER:                  -8.721
REMARK INTRA:                  -2.422
REMARK UNBOUND:                -1.325
REMARK  Name = 
REMARK  9 active torsions:
REMARK  status: ('A' for Active; 'I' for Inactive)
REMARK    1  A    between atoms: C_1  and  C_2
REMARK    2  A    between atoms: C_2  and  N_3
REMARK    3  A    between atoms: N_3  and  C_4
REMARK    4  A    between atoms: N_3  and  C_11
REMARK    5  A    between atoms: C_4  and  C_5
REMARK    6  A    between atoms: C_11  and  C_12
REMARK    7  A    between atoms: C_15  and  C_16
REMARK    8  A    between atoms: C_16  and  N_17
REMARK    9  A    between atoms: C_18  and  C_20
REMARK                            x       y       z     vdW  Elec       q    Type
REMARK                         _______ _______ _______ _____ _____    ______ ____
ROOT
ATOM      1  C   UNL     1      51.105   7.094  17.258  0.00  0.00    +0.000 A 
ATOM      2  C   UNL     1      50.208   7.949  17.903  0.00  0.00    +0.000 A 
ATOM      3  C   UNL     1      49.260   8.644  17.159  0.00  0.00    +0.000 A 
ATOM      4  C   UNL     1      49.245   8.490  15.775  0.00  0.00    +0.000 A 
ATOM      5  N   UNL     1      50.121   7.683  15.122  0.00  0.00    +0.000 NA
ATOM      6  C   UNL     1      51.022   7.011  15.873  0.00  0.00    +0.000 A 
ENDROOT
BRANCH   1   7
ATOM      7  C   UNL     1      52.089   6.253  18.036  0.00  0.00    +0.000 C 
BRANCH   7   8
ATOM      8  N   UNL     1      51.853   4.792  17.899  0.00  0.00    +0.000 NA
BRANCH   8  10
ATOM      9  C   UNL     1      52.998   2.546  18.267  0.00  0.00    +0.000 C 
ATOM     10  C   UNL     1      53.113   4.063  18.175  0.00  0.00    +0.000 C 
ENDBRANCH   8  10
BRANCH   8  11
ATOM     11  C   UNL     1      50.765   4.353  18.803  0.00  0.00    +0.000 C 
BRANCH  11  12
ATOM     12  C   UNL     1      49.488   3.959  18.086  0.00  0.00    +0.000 A 
ATOM     13  C   UNL     1      49.440   2.825  17.268  0.00  0.00    +0.000 A 
ATOM     14  C   UNL     1      48.268   2.551  16.578  0.00  0.00    +0.000 A 
ATOM     15  N   UNL     1      47.154   3.312  16.653  0.00  0.00    +0.000 NA
ATOM     16  C   UNL     1      47.213   4.388  17.464  0.00  0.00    +0.000 A 
ATOM     17  C   UNL     1      48.335   4.742  18.198  0.00  0.00    +0.000 A 
ENDBRANCH  11  12
ENDBRANCH   8  11
ENDBRANCH   7   8
ENDBRANCH   1   7
BRANCH   4  18
ATOM     18  C   UNL     1      48.210   9.206  14.943  0.00  0.00    +0.000 C 
BRANCH  18  19
ATOM     19  N   UNL     1      47.244   8.297  14.360  0.00  0.00    +0.000 N 
ATOM     20  C   UNL     1      46.941   8.300  13.025  0.00  0.00    +0.000 C 
ATOM     21  O   UNL     1      47.457   9.092  12.241  0.00  0.00    +0.000 OA
ATOM     22  H   UNL     1      46.645   7.809  15.018  0.00  0.00    +0.000 HD
BRANCH  20  23
ATOM     23  C   UNL     1      46.019   7.255  12.559  0.00  0.00    +0.000 A 
ATOM     24  C   UNL     1      44.911   7.609  11.802  0.00  0.00    +0.000 A 
ATOM     25  S   UNL     1      43.970   6.279  11.298  0.00  0.00    +0.000 S 
ATOM     26  C   UNL     1      44.982   5.184  12.115  0.00  0.00    +0.000 A 
ATOM     27  N   UNL     1      44.715   3.850  12.111  0.00  0.00    +0.000 NA
ATOM     28  C   UNL     1      45.545   3.136  12.799  0.00  0.00    +0.000 A 
ATOM     29  N   UNL     1      46.622   3.640  13.481  0.00  0.00    +0.000 N 
ATOM     30  C   UNL     1      46.961   4.970  13.470  0.00  0.00    +0.000 A 
ATOM     31  O   UNL     1      47.981   5.371  14.019  0.00  0.00    +0.000 OA
ATOM     32  C   UNL     1      46.039   5.818  12.740  0.00  0.00    +0.000 A 
ATOM     33  H   UNL     1      47.245   3.026  13.988  0.00  0.00    +0.000 HD
ENDBRANCH  20  23
ENDBRANCH  18  19
ENDBRANCH   4  18
TORSDOF 8
ENDMDL
MODEL 8
REMARK VINA RESULT:    -6.625      3.833      9.173
REMARK INTER + INTRA:         -11.048
REMARK INTER:                  -9.611
REMARK INTRA:                  -1.437
REMARK UNBOUND:                -1.325
REMARK  Name = 
REMARK  9 active torsions:
REMARK  status: ('A' for Active; 'I' for Inactive)
REMARK    1  A    between atoms: C_1  and  C_2
REMARK    2  A    between atoms: C_2  and  N_3
REMARK    3  A    between atoms: N_3  and  C_4
REMARK    4  A    between atoms: N_3  and  C_11
REMARK    5  A    between atoms: C_4  and  C_5
REMARK    6  A    between atoms: C_11  and  C_12
REMARK    7  A    between atoms: C_15  and  C_16
REMARK    8  A    between atoms: C_16  and  N_17
REMARK    9  A    between atoms: C_18  and  C_20
REMARK                            x       y       z     vdW  Elec       q    Type
REMARK                         _______ _______ _______ _____ _____    ______ ____
ROOT
ATOM      1  C   UNL     1      51.304   3.276  17.782  0.00  0.00    +0.000 A 
ATOM      2  C   UNL     1      50.538   4.387  18.143  0.00  0.00    +0.000 A 
ATOM      3  C   UNL     1      49.184   4.423  17.825  0.00  0.00    +0.000 A 
ATOM      4  C   UNL     1      48.627   3.355  17.127  0.00  0.00    +0.000 A 
ATOM      5  N   UNL     1      49.355   2.275  16.744  0.00  0.00    +0.000 NA
ATOM      6  C   UNL     1      50.665   2.261  17.078  0.00  0.00    +0.000 A 
ENDROOT
BRANCH   1   7
ATOM      7  C   UNL     1      52.754   3.155  18.186  0.00  0.00    +0.000 C 
BRANCH   7   8
ATOM      8  N   UNL     1      53.441   4.467  18.316  0.00  0.00    +0.000 NA
BRANCH   8  10
ATOM      9  C   UNL     1      53.254   4.018  20.817  0.00  0.00    +0.000 C 
ATOM     10  C   UNL     1      54.073   4.561  19.652  0.00  0.00    +0.000 C 
ENDBRANCH   8  10
BRANCH   8  11
ATOM     11  C   UNL     1      54.436   4.645  17.233  0.00  0.00    +0.000 C 
BRANCH  11  12
ATOM     12  C   UNL     1      54.124   5.792  16.292  0.00  0.00    +0.000 A 
ATOM     13  C   UNL     1      55.076   6.256  15.378  0.00  0.00    +0.000 A 
ATOM     14  C   UNL     1      54.765   7.354  14.591  0.00  0.00    +0.000 A 
ATOM     15  N   UNL     1      53.583   8.008  14.644  0.00  0.00    +0.000 NA
ATOM     16  C   UNL     1      52.670   7.533  15.515  0.00  0.00    +0.000 A 
ATOM     17  C   UNL     1      52.885   6.439  16.339  0.00  0.00    +0.000 A 
ENDBRANCH  11  12
ENDBRANCH   8  11
ENDBRANCH   7   8
ENDBRANCH   1   7
BRANCH   4  18
ATOM     18  C   UNL     1      47.155   3.352  16.794  0.00  0.00    +0.000 C 
BRANCH  18  19
ATOM     19  N   UNL     1      46.805   4.364  15.819  0.00  0.00    +0.000 N 
ATOM     20  C   UNL     1      46.821   4.127  14.471  0.00  0.00    +0.000 C 
ATOM     21  O   UNL     1      47.156   3.042  14.004  0.00  0.00    +0.000 OA
ATOM     22  H   UNL     1      46.760   5.317  16.169  0.00  0.00    +0.000 HD
BRANCH  20  23
ATOM     23  C   UNL     1      46.346   5.217  13.607  0.00  0.00    +0.000 A 
ATOM     24  C   UNL     1      47.145   6.336  13.416  0.00  0.00    +0.000 A 
ATOM     25  S   UNL     1      46.474   7.485  12.348  0.00  0.00    +0.000 S 
ATOM     26  C   UNL     1      45.068   6.551  12.140  0.00  0.00    +0.000 A 
ATOM     27  N   UNL     1      44.050   6.987  11.351  0.00  0.00    +0.000 NA
ATOM     28  C   UNL     1      43.029   6.196  11.309  0.00  0.00    +0.000 A 
ATOM     29  N   UNL     1      42.942   5.004  11.979  0.00  0.00    +0.000 N 
ATOM     30  C   UNL     1      43.964   4.498  12.744  0.00  0.00    +0.000 A 
ATOM     31  O   UNL     1      43.885   3.388  13.257  0.00  0.00    +0.000 OA
ATOM     32  C   UNL     1      45.120   5.366  12.852  0.00  0.00    +0.000 A 
ATOM     33  H   UNL     1      42.121   4.421  11.892  0.00  0.00    +0.000 HD
ENDBRANCH  20  23
ENDBRANCH  18  19
ENDBRANCH   4  18
TORSDOF 8
ENDMDL
MODEL 9
REMARK VINA RESULT:    -6.557      3.793      9.519
REMARK INTER + INTRA:         -10.949
REMARK INTER:                  -9.601
REMARK INTRA:                  -1.348
REMARK UNBOUND:                -1.325
REMARK  Name = 
REMARK  9 active torsions:
REMARK  status: ('A' for Active; 'I' for Inactive)
REMARK    1  A    between atoms: C_1  and  C_2
REMARK    2  A    between atoms: C_2  and  N_3
REMARK    3  A    between atoms: N_3  and  C_4
REMARK    4  A    between atoms: N_3  and  C_11
REMARK    5  A    between atoms: C_4  and  C_5
REMARK    6  A    between atoms: C_11  and  C_12
REMARK    7  A    between atoms: C_15  and  C_16
REMARK    8  A    between atoms: C_16  and  N_17
REMARK    9  A    between atoms: C_18  and  C_20
REMARK                            x       y       z     vdW  Elec       q    Type
REMARK                         _______ _______ _______ _____ _____    ______ ____
ROOT
ATOM      1  C   UNL     1      50.711   5.181  18.788  0.00  0.00    +0.000 A 
ATOM      2  C   UNL     1      49.658   4.583  19.484  0.00  0.00    +0.000 A 
ATOM      3  C   UNL     1      48.576   4.059  18.782  0.00  0.00    +0.000 A 
ATOM      4  C   UNL     1      48.558   4.168  17.395  0.00  0.00    +0.000 A 
ATOM      5  N   UNL     1      49.558   4.765  16.696  0.00  0.00    +0.000 NA
ATOM      6  C   UNL     1      50.602   5.253  17.404  0.00  0.00    +0.000 A 
ENDROOT
BRANCH   1   7
ATOM      7  C   UNL     1      51.944   5.680  19.503  0.00  0.00    +0.000 C 
BRANCH   7   8
ATOM      8  N   UNL     1      53.207   5.100  18.976  0.00  0.00    +0.000 NA
BRANCH   8  10
ATOM      9  C   UNL     1      55.686   5.492  19.414  0.00  0.00    +0.000 C 
ATOM     10  C   UNL     1      54.306   6.080  19.146  0.00  0.00    +0.000 C 
ENDBRANCH   8  10
BRANCH   8  11
ATOM     11  C   UNL     1      53.515   3.819  19.653  0.00  0.00    +0.000 C 
BRANCH  11  12
ATOM     12  C   UNL     1      53.570   2.626  18.719  0.00  0.00    +0.000 A 
ATOM     13  C   UNL     1      52.405   2.092  18.160  0.00  0.00    +0.000 A 
ATOM     14  C   UNL     1      52.505   0.956  17.370  0.00  0.00    +0.000 A 
ATOM     15  N   UNL     1      53.671   0.331  17.094  0.00  0.00    +0.000 NA
ATOM     16  C   UNL     1      54.786   0.874  17.622  0.00  0.00    +0.000 A 
ATOM     17  C   UNL     1      54.789   2.009  18.419  0.00  0.00    +0.000 A 
ENDBRANCH  11  12
ENDBRANCH   8  11
ENDBRANCH   7   8
ENDBRANCH   1   7
BRANCH   4  18
ATOM     18  C   UNL     1      47.414   3.582  16.603  0.00  0.00    +0.000 C 
BRANCH  18  19
ATOM     19  N   UNL     1      46.861   4.524  15.651  0.00  0.00    +0.000 N 
ATOM     20  C   UNL     1      46.794   4.264  14.309  0.00  0.00    +0.000 C 
ATOM     21  O   UNL     1      47.222   3.219  13.826  0.00  0.00    +0.000 OA
ATOM     22  H   UNL     1      46.726   5.470  15.995  0.00  0.00    +0.000 HD
BRANCH  20  23
ATOM     23  C   UNL     1      46.117   5.269  13.479  0.00  0.00    +0.000 A 
ATOM     24  C   UNL     1      46.718   6.502  13.271  0.00  0.00    +0.000 A 
ATOM     25  S   UNL     1      45.830   7.535  12.244  0.00  0.00    +0.000 S 
ATOM     26  C   UNL     1      44.584   6.390  12.080  0.00  0.00    +0.000 A 
ATOM     27  N   UNL     1      43.478   6.662  11.336  0.00  0.00    +0.000 NA
ATOM     28  C   UNL     1      42.595   5.718  11.324  0.00  0.00    +0.000 A 
ATOM     29  N   UNL     1      42.727   4.523  11.982  0.00  0.00    +0.000 N 
ATOM     30  C   UNL     1      43.847   4.183  12.700  0.00  0.00    +0.000 A 
ATOM     31  O   UNL     1      43.967   3.071  13.202  0.00  0.00    +0.000 OA
ATOM     32  C   UNL     1      44.853   5.224  12.774  0.00  0.00    +0.000 A 
ATOM     33  H   UNL     1      42.007   3.817  11.919  0.00  0.00    +0.000 HD
ENDBRANCH  20  23
ENDBRANCH  18  19
ENDBRANCH   4  18
TORSDOF 8
ENDMDL
