MODEL 1
REMARK VINA RESULT:    -7.464      0.000      0.000
REMARK INTER + INTRA:         -11.568
REMARK INTER:                 -10.518
REMARK INTRA:                  -1.050
REMARK UNBOUND:                -1.050
REMARK  Name = 
REMARK  8 active torsions:
REMARK  status: ('A' for Active; 'I' for Inactive)
REMARK    1  A    between atoms: C_1  and  C_2
REMARK    2  A    between atoms: C_2  and  C_3
REMARK    3  A    between atoms: C_2  and  C_18
REMARK    4  A    between atoms: C_3  and  O_4
REMARK    5  A    between atoms: O_4  and  C_5
REMARK    6  A    between atoms: C_8  and  C_9
REMARK    7  A    between atoms: C_12  and  C_13
REMARK    8  A    between atoms: C_22  and  C_23
REMARK                            x       y       z     vdW  Elec       q    Type
REMARK                         _______ _______ _______ _____ _____    ______ ____
ROOT
ATOM      1  C   UNL     1      45.108   5.718  12.930  0.00  0.00    +0.000 A 
ATOM      2  C   UNL     1      46.153   4.925  13.375  0.00  0.00    +0.000 A 
ATOM      3  N   UNL     1      47.426   5.366  13.524  0.00  0.00    +0.000 NA
ATOM      4  C   UNL     1      47.671   6.690  13.268  0.00  0.00    +0.000 A 
ATOM      5  C   UNL     1      46.697   7.571  12.830  0.00  0.00    +0.000 A 
ATOM      6  C   UNL     1      45.393   7.055  12.678  0.00  0.00    +0.000 A 
ENDROOT
BRANCH   4   7
ATOM      7  C   UNL     1      49.092   7.099  13.512  0.00  0.00    +0.000 C 
ATOM      8  N   UNL     1      49.935   6.957  12.441  0.00  0.00    +0.000 N 
ATOM      9  O   UNL     1      49.494   7.504  14.592  0.00  0.00    +0.000 OA
ATOM     10  H   UNL     1      49.641   6.406  11.643  0.00  0.00    +0.000 HD
ATOM     11  H   UNL     1      50.919   7.137  12.586  0.00  0.00    +0.000 HD
ENDBRANCH   4   7
BRANCH   5  12
ATOM     12  C   UNL     1      46.904   9.006  12.459  0.00  0.00    +0.000 C 
ATOM     13  F   UNL     1      45.831   9.745  12.102  0.00  0.00    +0.000 F 
ATOM     14  F   UNL     1      47.447   9.690  13.514  0.00  0.00    +0.000 F 
ATOM     15  F   UNL     1      47.819   9.138  11.455  0.00  0.00    +0.000 F 
ENDBRANCH   5  12
BRANCH   1  16
ATOM     16  O   UNL     1      43.873   5.151  12.796  0.00  0.00    +0.000 OA
BRANCH  16  17
ATOM     17  C   UNL     1      43.407   5.053  11.444  0.00  0.00    +0.000 C 
BRANCH  17  19
ATOM     18  C   UNL     1      43.382   2.498  11.720  0.00  0.00    +0.000 C 
ATOM     19  C   UNL     1      43.744   3.697  10.901  0.00  0.00    +0.000 C 
BRANCH  19  20
ATOM     20  C   UNL     1      44.676   3.558   9.777  0.00  0.00    +0.000 A 
ATOM     21  C   UNL     1      45.143   4.677   9.074  0.00  0.00    +0.000 A 
ATOM     22  C   UNL     1      46.029   4.525   8.004  0.00  0.00    +0.000 A 
ATOM     23  C   UNL     1      46.457   3.254   7.624  0.00  0.00    +0.000 A 
ATOM     24  C   UNL     1      45.998   2.134   8.315  0.00  0.00    +0.000 A 
ATOM     25  C   UNL     1      45.112   2.287   9.386  0.00  0.00    +0.000 A 
BRANCH  24  26
ATOM     26  C   UNL     1      46.426   0.822   7.934  0.00  0.00    +0.000 C 
ATOM     27  N   UNL     1      46.786  -0.239   7.624  0.00  0.00    +0.000 NA
ENDBRANCH  24  26
ENDBRANCH  19  20
ENDBRANCH  17  19
ENDBRANCH  16  17
ENDBRANCH   1  16
TORSDOF 7
ENDMDL
MODEL 2
REMARK VINA RESULT:    -7.154      1.970      2.616
REMARK INTER + INTRA:         -11.131
REMARK INTER:                 -10.812
REMARK INTRA:                  -0.319
REMARK UNBOUND:                -1.050
REMARK  Name = 
REMARK  8 active torsions:
REMARK  status: ('A' for Active; 'I' for Inactive)
REMARK    1  A    between atoms: C_1  and  C_2
REMARK    2  A    between atoms: C_2  and  C_3
REMARK    3  A    between atoms: C_2  and  C_18
REMARK    4  A    between atoms: C_3  and  O_4
REMARK    5  A    between atoms: O_4  and  C_5
REMARK    6  A    between atoms: C_8  and  C_9
REMARK    7  A    between atoms: C_12  and  C_13
REMARK    8  A    between atoms: C_22  and  C_23
REMARK                            x       y       z     vdW  Elec       q    Type
REMARK                         _______ _______ _______ _____ _____    ______ ____
ROOT
ATOM      1  C   UNL     1      46.290   5.393  12.484  0.00  0.00    +0.000 A 
ATOM      2  C   UNL     1      45.964   4.302  13.274  0.00  0.00    +0.000 A 
ATOM      3  N   UNL     1      46.501   4.067  14.497  0.00  0.00    +0.000 NA
ATOM      4  C   UNL     1      47.377   4.997  14.992  0.00  0.00    +0.000 A 
ATOM      5  C   UNL     1      47.762   6.127  14.290  0.00  0.00    +0.000 A 
ATOM      6  C   UNL     1      47.184   6.315  13.018  0.00  0.00    +0.000 A 
ENDROOT
BRANCH   4   7
ATOM      7  C   UNL     1      47.876   4.681  16.370  0.00  0.00    +0.000 C 
ATOM      8  N   UNL     1      47.047   5.057  17.393  0.00  0.00    +0.000 N 
ATOM      9  O   UNL     1      48.956   4.152  16.583  0.00  0.00    +0.000 OA
ATOM     10  H   UNL     1      46.283   5.696  17.209  0.00  0.00    +0.000 HD
ATOM     11  H   UNL     1      47.382   4.943  18.340  0.00  0.00    +0.000 HD
ENDBRANCH   4   7
BRANCH   5  12
ATOM     12  C   UNL     1      48.766   7.144  14.734  0.00  0.00    +0.000 C 
ATOM     13  F   UNL     1      50.053   6.761  14.886  0.00  0.00    +0.000 F 
ATOM     14  F   UNL     1      48.826   8.171  13.830  0.00  0.00    +0.000 F 
ATOM     15  F   UNL     1      48.397   7.737  15.905  0.00  0.00    +0.000 F 
ENDBRANCH   5  12
BRANCH   1  16
ATOM     16  O   UNL     1      45.700   5.507  11.258  0.00  0.00    +0.000 OA
BRANCH  16  17
ATOM     17  C   UNL     1      44.317   5.130  11.226  0.00  0.00    +0.000 C 
BRANCH  17  19
ATOM     18  C   UNL     1      43.404   2.728  11.210  0.00  0.00    +0.000 C 
ATOM     19  C   UNL     1      44.179   3.811  10.528  0.00  0.00    +0.000 C 
BRANCH  19  20
ATOM     20  C   UNL     1      45.036   3.484   9.384  0.00  0.00    +0.000 A 
ATOM     21  C   UNL     1      45.521   4.481   8.527  0.00  0.00    +0.000 A 
ATOM     22  C   UNL     1      46.335   4.152   7.440  0.00  0.00    +0.000 A 
ATOM     23  C   UNL     1      46.672   2.821   7.197  0.00  0.00    +0.000 A 
ATOM     24  C   UNL     1      46.194   1.820   8.041  0.00  0.00    +0.000 A 
ATOM     25  C   UNL     1      45.381   2.152   9.129  0.00  0.00    +0.000 A 
BRANCH  24  26
ATOM     26  C   UNL     1      46.530   0.449   7.801  0.00  0.00    +0.000 C 
ATOM     27  N   UNL     1      46.790  -0.667   7.609  0.00  0.00    +0.000 NA
ENDBRANCH  24  26
ENDBRANCH  19  20
ENDBRANCH  17  19
ENDBRANCH  16  17
ENDBRANCH   1  16
TORSDOF 7
ENDMDL
MODEL 3
REMARK VINA RESULT:    -6.855      3.244      3.790
REMARK INTER + INTRA:         -10.711
REMARK INTER:                  -9.979
REMARK INTRA:                  -0.732
REMARK UNBOUND:                -1.050
REMARK  Name = 
REMARK  8 active torsions:
REMARK  status: ('A' for Active; 'I' for Inactive)
REMARK    1  A    between atoms: C_1  and  C_2
REMARK    2  A    between atoms: C_2  and  C_3
REMARK    3  A    between atoms: C_2  and  C_18
REMARK    4  A    between atoms: C_3  and  O_4
REMARK    5  A    between atoms: O_4  and  C_5
REMARK    6  A    between atoms: C_8  and  C_9
REMARK    7  A    between atoms: C_12  and  C_13
REMARK    8  A    between atoms: C_22  and  C_23
REMARK                            x       y       z     vdW  Elec       q    Type
REMARK                         _______ _______ _______ _____ _____    ______ ____
ROOT
ATOM      1  C   UNL     1      46.705   4.346  14.087  0.00  0.00    +0.000 A 
ATOM      2  C   UNL     1      47.372   5.484  13.664  0.00  0.00    +0.000 A 
ATOM      3  N   UNL     1      48.167   6.236  14.467  0.00  0.00    +0.000 NA
ATOM      4  C   UNL     1      48.354   5.806  15.754  0.00  0.00    +0.000 A 
ATOM      5  C   UNL     1      47.744   4.677  16.274  0.00  0.00    +0.000 A 
ATOM      6  C   UNL     1      46.917   3.940  15.400  0.00  0.00    +0.000 A 
ENDROOT
BRANCH   4   7
ATOM      7  C   UNL     1      49.289   6.668  16.547  0.00  0.00    +0.000 C 
ATOM      8  N   UNL     1      50.619   6.373  16.408  0.00  0.00    +0.000 N 
ATOM      9  O   UNL     1      48.906   7.557  17.293  0.00  0.00    +0.000 OA
ATOM     10  H   UNL     1      50.895   5.497  15.981  0.00  0.00    +0.000 HD
ATOM     11  H   UNL     1      51.279   6.871  16.990  0.00  0.00    +0.000 HD
ENDBRANCH   4   7
BRANCH   5  12
ATOM     12  C   UNL     1      47.842   4.189  17.685  0.00  0.00    +0.000 C 
ATOM     13  F   UNL     1      47.409   4.993  18.680  0.00  0.00    +0.000 F 
ATOM     14  F   UNL     1      47.112   3.041  17.837  0.00  0.00    +0.000 F 
ATOM     15  F   UNL     1      49.119   3.829  18.004  0.00  0.00    +0.000 F 
ENDBRANCH   5  12
BRANCH   1  16
ATOM     16  O   UNL     1      45.912   3.687  13.192  0.00  0.00    +0.000 OA
BRANCH  16  17
ATOM     17  C   UNL     1      45.130   4.543  12.348  0.00  0.00    +0.000 C 
BRANCH  17  19
ATOM     18  C   UNL     1      43.337   2.828  11.680  0.00  0.00    +0.000 C 
ATOM     19  C   UNL     1      44.470   3.719  11.283  0.00  0.00    +0.000 C 
BRANCH  19  20
ATOM     20  C   UNL     1      45.113   3.544   9.977  0.00  0.00    +0.000 A 
ATOM     21  C   UNL     1      45.376   4.637   9.140  0.00  0.00    +0.000 A 
ATOM     22  C   UNL     1      45.987   4.450   7.897  0.00  0.00    +0.000 A 
ATOM     23  C   UNL     1      46.342   3.169   7.477  0.00  0.00    +0.000 A 
ATOM     24  C   UNL     1      46.084   2.074   8.300  0.00  0.00    +0.000 A 
ATOM     25  C   UNL     1      45.473   2.262   9.543  0.00  0.00    +0.000 A 
BRANCH  24  26
ATOM     26  C   UNL     1      46.439   0.753   7.879  0.00  0.00    +0.000 C 
ATOM     27  N   UNL     1      46.737  -0.321   7.547  0.00  0.00    +0.000 NA
ENDBRANCH  24  26
ENDBRANCH  19  20
ENDBRANCH  17  19
ENDBRANCH  16  17
ENDBRANCH   1  16
TORSDOF 7
ENDMDL
MODEL 4
REMARK VINA RESULT:    -6.710      3.259      6.980
REMARK INTER + INTRA:         -10.506
REMARK INTER:                  -9.527
REMARK INTRA:                  -0.979
REMARK UNBOUND:                -1.050
REMARK  Name = 
REMARK  8 active torsions:
REMARK  status: ('A' for Active; 'I' for Inactive)
REMARK    1  A    between atoms: C_1  and  C_2
REMARK    2  A    between atoms: C_2  and  C_3
REMARK    3  A    between atoms: C_2  and  C_18
REMARK    4  A    between atoms: C_3  and  O_4
REMARK    5  A    between atoms: O_4  and  C_5
REMARK    6  A    between atoms: C_8  and  C_9
REMARK    7  A    between atoms: C_12  and  C_13
REMARK    8  A    between atoms: C_22  and  C_23
REMARK                            x       y       z     vdW  Elec       q    Type
REMARK                         _______ _______ _______ _____ _____    ______ ____
ROOT
ATOM      1  C   UNL     1      46.154   6.986  11.840  0.00  0.00    +0.000 A 
ATOM      2  C   UNL     1      45.410   6.556  12.926  0.00  0.00    +0.000 A 
ATOM      3  N   UNL     1      44.601   5.467  12.904  0.00  0.00    +0.000 NA
ATOM      4  C   UNL     1      44.567   4.728  11.751  0.00  0.00    +0.000 A 
ATOM      5  C   UNL     1      45.280   5.064  10.612  0.00  0.00    +0.000 A 
ATOM      6  C   UNL     1      46.094   6.213  10.686  0.00  0.00    +0.000 A 
ENDROOT
BRANCH   4   7
ATOM      7  C   UNL     1      43.690   3.516  11.838  0.00  0.00    +0.000 C 
ATOM      8  N   UNL     1      44.196   2.479  12.577  0.00  0.00    +0.000 N 
ATOM      9  O   UNL     1      42.610   3.431  11.273  0.00  0.00    +0.000 OA
ATOM     10  H   UNL     1      45.176   2.478  12.833  0.00  0.00    +0.000 HD
ATOM     11  H   UNL     1      43.679   1.610  12.591  0.00  0.00    +0.000 HD
ENDBRANCH   4   7
BRANCH   5  12
ATOM     12  C   UNL     1      45.234   4.350   9.298  0.00  0.00    +0.000 C 
ATOM     13  F   UNL     1      44.085   4.369   8.589  0.00  0.00    +0.000 F 
ATOM     14  F   UNL     1      46.166   4.877   8.444  0.00  0.00    +0.000 F 
ATOM     15  F   UNL     1      45.589   3.038   9.427  0.00  0.00    +0.000 F 
ENDBRANCH   5  12
BRANCH   1  16
ATOM     16  O   UNL     1      46.913   8.113  11.977  0.00  0.00    +0.000 OA
BRANCH  16  17
ATOM     17  C   UNL     1      47.371   8.362  13.313  0.00  0.00    +0.000 C 
BRANCH  17  19
ATOM     18  C   UNL     1      49.620   7.635  12.305  0.00  0.00    +0.000 C 
ATOM     19  C   UNL     1      48.723   7.740  13.496  0.00  0.00    +0.000 C 
BRANCH  19  20
ATOM     20  C   UNL     1      49.027   6.972  14.709  0.00  0.00    +0.000 A 
ATOM     21  C   UNL     1      50.209   7.185  15.431  0.00  0.00    +0.000 A 
ATOM     22  C   UNL     1      50.483   6.443  16.583  0.00  0.00    +0.000 A 
ATOM     23  C   UNL     1      49.578   5.479  17.025  0.00  0.00    +0.000 A 
ATOM     24  C   UNL     1      48.400   5.257  16.314  0.00  0.00    +0.000 A 
ATOM     25  C   UNL     1      48.127   6.001  15.162  0.00  0.00    +0.000 A 
BRANCH  24  26
ATOM     26  C   UNL     1      47.464   4.267  16.755  0.00  0.00    +0.000 C 
ATOM     27  N   UNL     1      46.712   3.454  17.107  0.00  0.00    +0.000 NA
ENDBRANCH  24  26
ENDBRANCH  19  20
ENDBRANCH  17  19
ENDBRANCH  16  17
ENDBRANCH   1  16
TORSDOF 7
ENDMDL
MODEL 5
REMARK VINA RESULT:    -6.636      2.557      3.538
REMARK INTER + INTRA:         -10.401
REMARK INTER:                  -9.675
REMARK INTRA:                  -0.727
REMARK UNBOUND:                -1.050
REMARK  Name = 
REMARK  8 active torsions:
REMARK  status: ('A' for Active; 'I' for Inactive)
REMARK    1  A    between atoms: C_1  and  C_2
REMARK    2  A    between atoms: C_2  and  C_3
REMARK    3  A    between atoms: C_2  and  C_18
REMARK    4  A    between atoms: C_3  and  O_4
REMARK    5  A    between atoms: O_4  and  C_5
REMARK    6  A    between atoms: C_8  and  C_9
REMARK    7  A    between atoms: C_12  and  C_13
REMARK    8  A    between atoms: C_22  and  C_23
REMARK                            x       y       z     vdW  Elec       q    Type
REMARK                         _______ _______ _______ _____ _____    ______ ____
ROOT
ATOM      1  C   UNL     1      46.769   5.550  12.919  0.00  0.00    +0.000 A 
ATOM      2  C   UNL     1      46.259   4.414  13.526  0.00  0.00    +0.000 A 
ATOM      3  N   UNL     1      46.606   4.003  14.771  0.00  0.00    +0.000 NA
ATOM      4  C   UNL     1      47.472   4.794  15.480  0.00  0.00    +0.000 A 
ATOM      5  C   UNL     1      48.030   5.954  14.972  0.00  0.00    +0.000 A 
ATOM      6  C   UNL     1      47.646   6.328  13.667  0.00  0.00    +0.000 A 
ENDROOT
BRANCH   4   7
ATOM      7  C   UNL     1      47.753   4.288  16.863  0.00  0.00    +0.000 C 
ATOM      8  N   UNL     1      46.934   4.780  17.845  0.00  0.00    +0.000 N 
ATOM      9  O   UNL     1      48.664   3.515  17.119  0.00  0.00    +0.000 OA
ATOM     10  H   UNL     1      46.351   5.587  17.652  0.00  0.00    +0.000 HD
ATOM     11  H   UNL     1      47.142   4.535  18.803  0.00  0.00    +0.000 HD
ENDBRANCH   4   7
BRANCH   5  12
ATOM     12  C   UNL     1      49.035   6.825  15.657  0.00  0.00    +0.000 C 
ATOM     13  F   UNL     1      50.189   6.269  16.087  0.00  0.00    +0.000 F 
ATOM     14  F   UNL     1      49.438   7.829  14.817  0.00  0.00    +0.000 F 
ATOM     15  F   UNL     1      48.492   7.472  16.729  0.00  0.00    +0.000 F 
ENDBRANCH   5  12
BRANCH   1  16
ATOM     16  O   UNL     1      46.362   5.847  11.650  0.00  0.00    +0.000 OA
BRANCH  16  17
ATOM     17  C   UNL     1      45.137   6.589  11.576  0.00  0.00    +0.000 C 
BRANCH  17  19
ATOM     18  C   UNL     1      42.674   5.862  11.635  0.00  0.00    +0.000 C 
ATOM     19  C   UNL     1      44.047   5.696  11.066  0.00  0.00    +0.000 C 
BRANCH  19  20
ATOM     20  C   UNL     1      44.374   4.497  10.287  0.00  0.00    +0.000 A 
ATOM     21  C   UNL     1      43.973   3.221  10.707  0.00  0.00    +0.000 A 
ATOM     22  C   UNL     1      44.297   2.090   9.953  0.00  0.00    +0.000 A 
ATOM     23  C   UNL     1      45.026   2.221   8.773  0.00  0.00    +0.000 A 
ATOM     24  C   UNL     1      45.432   3.485   8.346  0.00  0.00    +0.000 A 
ATOM     25  C   UNL     1      45.107   4.615   9.101  0.00  0.00    +0.000 A 
BRANCH  24  26
ATOM     26  C   UNL     1      46.185   3.633   7.137  0.00  0.00    +0.000 C 
ATOM     27  N   UNL     1      46.787   3.747   6.150  0.00  0.00    +0.000 NA
ENDBRANCH  24  26
ENDBRANCH  19  20
ENDBRANCH  17  19
ENDBRANCH  16  17
ENDBRANCH   1  16
TORSDOF 7
ENDMDL
MODEL 6
REMARK VINA RESULT:    -6.485      3.230      4.744
REMARK INTER + INTRA:         -10.189
REMARK INTER:                  -9.220
REMARK INTRA:                  -0.969
REMARK UNBOUND:                -1.050
REMARK  Name = 
REMARK  8 active torsions:
REMARK  status: ('A' for Active; 'I' for Inactive)
REMARK    1  A    between atoms: C_1  and  C_2
REMARK    2  A    between atoms: C_2  and  C_3
REMARK    3  A    between atoms: C_2  and  C_18
REMARK    4  A    between atoms: C_3  and  O_4
REMARK    5  A    between atoms: O_4  and  C_5
REMARK    6  A    between atoms: C_8  and  C_9
REMARK    7  A    between atoms: C_12  and  C_13
REMARK    8  A    between atoms: C_22  and  C_23
REMARK                            x       y       z     vdW  Elec       q    Type
REMARK                         _______ _______ _______ _____ _____    ______ ____
ROOT
ATOM      1  C   UNL     1      47.500   5.599  13.605  0.00  0.00    +0.000 A 
ATOM      2  C   UNL     1      47.169   4.254  13.562  0.00  0.00    +0.000 A 
ATOM      3  N   UNL     1      47.276   3.416  14.624  0.00  0.00    +0.000 NA
ATOM      4  C   UNL     1      47.686   3.954  15.816  0.00  0.00    +0.000 A 
ATOM      5  C   UNL     1      48.030   5.286  15.969  0.00  0.00    +0.000 A 
ATOM      6  C   UNL     1      47.914   6.110  14.830  0.00  0.00    +0.000 A 
ENDROOT
BRANCH   4   7
ATOM      7  C   UNL     1      47.722   2.965  16.942  0.00  0.00    +0.000 C 
ATOM      8  N   UNL     1      48.926   2.343  17.138  0.00  0.00    +0.000 N 
ATOM      9  O   UNL     1      46.746   2.700  17.628  0.00  0.00    +0.000 OA
ATOM     10  H   UNL     1      49.640   2.399  16.421  0.00  0.00    +0.000 HD
ATOM     11  H   UNL     1      48.973   1.606  17.828  0.00  0.00    +0.000 HD
ENDBRANCH   4   7
BRANCH   5  12
ATOM     12  C   UNL     1      48.555   5.926  17.216  0.00  0.00    +0.000 C 
ATOM     13  F   UNL     1      49.672   5.421  17.782  0.00  0.00    +0.000 F 
ATOM     14  F   UNL     1      48.862   7.239  16.977  0.00  0.00    +0.000 F 
ATOM     15  F   UNL     1      47.607   5.967  18.197  0.00  0.00    +0.000 F 
ENDBRANCH   5  12
BRANCH   1  16
ATOM     16  O   UNL     1      47.374   6.335  12.462  0.00  0.00    +0.000 OA
BRANCH  16  17
ATOM     17  C   UNL     1      46.518   7.479  12.583  0.00  0.00    +0.000 C 
BRANCH  17  19
ATOM     18  C   UNL     1      44.503   8.416  11.292  0.00  0.00    +0.000 C 
ATOM     19  C   UNL     1      45.252   7.233  11.818  0.00  0.00    +0.000 C 
BRANCH  19  20
ATOM     20  C   UNL     1      44.601   5.919  11.864  0.00  0.00    +0.000 A 
ATOM     21  C   UNL     1      43.778   5.549  12.936  0.00  0.00    +0.000 A 
ATOM     22  C   UNL     1      43.169   4.291  12.963  0.00  0.00    +0.000 A 
ATOM     23  C   UNL     1      43.377   3.390  11.921  0.00  0.00    +0.000 A 
ATOM     24  C   UNL     1      44.195   3.747  10.850  0.00  0.00    +0.000 A 
ATOM     25  C   UNL     1      44.804   5.005  10.823  0.00  0.00    +0.000 A 
BRANCH  24  26
ATOM     26  C   UNL     1      44.421   2.829   9.774  0.00  0.00    +0.000 C 
ATOM     27  N   UNL     1      44.596   2.092   8.893  0.00  0.00    +0.000 NA
ENDBRANCH  24  26
ENDBRANCH  19  20
ENDBRANCH  17  19
ENDBRANCH  16  17
ENDBRANCH   1  16
TORSDOF 7
ENDMDL
MODEL 7
REMARK VINA RESULT:    -6.367      3.631      4.437
REMARK INTER + INTRA:         -10.023
REMARK INTER:                  -9.373
REMARK INTRA:                  -0.650
REMARK UNBOUND:                -1.050
REMARK  Name = 
REMARK  8 active torsions:
REMARK  status: ('A' for Active; 'I' for Inactive)
REMARK    1  A    between atoms: C_1  and  C_2
REMARK    2  A    between atoms: C_2  and  C_3
REMARK    3  A    between atoms: C_2  and  C_18
REMARK    4  A    between atoms: C_3  and  O_4
REMARK    5  A    between atoms: O_4  and  C_5
REMARK    6  A    between atoms: C_8  and  C_9
REMARK    7  A    between atoms: C_12  and  C_13
REMARK    8  A    between atoms: C_22  and  C_23
REMARK                            x       y       z     vdW  Elec       q    Type
REMARK                         _______ _______ _______ _____ _____    ______ ____
ROOT
ATOM      1  C   UNL     1      47.123   5.186  14.121  0.00  0.00    +0.000 A 
ATOM      2  C   UNL     1      48.025   6.238  14.100  0.00  0.00    +0.000 A 
ATOM      3  N   UNL     1      48.845   6.551  15.134  0.00  0.00    +0.000 NA
ATOM      4  C   UNL     1      48.808   5.740  16.239  0.00  0.00    +0.000 A 
ATOM      5  C   UNL     1      47.954   4.657  16.358  0.00  0.00    +0.000 A 
ATOM      6  C   UNL     1      47.112   4.386  15.259  0.00  0.00    +0.000 A 
ENDROOT
BRANCH   4   7
ATOM      7  C   UNL     1      49.786   6.131  17.305  0.00  0.00    +0.000 C 
ATOM      8  N   UNL     1      50.994   5.486  17.258  0.00  0.00    +0.000 N 
ATOM      9  O   UNL     1      49.530   6.945  18.180  0.00  0.00    +0.000 OA
ATOM     10  H   UNL     1      51.097   4.659  16.682  0.00  0.00    +0.000 HD
ATOM     11  H   UNL     1      51.650   5.654  18.008  0.00  0.00    +0.000 HD
ENDBRANCH   4   7
BRANCH   5  12
ATOM     12  C   UNL     1      47.805   3.776  17.558  0.00  0.00    +0.000 C 
ATOM     13  F   UNL     1      48.858   3.021  17.942  0.00  0.00    +0.000 F 
ATOM     14  F   UNL     1      47.512   4.531  18.662  0.00  0.00    +0.000 F 
ATOM     15  F   UNL     1      46.745   2.927  17.429  0.00  0.00    +0.000 F 
ENDBRANCH   5  12
BRANCH   1  16
ATOM     16  O   UNL     1      46.332   4.986  13.027  0.00  0.00    +0.000 OA
BRANCH  16  17
ATOM     17  C   UNL     1      46.302   6.085  12.107  0.00  0.00    +0.000 C 
BRANCH  17  19
ATOM     18  C   UNL     1      43.969   6.845  11.344  0.00  0.00    +0.000 C 
ATOM     19  C   UNL     1      45.135   5.923  11.180  0.00  0.00    +0.000 C 
BRANCH  19  20
ATOM     20  C   UNL     1      44.998   4.710  10.366  0.00  0.00    +0.000 A 
ATOM     21  C   UNL     1      44.263   3.606  10.818  0.00  0.00    +0.000 A 
ATOM     22  C   UNL     1      44.146   2.459  10.029  0.00  0.00    +0.000 A 
ATOM     23  C   UNL     1      44.762   2.402   8.780  0.00  0.00    +0.000 A 
ATOM     24  C   UNL     1      45.497   3.494   8.320  0.00  0.00    +0.000 A 
ATOM     25  C   UNL     1      45.613   4.641   9.110  0.00  0.00    +0.000 A 
BRANCH  24  26
ATOM     26  C   UNL     1      46.138   3.448   7.041  0.00  0.00    +0.000 C 
ATOM     27  N   UNL     1      46.666   3.421   6.006  0.00  0.00    +0.000 NA
ENDBRANCH  24  26
ENDBRANCH  19  20
ENDBRANCH  17  19
ENDBRANCH  16  17
ENDBRANCH   1  16
TORSDOF 7
ENDMDL
MODEL 8
REMARK VINA RESULT:    -6.362      4.031      7.365
REMARK INTER + INTRA:         -10.016
REMARK INTER:                  -8.838
REMARK INTRA:                  -1.178
REMARK UNBOUND:                -1.050
REMARK  Name = 
REMARK  8 active torsions:
REMARK  status: ('A' for Active; 'I' for Inactive)
REMARK    1  A    between atoms: C_1  and  C_2
REMARK    2  A    between atoms: C_2  and  C_3
REMARK    3  A    between atoms: C_2  and  C_18
REMARK    4  A    between atoms: C_3  and  O_4
REMARK    5  A    between atoms: O_4  and  C_5
REMARK    6  A    between atoms: C_8  and  C_9
REMARK    7  A    between atoms: C_12  and  C_13
REMARK    8  A    between atoms: C_22  and  C_23
REMARK                            x       y       z     vdW  Elec       q    Type
REMARK                         _______ _______ _______ _____ _____    ______ ____
ROOT
ATOM      1  C   UNL     1      46.776   7.612  12.864  0.00  0.00    +0.000 A 
ATOM      2  C   UNL     1      45.799   8.292  12.154  0.00  0.00    +0.000 A 
ATOM      3  N   UNL     1      44.715   7.695  11.599  0.00  0.00    +0.000 NA
ATOM      4  C   UNL     1      44.561   6.348  11.803  0.00  0.00    +0.000 A 
ATOM      5  C   UNL     1      45.471   5.578  12.505  0.00  0.00    +0.000 A 
ATOM      6  C   UNL     1      46.587   6.247  13.049  0.00  0.00    +0.000 A 
ENDROOT
BRANCH   4   7
ATOM      7  C   UNL     1      43.309   5.788  11.199  0.00  0.00    +0.000 C 
ATOM      8  N   UNL     1      42.146   6.132  11.837  0.00  0.00    +0.000 N 
ATOM      9  O   UNL     1      43.310   5.050  10.225  0.00  0.00    +0.000 OA
ATOM     10  H   UNL     1      42.186   6.539  12.764  0.00  0.00    +0.000 HD
ATOM     11  H   UNL     1      41.287   5.707  11.517  0.00  0.00    +0.000 HD
ENDBRANCH   4   7
BRANCH   5  12
ATOM     12  C   UNL     1      45.408   4.096  12.704  0.00  0.00    +0.000 C 
ATOM     13  F   UNL     1      45.507   3.292  11.623  0.00  0.00    +0.000 F 
ATOM     14  F   UNL     1      46.428   3.687  13.522  0.00  0.00    +0.000 F 
ATOM     15  F   UNL     1      44.271   3.726  13.361  0.00  0.00    +0.000 F 
ENDBRANCH   5  12
BRANCH   1  16
ATOM     16  O   UNL     1      47.835   8.321  13.354  0.00  0.00    +0.000 OA
BRANCH  16  17
ATOM     17  C   UNL     1      49.002   7.534  13.625  0.00  0.00    +0.000 C 
BRANCH  17  19
ATOM     18  C   UNL     1      49.986   9.060  15.444  0.00  0.00    +0.000 C 
ATOM     19  C   UNL     1      49.414   7.735  15.052  0.00  0.00    +0.000 C 
BRANCH  19  20
ATOM     20  C   UNL     1      49.557   6.584  15.951  0.00  0.00    +0.000 A 
ATOM     21  C   UNL     1      50.771   6.307  16.595  0.00  0.00    +0.000 A 
ATOM     22  C   UNL     1      50.889   5.204  17.445  0.00  0.00    +0.000 A 
ATOM     23  C   UNL     1      49.796   4.366  17.660  0.00  0.00    +0.000 A 
ATOM     24  C   UNL     1      48.585   4.631  17.024  0.00  0.00    +0.000 A 
ATOM     25  C   UNL     1      48.467   5.734  16.174  0.00  0.00    +0.000 A 
BRANCH  24  26
ATOM     26  C   UNL     1      47.455   3.776  17.233  0.00  0.00    +0.000 C 
ATOM     27  N   UNL     1      46.544   3.077  17.413  0.00  0.00    +0.000 NA
ENDBRANCH  24  26
ENDBRANCH  19  20
ENDBRANCH  17  19
ENDBRANCH  16  17
ENDBRANCH   1  16
TORSDOF 7
ENDMDL
MODEL 9
REMARK VINA RESULT:    -6.090      4.010      5.593
REMARK INTER + INTRA:          -9.633
REMARK INTER:                  -8.403
REMARK INTRA:                  -1.229
REMARK UNBOUND:                -1.050
REMARK  Name = 
REMARK  8 active torsions:
REMARK  status: ('A' for Active; 'I' for Inactive)
REMARK    1  A    between atoms: C_1  and  C_2
REMARK    2  A    between atoms: C_2  and  C_3
REMARK    3  A    between atoms: C_2  and  C_18
REMARK    4  A    between atoms: C_3  and  O_4
REMARK    5  A    between atoms: O_4  and  C_5
REMARK    6  A    between atoms: C_8  and  C_9
REMARK    7  A    between atoms: C_12  and  C_13
REMARK    8  A    between atoms: C_22  and  C_23
REMARK                            x       y       z     vdW  Elec       q    Type
REMARK                         _______ _______ _______ _____ _____    ______ ____
ROOT
ATOM      1  C   UNL     1      48.583   7.071  15.393  0.00  0.00    +0.000 A 
ATOM      2  C   UNL     1      48.907   7.645  16.611  0.00  0.00    +0.000 A 
ATOM      3  N   UNL     1      48.881   6.978  17.792  0.00  0.00    +0.000 NA
ATOM      4  C   UNL     1      48.565   5.645  17.758  0.00  0.00    +0.000 A 
ATOM      5  C   UNL     1      48.237   4.972  16.593  0.00  0.00    +0.000 A 
ATOM      6  C   UNL     1      48.266   5.717  15.396  0.00  0.00    +0.000 A 
ENDROOT
BRANCH   4   7
ATOM      7  C   UNL     1      48.614   4.980  19.101  0.00  0.00    +0.000 C 
ATOM      8  N   UNL     1      47.488   5.124  19.867  0.00  0.00    +0.000 N 
ATOM      9  O   UNL     1      49.593   4.374  19.509  0.00  0.00    +0.000 OA
ATOM     10  H   UNL     1      46.795   5.818  19.613  0.00  0.00    +0.000 HD
ATOM     11  H   UNL     1      47.510   4.767  20.813  0.00  0.00    +0.000 HD
ENDBRANCH   4   7
BRANCH   5  12
ATOM     12  C   UNL     1      47.810   3.541  16.489  0.00  0.00    +0.000 C 
ATOM     13  F   UNL     1      46.754   3.125  17.221  0.00  0.00    +0.000 F 
ATOM     14  F   UNL     1      47.461   3.247  15.198  0.00  0.00    +0.000 F 
ATOM     15  F   UNL     1      48.838   2.689  16.771  0.00  0.00    +0.000 F 
ENDBRANCH   5  12
BRANCH   1  16
ATOM     16  O   UNL     1      48.623   7.854  14.275  0.00  0.00    +0.000 OA
BRANCH  16  17
ATOM     17  C   UNL     1      48.348   7.158  13.052  0.00  0.00    +0.000 C 
BRANCH  17  19
ATOM     18  C   UNL     1      46.260   8.656  13.039  0.00  0.00    +0.000 C 
ATOM     19  C   UNL     1      46.909   7.357  12.681  0.00  0.00    +0.000 C 
BRANCH  19  20
ATOM     20  C   UNL     1      46.081   6.213  12.282  0.00  0.00    +0.000 A 
ATOM     21  C   UNL     1      45.390   5.446  13.230  0.00  0.00    +0.000 A 
ATOM     22  C   UNL     1      44.609   4.358  12.831  0.00  0.00    +0.000 A 
ATOM     23  C   UNL     1      44.510   4.026  11.481  0.00  0.00    +0.000 A 
ATOM     24  C   UNL     1      45.194   4.781  10.530  0.00  0.00    +0.000 A 
ATOM     25  C   UNL     1      45.975   5.869  10.930  0.00  0.00    +0.000 A 
BRANCH  24  26
ATOM     26  C   UNL     1      45.104   4.447   9.140  0.00  0.00    +0.000 C 
ATOM     27  N   UNL     1      45.036   4.165   8.015  0.00  0.00    +0.000 NA
ENDBRANCH  24  26
ENDBRANCH  19  20
ENDBRANCH  17  19
ENDBRANCH  16  17
ENDBRANCH   1  16
TORSDOF 7
ENDMDL
