MODEL 1
REMARK VINA RESULT:    -6.809      0.000      0.000
REMARK INTER + INTRA:          -8.622
REMARK INTER:                  -8.203
REMARK INTRA:                  -0.420
REMARK UNBOUND:                -0.420
REMARK  Name = 
REMARK  4 active torsions:
REMARK  status: ('A' for Active; 'I' for Inactive)
REMARK    1  A    between atoms: N_1  and  C_2
REMARK    2  A    between atoms: C_2  and  C_3
REMARK    3  A    between atoms: C_8  and  C_9
REMARK    4  A    between atoms: C_9  and  N_10
REMARK                            x       y       z     vdW  Elec       q    Type
REMARK                         _______ _______ _______ _____ _____    ______ ____
ROOT
ATOM      1  C   UNL     1      44.072   4.995  12.034  0.00  0.00    +0.000 A 
ATOM      2  C   UNL     1      44.563   5.532  13.245  0.00  0.00    +0.000 A 
ATOM      3  C   UNL     1      45.633   4.955  13.912  0.00  0.00    +0.000 A 
ATOM      4  C   UNL     1      46.202   3.839  13.347  0.00  0.00    +0.000 A 
ATOM      5  N   UNL     1      45.783   3.303  12.184  0.00  0.00    +0.000 NA
ATOM      6  C   UNL     1      44.721   3.863  11.518  0.00  0.00    +0.000 A 
ENDROOT
BRANCH   1   7
ATOM      7  C   UNL     1      42.851   5.660  11.462  0.00  0.00    +0.000 C 
BRANCH   7   8
ATOM      8  N   UNL     1      43.120   7.056  11.159  0.00  0.00    +0.000 NA
ATOM      9  H   UNL     1      42.642   7.648  11.837  0.00  0.00    +0.000 HD
ATOM     10  H   UNL     1      42.745   7.288  10.243  0.00  0.00    +0.000 HD
ENDBRANCH   7   8
ENDBRANCH   1   7
BRANCH   6  11
ATOM     11  C   UNL     1      44.429   3.078  10.261  0.00  0.00    +0.000 C 
BRANCH  11  12
ATOM     12  N   UNL     1      45.154   3.358   9.028  0.00  0.00    +0.000 N 
ATOM     13  C   UNL     1      45.449   4.623   8.575  0.00  0.00    +0.000 A 
ATOM     14  C   UNL     1      46.319   4.505   7.516  0.00  0.00    +0.000 A 
ATOM     15  C   UNL     1      46.605   3.123   7.343  0.00  0.00    +0.000 A 
ATOM     16  C   UNL     1      47.447   2.404   6.472  0.00  0.00    +0.000 A 
ATOM     17  C   UNL     1      47.513   1.009   6.569  0.00  0.00    +0.000 A 
ATOM     18  C   UNL     1      46.739   0.329   7.503  0.00  0.00    +0.000 A 
ATOM     19  C   UNL     1      45.894   1.018   8.376  0.00  0.00    +0.000 A 
ATOM     20  C   UNL     1      45.853   2.420   8.289  0.00  0.00    +0.000 A 
ENDBRANCH  11  12
ENDBRANCH   6  11
TORSDOF 4
ENDMDL
MODEL 2
REMARK VINA RESULT:    -6.660      2.069      4.164
REMARK INTER + INTRA:          -8.442
REMARK INTER:                  -7.922
REMARK INTRA:                  -0.520
REMARK UNBOUND:                -0.420
REMARK  Name = 
REMARK  4 active torsions:
REMARK  status: ('A' for Active; 'I' for Inactive)
REMARK    1  A    between atoms: N_1  and  C_2
REMARK    2  A    between atoms: C_2  and  C_3
REMARK    3  A    between atoms: C_8  and  C_9
REMARK    4  A    between atoms: C_9  and  N_10
REMARK                            x       y       z     vdW  Elec       q    Type
REMARK                         _______ _______ _______ _____ _____    ______ ____
ROOT
ATOM      1  C   UNL     1      46.958   5.762  13.819  0.00  0.00    +0.000 A 
ATOM      2  C   UNL     1      48.197   6.432  13.931  0.00  0.00    +0.000 A 
ATOM      3  C   UNL     1      48.484   7.553  13.168  0.00  0.00    +0.000 A 
ATOM      4  C   UNL     1      47.515   7.990  12.297  0.00  0.00    +0.000 A 
ATOM      5  N   UNL     1      46.312   7.397  12.170  0.00  0.00    +0.000 NA
ATOM      6  C   UNL     1      46.018   6.284  12.918  0.00  0.00    +0.000 A 
ENDROOT
BRANCH   1   7
ATOM      7  C   UNL     1      46.808   4.507  14.636  0.00  0.00    +0.000 C 
BRANCH   7   8
ATOM      8  N   UNL     1      47.175   3.338  13.854  0.00  0.00    +0.000 NA
ATOM      9  H   UNL     1      47.934   3.579  13.220  0.00  0.00    +0.000 HD
ATOM     10  H   UNL     1      46.387   3.048  13.280  0.00  0.00    +0.000 HD
ENDBRANCH   7   8
ENDBRANCH   1   7
BRANCH   6  11
ATOM     11  C   UNL     1      44.629   5.792  12.587  0.00  0.00    +0.000 C 
BRANCH  11  12
ATOM     12  N   UNL     1      44.434   4.503  11.938  0.00  0.00    +0.000 N 
ATOM     13  C   UNL     1      43.656   3.489  12.450  0.00  0.00    +0.000 A 
ATOM     14  C   UNL     1      43.525   2.521  11.482  0.00  0.00    +0.000 A 
ATOM     15  C   UNL     1      44.206   2.976  10.319  0.00  0.00    +0.000 A 
ATOM     16  C   UNL     1      44.376   2.453   9.022  0.00  0.00    +0.000 A 
ATOM     17  C   UNL     1      45.114   3.175   8.078  0.00  0.00    +0.000 A 
ATOM     18  C   UNL     1      45.698   4.391   8.416  0.00  0.00    +0.000 A 
ATOM     19  C   UNL     1      45.546   4.930   9.696  0.00  0.00    +0.000 A 
ATOM     20  C   UNL     1      44.782   4.211  10.631  0.00  0.00    +0.000 A 
ENDBRANCH  11  12
ENDBRANCH   6  11
TORSDOF 4
ENDMDL
MODEL 3
REMARK VINA RESULT:    -6.554      2.408      3.634
REMARK INTER + INTRA:          -8.315
REMARK INTER:                  -7.936
REMARK INTRA:                  -0.379
REMARK UNBOUND:                -0.420
REMARK  Name = 
REMARK  4 active torsions:
REMARK  status: ('A' for Active; 'I' for Inactive)
REMARK    1  A    between atoms: N_1  and  C_2
REMARK    2  A    between atoms: C_2  and  C_3
REMARK    3  A    between atoms: C_8  and  C_9
REMARK    4  A    between atoms: C_9  and  N_10
REMARK                            x       y       z     vdW  Elec       q    Type
REMARK                         _______ _______ _______ _____ _____    ______ ____
ROOT
ATOM      1  C   UNL     1      45.171   8.488  11.849  0.00  0.00    +0.000 A 
ATOM      2  C   UNL     1      46.322   8.997  12.492  0.00  0.00    +0.000 A 
ATOM      3  C   UNL     1      47.178   8.171  13.204  0.00  0.00    +0.000 A 
ATOM      4  C   UNL     1      46.866   6.834  13.259  0.00  0.00    +0.000 A 
ATOM      5  N   UNL     1      45.793   6.299  12.646  0.00  0.00    +0.000 NA
ATOM      6  C   UNL     1      44.935   7.108  11.942  0.00  0.00    +0.000 A 
ENDROOT
BRANCH   1   7
ATOM      7  C   UNL     1      44.279   9.502  11.188  0.00  0.00    +0.000 C 
BRANCH   7   8
ATOM      8  N   UNL     1      43.737  10.427  12.170  0.00  0.00    +0.000 NA
ATOM      9  H   UNL     1      44.094  11.363  11.986  0.00  0.00    +0.000 HD
ATOM     10  H   UNL     1      44.053  10.164  13.100  0.00  0.00    +0.000 HD
ENDBRANCH   7   8
ENDBRANCH   1   7
BRANCH   6  11
ATOM     11  C   UNL     1      43.806   6.286  11.367  0.00  0.00    +0.000 C 
BRANCH  11  12
ATOM     12  N   UNL     1      43.954   4.848  11.187  0.00  0.00    +0.000 N 
ATOM     13  C   UNL     1      43.272   3.902  11.919  0.00  0.00    +0.000 A 
ATOM     14  C   UNL     1      43.489   2.675  11.337  0.00  0.00    +0.000 A 
ATOM     15  C   UNL     1      44.292   2.878  10.182  0.00  0.00    +0.000 A 
ATOM     16  C   UNL     1      44.788   2.024   9.177  0.00  0.00    +0.000 A 
ATOM     17  C   UNL     1      45.562   2.555   8.140  0.00  0.00    +0.000 A 
ATOM     18  C   UNL     1      45.862   3.913   8.104  0.00  0.00    +0.000 A 
ATOM     19  C   UNL     1      45.384   4.780   9.090  0.00  0.00    +0.000 A 
ATOM     20  C   UNL     1      44.586   4.243  10.115  0.00  0.00    +0.000 A 
ENDBRANCH  11  12
ENDBRANCH   6  11
TORSDOF 4
ENDMDL
MODEL 4
REMARK VINA RESULT:    -6.390      2.708      5.979
REMARK INTER + INTRA:          -8.117
REMARK INTER:                  -7.684
REMARK INTRA:                  -0.433
REMARK UNBOUND:                -0.420
REMARK  Name = 
REMARK  4 active torsions:
REMARK  status: ('A' for Active; 'I' for Inactive)
REMARK    1  A    between atoms: N_1  and  C_2
REMARK    2  A    between atoms: C_2  and  C_3
REMARK    3  A    between atoms: C_8  and  C_9
REMARK    4  A    between atoms: C_9  and  N_10
REMARK                            x       y       z     vdW  Elec       q    Type
REMARK                         _______ _______ _______ _____ _____    ______ ____
ROOT
ATOM      1  C   UNL     1      44.245   3.590  10.603  0.00  0.00    +0.000 A 
ATOM      2  C   UNL     1      44.344   2.652   9.551  0.00  0.00    +0.000 A 
ATOM      3  C   UNL     1      45.059   2.932   8.398  0.00  0.00    +0.000 A 
ATOM      4  C   UNL     1      45.673   4.159   8.316  0.00  0.00    +0.000 A 
ATOM      5  N   UNL     1      45.625   5.077   9.301  0.00  0.00    +0.000 NA
ATOM      6  C   UNL     1      44.915   4.812  10.446  0.00  0.00    +0.000 A 
ENDROOT
BRANCH   1   7
ATOM      7  C   UNL     1      43.365   3.199  11.759  0.00  0.00    +0.000 C 
BRANCH   7   8
ATOM      8  N   UNL     1      42.963   1.806  11.651  0.00  0.00    +0.000 NA
ATOM      9  H   UNL     1      43.791   1.222  11.545  0.00  0.00    +0.000 HD
ATOM     10  H   UNL     1      42.398   1.675  10.815  0.00  0.00    +0.000 HD
ENDBRANCH   7   8
ENDBRANCH   1   7
BRANCH   6  11
ATOM     11  C   UNL     1      44.994   5.993  11.385  0.00  0.00    +0.000 C 
BRANCH  11  12
ATOM     12  N   UNL     1      45.965   6.013  12.471  0.00  0.00    +0.000 N 
ATOM     13  C   UNL     1      46.006   5.087  13.489  0.00  0.00    +0.000 A 
ATOM     14  C   UNL     1      47.168   5.284  14.197  0.00  0.00    +0.000 A 
ATOM     15  C   UNL     1      47.888   6.334  13.565  0.00  0.00    +0.000 A 
ATOM     16  C   UNL     1      49.141   6.935  13.800  0.00  0.00    +0.000 A 
ATOM     17  C   UNL     1      49.579   7.968  12.964  0.00  0.00    +0.000 A 
ATOM     18  C   UNL     1      48.779   8.419  11.919  0.00  0.00    +0.000 A 
ATOM     19  C   UNL     1      47.532   7.842  11.668  0.00  0.00    +0.000 A 
ATOM     20  C   UNL     1      47.111   6.788  12.497  0.00  0.00    +0.000 A 
ENDBRANCH  11  12
ENDBRANCH   6  11
TORSDOF 4
ENDMDL
MODEL 5
REMARK VINA RESULT:    -5.994      1.057      2.844
REMARK INTER + INTRA:          -7.640
REMARK INTER:                  -7.268
REMARK INTRA:                  -0.372
REMARK UNBOUND:                -0.420
REMARK  Name = 
REMARK  4 active torsions:
REMARK  status: ('A' for Active; 'I' for Inactive)
REMARK    1  A    between atoms: N_1  and  C_2
REMARK    2  A    between atoms: C_2  and  C_3
REMARK    3  A    between atoms: C_8  and  C_9
REMARK    4  A    between atoms: C_9  and  N_10
REMARK                            x       y       z     vdW  Elec       q    Type
REMARK                         _______ _______ _______ _____ _____    ______ ____
ROOT
ATOM      1  C   UNL     1      44.848   4.664  12.004  0.00  0.00    +0.000 A 
ATOM      2  C   UNL     1      44.094   4.963  13.161  0.00  0.00    +0.000 A 
ATOM      3  C   UNL     1      42.790   5.426  13.076  0.00  0.00    +0.000 A 
ATOM      4  C   UNL     1      42.256   5.582  11.820  0.00  0.00    +0.000 A 
ATOM      5  N   UNL     1      42.927   5.291  10.689  0.00  0.00    +0.000 NA
ATOM      6  C   UNL     1      44.220   4.836  10.761  0.00  0.00    +0.000 A 
ENDROOT
BRANCH   1   7
ATOM      7  C   UNL     1      46.278   4.257  12.232  0.00  0.00    +0.000 C 
BRANCH   7   8
ATOM      8  N   UNL     1      46.364   3.240  13.266  0.00  0.00    +0.000 NA
ATOM      9  H   UNL     1      45.509   3.246  13.820  0.00  0.00    +0.000 HD
ATOM     10  H   UNL     1      47.131   3.457  13.898  0.00  0.00    +0.000 HD
ENDBRANCH   7   8
ENDBRANCH   1   7
BRANCH   6  11
ATOM     11  C   UNL     1      44.762   4.600   9.371  0.00  0.00    +0.000 C 
BRANCH  11  12
ATOM     12  N   UNL     1      45.259   3.287   8.982  0.00  0.00    +0.000 N 
ATOM     13  C   UNL     1      44.692   2.097   9.380  0.00  0.00    +0.000 A 
ATOM     14  C   UNL     1      45.276   1.084   8.656  0.00  0.00    +0.000 A 
ATOM     15  C   UNL     1      46.199   1.675   7.749  0.00  0.00    +0.000 A 
ATOM     16  C   UNL     1      47.040   1.162   6.742  0.00  0.00    +0.000 A 
ATOM     17  C   UNL     1      47.840   2.036   5.999  0.00  0.00    +0.000 A 
ATOM     18  C   UNL     1      47.827   3.402   6.261  0.00  0.00    +0.000 A 
ATOM     19  C   UNL     1      47.005   3.935   7.256  0.00  0.00    +0.000 A 
ATOM     20  C   UNL     1      46.185   3.053   7.981  0.00  0.00    +0.000 A 
ENDBRANCH  11  12
ENDBRANCH   6  11
TORSDOF 4
ENDMDL
MODEL 6
REMARK VINA RESULT:    -5.859      3.497      5.977
REMARK INTER + INTRA:          -7.477
REMARK INTER:                  -7.087
REMARK INTRA:                  -0.390
REMARK UNBOUND:                -0.420
REMARK  Name = 
REMARK  4 active torsions:
REMARK  status: ('A' for Active; 'I' for Inactive)
REMARK    1  A    between atoms: N_1  and  C_2
REMARK    2  A    between atoms: C_2  and  C_3
REMARK    3  A    between atoms: C_8  and  C_9
REMARK    4  A    between atoms: C_9  and  N_10
REMARK                            x       y       z     vdW  Elec       q    Type
REMARK                         _______ _______ _______ _____ _____    ______ ____
ROOT
ATOM      1  C   UNL     1      45.000   4.641  10.798  0.00  0.00    +0.000 A 
ATOM      2  C   UNL     1      44.026   3.682  10.439  0.00  0.00    +0.000 A 
ATOM      3  C   UNL     1      43.385   2.909  11.394  0.00  0.00    +0.000 A 
ATOM      4  C   UNL     1      43.732   3.112  12.708  0.00  0.00    +0.000 A 
ATOM      5  N   UNL     1      44.638   4.028  13.102  0.00  0.00    +0.000 NA
ATOM      6  C   UNL     1      45.282   4.796  12.164  0.00  0.00    +0.000 A 
ENDROOT
BRANCH   1   7
ATOM      7  C   UNL     1      45.684   5.348   9.661  0.00  0.00    +0.000 C 
BRANCH   7   8
ATOM      8  N   UNL     1      45.338   4.733   8.390  0.00  0.00    +0.000 NA
ATOM      9  H   UNL     1      46.190   4.515   7.876  0.00  0.00    +0.000 HD
ATOM     10  H   UNL     1      44.808   5.390   7.824  0.00  0.00    +0.000 HD
ENDBRANCH   7   8
ENDBRANCH   1   7
BRANCH   6  11
ATOM     11  C   UNL     1      46.258   5.728  12.843  0.00  0.00    +0.000 C 
BRANCH  11  12
ATOM     12  N   UNL     1      46.301   7.141  12.490  0.00  0.00    +0.000 N 
ATOM     13  C   UNL     1      45.261   8.020  12.690  0.00  0.00    +0.000 A 
ATOM     14  C   UNL     1      45.726   9.292  12.450  0.00  0.00    +0.000 A 
ATOM     15  C   UNL     1      47.109   9.196  12.137  0.00  0.00    +0.000 A 
ATOM     16  C   UNL     1      48.112  10.145  11.852  0.00  0.00    +0.000 A 
ATOM     17  C   UNL     1      49.417   9.712  11.591  0.00  0.00    +0.000 A 
ATOM     18  C   UNL     1      49.725   8.356  11.588  0.00  0.00    +0.000 A 
ATOM     19  C   UNL     1      48.748   7.397  11.864  0.00  0.00    +0.000 A 
ATOM     20  C   UNL     1      47.446   7.840  12.151  0.00  0.00    +0.000 A 
ENDBRANCH  11  12
ENDBRANCH   6  11
TORSDOF 4
ENDMDL
MODEL 7
REMARK VINA RESULT:    -5.696      3.886      6.335
REMARK INTER + INTRA:          -7.281
REMARK INTER:                  -6.950
REMARK INTRA:                  -0.331
REMARK UNBOUND:                -0.420
REMARK  Name = 
REMARK  4 active torsions:
REMARK  status: ('A' for Active; 'I' for Inactive)
REMARK    1  A    between atoms: N_1  and  C_2
REMARK    2  A    between atoms: C_2  and  C_3
REMARK    3  A    between atoms: C_8  and  C_9
REMARK    4  A    between atoms: C_9  and  N_10
REMARK                            x       y       z     vdW  Elec       q    Type
REMARK                         _______ _______ _______ _____ _____    ______ ____
ROOT
ATOM      1  C   UNL     1      48.447   4.421  17.455  0.00  0.00    +0.000 A 
ATOM      2  C   UNL     1      49.575   3.882  18.114  0.00  0.00    +0.000 A 
ATOM      3  C   UNL     1      50.183   2.717  17.673  0.00  0.00    +0.000 A 
ATOM      4  C   UNL     1      49.648   2.105  16.565  0.00  0.00    +0.000 A 
ATOM      5  N   UNL     1      48.588   2.592  15.890  0.00  0.00    +0.000 NA
ATOM      6  C   UNL     1      47.975   3.742  16.321  0.00  0.00    +0.000 A 
ENDROOT
BRANCH   1   7
ATOM      7  C   UNL     1      47.828   5.637  18.088  0.00  0.00    +0.000 C 
BRANCH   7   8
ATOM      8  N   UNL     1      46.544   5.308  18.684  0.00  0.00    +0.000 NA
ATOM      9  H   UNL     1      46.392   5.892  19.504  0.00  0.00    +0.000 HD
ATOM     10  H   UNL     1      46.550   4.342  19.003  0.00  0.00    +0.000 HD
ENDBRANCH   7   8
ENDBRANCH   1   7
BRANCH   6  11
ATOM     11  C   UNL     1      46.808   4.073  15.421  0.00  0.00    +0.000 C 
BRANCH  11  12
ATOM     12  N   UNL     1      46.937   5.087  14.383  0.00  0.00    +0.000 N 
ATOM     13  C   UNL     1      47.946   6.022  14.337  0.00  0.00    +0.000 A 
ATOM     14  C   UNL     1      47.879   6.663  13.122  0.00  0.00    +0.000 A 
ATOM     15  C   UNL     1      46.823   6.070  12.377  0.00  0.00    +0.000 A 
ATOM     16  C   UNL     1      46.319   6.265  11.076  0.00  0.00    +0.000 A 
ATOM     17  C   UNL     1      45.246   5.487  10.628  0.00  0.00    +0.000 A 
ATOM     18  C   UNL     1      44.661   4.540  11.462  0.00  0.00    +0.000 A 
ATOM     19  C   UNL     1      45.142   4.329  12.756  0.00  0.00    +0.000 A 
ATOM     20  C   UNL     1      46.235   5.097  13.191  0.00  0.00    +0.000 A 
ENDBRANCH  11  12
ENDBRANCH   6  11
TORSDOF 4
ENDMDL
MODEL 8
REMARK VINA RESULT:    -5.630      3.429      6.271
REMARK INTER + INTRA:          -7.202
REMARK INTER:                  -7.002
REMARK INTRA:                  -0.200
REMARK UNBOUND:                -0.420
REMARK  Name = 
REMARK  4 active torsions:
REMARK  status: ('A' for Active; 'I' for Inactive)
REMARK    1  A    between atoms: N_1  and  C_2
REMARK    2  A    between atoms: C_2  and  C_3
REMARK    3  A    between atoms: C_8  and  C_9
REMARK    4  A    between atoms: C_9  and  N_10
REMARK                            x       y       z     vdW  Elec       q    Type
REMARK                         _______ _______ _______ _____ _____    ______ ____
ROOT
ATOM      1  C   UNL     1      44.902   5.388  10.946  0.00  0.00    +0.000 A 
ATOM      2  C   UNL     1      43.532   5.213  10.649  0.00  0.00    +0.000 A 
ATOM      3  C   UNL     1      42.584   5.092  11.652  0.00  0.00    +0.000 A 
ATOM      4  C   UNL     1      43.028   5.150  12.952  0.00  0.00    +0.000 A 
ATOM      5  N   UNL     1      44.320   5.337  13.285  0.00  0.00    +0.000 NA
ATOM      6  C   UNL     1      45.268   5.454  12.298  0.00  0.00    +0.000 A 
ENDROOT
BRANCH   1   7
ATOM      7  C   UNL     1      45.837   5.415   9.768  0.00  0.00    +0.000 C 
BRANCH   7   8
ATOM      8  N   UNL     1      45.211   4.814   8.601  0.00  0.00    +0.000 NA
ATOM      9  H   UNL     1      45.218   5.482   7.832  0.00  0.00    +0.000 HD
ATOM     10  H   UNL     1      44.238   4.603   8.804  0.00  0.00    +0.000 HD
ENDBRANCH   7   8
ENDBRANCH   1   7
BRANCH   6  11
ATOM     11  C   UNL     1      46.634   5.634  12.916  0.00  0.00    +0.000 C 
BRANCH  11  12
ATOM     12  N   UNL     1      47.389   6.861  12.700  0.00  0.00    +0.000 N 
ATOM     13  C   UNL     1      48.744   6.904  12.461  0.00  0.00    +0.000 A 
ATOM     14  C   UNL     1      49.072   8.187  12.089  0.00  0.00    +0.000 A 
ATOM     15  C   UNL     1      47.871   8.947  12.053  0.00  0.00    +0.000 A 
ATOM     16  C   UNL     1      47.571  10.279  11.702  0.00  0.00    +0.000 A 
ATOM     17  C   UNL     1      46.247  10.727  11.764  0.00  0.00    +0.000 A 
ATOM     18  C   UNL     1      45.232   9.877  12.188  0.00  0.00    +0.000 A 
ATOM     19  C   UNL     1      45.503   8.554  12.543  0.00  0.00    +0.000 A 
ATOM     20  C   UNL     1      46.832   8.103  12.454  0.00  0.00    +0.000 A 
ENDBRANCH  11  12
ENDBRANCH   6  11
TORSDOF 4
ENDMDL
MODEL 9
REMARK VINA RESULT:    -5.410      4.014      5.514
REMARK INTER + INTRA:          -6.936
REMARK INTER:                  -6.447
REMARK INTRA:                  -0.489
REMARK UNBOUND:                -0.420
REMARK  Name = 
REMARK  4 active torsions:
REMARK  status: ('A' for Active; 'I' for Inactive)
REMARK    1  A    between atoms: N_1  and  C_2
REMARK    2  A    between atoms: C_2  and  C_3
REMARK    3  A    between atoms: C_8  and  C_9
REMARK    4  A    between atoms: C_9  and  N_10
REMARK                            x       y       z     vdW  Elec       q    Type
REMARK                         _______ _______ _______ _____ _____    ______ ____
ROOT
ATOM      1  C   UNL     1      48.469   6.741  15.500  0.00  0.00    +0.000 A 
ATOM      2  C   UNL     1      48.627   6.380  16.857  0.00  0.00    +0.000 A 
ATOM      3  C   UNL     1      48.283   5.118  17.315  0.00  0.00    +0.000 A 
ATOM      4  C   UNL     1      47.782   4.227  16.396  0.00  0.00    +0.000 A 
ATOM      5  N   UNL     1      47.632   4.517  15.089  0.00  0.00    +0.000 NA
ATOM      6  C   UNL     1      47.966   5.766  14.625  0.00  0.00    +0.000 A 
ENDROOT
BRANCH   1   7
ATOM      7  C   UNL     1      48.795   8.167  15.151  0.00  0.00    +0.000 C 
BRANCH   7   8
ATOM      8  N   UNL     1      47.595   8.988  15.170  0.00  0.00    +0.000 NA
ATOM      9  H   UNL     1      46.777   8.389  15.271  0.00  0.00    +0.000 HD
ATOM     10  H   UNL     1      47.500   9.476  14.284  0.00  0.00    +0.000 HD
ENDBRANCH   7   8
ENDBRANCH   1   7
BRANCH   6  11
ATOM     11  C   UNL     1      47.693   5.855  13.143  0.00  0.00    +0.000 C 
BRANCH  11  12
ATOM     12  N   UNL     1      46.371   6.221  12.653  0.00  0.00    +0.000 N 
ATOM     13  C   UNL     1      46.034   7.477  12.203  0.00  0.00    +0.000 A 
ATOM     14  C   UNL     1      44.790   7.401  11.621  0.00  0.00    +0.000 A 
ATOM     15  C   UNL     1      44.368   6.044  11.674  0.00  0.00    +0.000 A 
ATOM     16  C   UNL     1      43.230   5.359  11.204  0.00  0.00    +0.000 A 
ATOM     17  C   UNL     1      43.120   3.979  11.413  0.00  0.00    +0.000 A 
ATOM     18  C   UNL     1      44.114   3.287  12.098  0.00  0.00    +0.000 A 
ATOM     19  C   UNL     1      45.250   3.944  12.574  0.00  0.00    +0.000 A 
ATOM     20  C   UNL     1      45.365   5.325  12.339  0.00  0.00    +0.000 A 
ENDBRANCH  11  12
ENDBRANCH   6  11
TORSDOF 4
ENDMDL
