MODEL 1
REMARK VINA RESULT:    -8.361      0.000      0.000
REMARK INTER + INTRA:         -10.490
REMARK INTER:                 -11.049
REMARK INTRA:                   0.560
REMARK UNBOUND:                 0.560
REMARK  Name = 
REMARK  8 active torsions:
REMARK  status: ('A' for Active; 'I' for Inactive)
REMARK    1  A    between atoms: C_1  and  C_2
REMARK    2  A    between atoms: C_2  and  C_3
REMARK    3  A    between atoms: C_2  and  N_4
REMARK    4  A    between atoms: C_2  and  C_5
REMARK    5  A    between atoms: C_5  and  C_6
REMARK    6  A    between atoms: C_10  and  C_11
REMARK    7  A    between atoms: C_11  and  N_12
REMARK    8  A    between atoms: C_16  and  C_17
REMARK                            x       y       z     vdW  Elec       q    Type
REMARK                         _______ _______ _______ _____ _____    ______ ____
ROOT
ATOM      1  C   UNL     1      43.733   5.526  10.905  0.00  0.00    +0.000 C 
ENDROOT
BRANCH   1   2
ATOM      2  N   UNL     1      44.621   6.194  11.859  0.00  0.00    +0.000 N 
ATOM      3  C   UNL     1      44.909   7.529  11.633  0.00  0.00    +0.000 A 
ATOM      4  C   UNL     1      46.194   7.738  12.053  0.00  0.00    +0.000 A 
ATOM      5  C   UNL     1      46.600   6.589  12.787  0.00  0.00    +0.000 A 
ATOM      6  C   UNL     1      47.778   6.241  13.468  0.00  0.00    +0.000 A 
ATOM      7  N   UNL     1      47.835   5.104  14.227  0.00  0.00    +0.000 NA
ATOM      8  C   UNL     1      46.732   4.323  14.279  0.00  0.00    +0.000 A 
ATOM      9  C   UNL     1      45.557   4.533  13.566  0.00  0.00    +0.000 A 
ATOM     10  C   UNL     1      45.528   5.691  12.775  0.00  0.00    +0.000 A 
BRANCH   6  11
ATOM     11  C   UNL     1      49.004   7.091  13.359  0.00  0.00    +0.000 C 
ATOM     12  N   UNL     1      49.779   6.887  12.252  0.00  0.00    +0.000 N 
ATOM     13  O   UNL     1      49.313   7.948  14.179  0.00  0.00    +0.000 OA
ATOM     14  H   UNL     1      49.498   6.216  11.550  0.00  0.00    +0.000 HD
ATOM     15  H   UNL     1      50.588   7.476  12.119  0.00  0.00    +0.000 HD
ENDBRANCH   6  11
ENDBRANCH   1   2
BRANCH   1  20
ATOM     16  C   UNL     1      45.812   3.615   8.385  0.00  0.00    +0.000 A 
ATOM     17  C   UNL     1      45.407   2.326   8.719  0.00  0.00    +0.000 A 
ATOM     18  N   UNL     1      44.492   2.042   9.669  0.00  0.00    +0.000 NA
ATOM     19  C   UNL     1      43.960   3.087  10.337  0.00  0.00    +0.000 A 
ATOM     20  C   UNL     1      44.276   4.417  10.072  0.00  0.00    +0.000 A 
ATOM     21  C   UNL     1      45.217   4.674   9.077  0.00  0.00    +0.000 A 
BRANCH  16  22
ATOM     22  C   UNL     1      46.857   3.866   7.332  0.00  0.00    +0.000 C 
BRANCH  22  24
ATOM     23  C   UNL     1      46.709   2.521   5.228  0.00  0.00    +0.000 C 
ATOM     24  C   UNL     1      47.393   2.607   6.601  0.00  0.00    +0.000 C 
ATOM     25  C   UNL     1      47.102   1.317   7.387  0.00  0.00    +0.000 C 
BRANCH  24  26
ATOM     26  N   UNL     1      48.842   2.713   6.374  0.00  0.00    +0.000 NA
ATOM     27  H   UNL     1      49.321   1.915   6.799  0.00  0.00    +0.000 HD
ATOM     28  H   UNL     1      49.209   3.537   6.854  0.00  0.00    +0.000 HD
ENDBRANCH  24  26
ENDBRANCH  22  24
ENDBRANCH  16  22
ENDBRANCH   1  20
TORSDOF 6
ENDMDL
MODEL 2
REMARK VINA RESULT:    -7.147      1.897      2.893
REMARK INTER + INTRA:          -8.886
REMARK INTER:                  -8.896
REMARK INTRA:                   0.009
REMARK UNBOUND:                 0.560
REMARK  Name = 
REMARK  8 active torsions:
REMARK  status: ('A' for Active; 'I' for Inactive)
REMARK    1  A    between atoms: C_1  and  C_2
REMARK    2  A    between atoms: C_2  and  C_3
REMARK    3  A    between atoms: C_2  and  N_4
REMARK    4  A    between atoms: C_2  and  C_5
REMARK    5  A    between atoms: C_5  and  C_6
REMARK    6  A    between atoms: C_10  and  C_11
REMARK    7  A    between atoms: C_11  and  N_12
REMARK    8  A    between atoms: C_16  and  C_17
REMARK                            x       y       z     vdW  Elec       q    Type
REMARK                         _______ _______ _______ _____ _____    ______ ____
ROOT
ATOM      1  C   UNL     1      45.605   5.606  11.815  0.00  0.00    +0.000 C 
ENDROOT
BRANCH   1   2
ATOM      2  N   UNL     1      46.654   5.227  12.766  0.00  0.00    +0.000 N 
ATOM      3  C   UNL     1      46.587   3.958  13.314  0.00  0.00    +0.000 A 
ATOM      4  C   UNL     1      47.065   4.048  14.592  0.00  0.00    +0.000 A 
ATOM      5  C   UNL     1      47.678   5.324  14.733  0.00  0.00    +0.000 A 
ATOM      6  C   UNL     1      48.350   5.964  15.788  0.00  0.00    +0.000 A 
ATOM      7  N   UNL     1      48.978   7.163  15.589  0.00  0.00    +0.000 NA
ATOM      8  C   UNL     1      48.910   7.715  14.356  0.00  0.00    +0.000 A 
ATOM      9  C   UNL     1      48.191   7.207  13.279  0.00  0.00    +0.000 A 
ATOM     10  C   UNL     1      47.535   5.990  13.512  0.00  0.00    +0.000 A 
BRANCH   6  11
ATOM     11  C   UNL     1      48.372   5.363  17.157  0.00  0.00    +0.000 C 
ATOM     12  N   UNL     1      47.305   5.655  17.958  0.00  0.00    +0.000 N 
ATOM     13  O   UNL     1      49.264   4.626  17.562  0.00  0.00    +0.000 OA
ATOM     14  H   UNL     1      46.544   6.222  17.607  0.00  0.00    +0.000 HD
ATOM     15  H   UNL     1      47.261   5.227  18.872  0.00  0.00    +0.000 HD
ENDBRANCH   6  11
ENDBRANCH   1   2
BRANCH   1  20
ATOM     16  C   UNL     1      44.863   3.500   8.759  0.00  0.00    +0.000 A 
ATOM     17  C   UNL     1      44.128   2.493   9.377  0.00  0.00    +0.000 A 
ATOM     18  N   UNL     1      43.831   2.470  10.692  0.00  0.00    +0.000 NA
ATOM     19  C   UNL     1      44.301   3.489  11.443  0.00  0.00    +0.000 A 
ATOM     20  C   UNL     1      45.029   4.559  10.927  0.00  0.00    +0.000 A 
ATOM     21  C   UNL     1      45.307   4.555   9.562  0.00  0.00    +0.000 A 
BRANCH  16  22
ATOM     22  C   UNL     1      45.182   3.456   7.289  0.00  0.00    +0.000 C 
BRANCH  22  24
ATOM     23  C   UNL     1      46.680   2.770   5.407  0.00  0.00    +0.000 C 
ATOM     24  C   UNL     1      46.620   2.998   6.925  0.00  0.00    +0.000 C 
ATOM     25  C   UNL     1      47.008   1.695   7.643  0.00  0.00    +0.000 C 
BRANCH  24  26
ATOM     26  N   UNL     1      47.600   4.042   7.261  0.00  0.00    +0.000 NA
ATOM     27  H   UNL     1      47.127   4.834   7.703  0.00  0.00    +0.000 HD
ATOM     28  H   UNL     1      48.016   4.415   6.407  0.00  0.00    +0.000 HD
ENDBRANCH  24  26
ENDBRANCH  22  24
ENDBRANCH  16  22
ENDBRANCH   1  20
TORSDOF 6
ENDMDL
MODEL 3
REMARK VINA RESULT:    -7.113      3.432      5.677
REMARK INTER + INTRA:          -8.840
REMARK INTER:                  -8.032
REMARK INTRA:                  -0.808
REMARK UNBOUND:                 0.560
REMARK  Name = 
REMARK  8 active torsions:
REMARK  status: ('A' for Active; 'I' for Inactive)
REMARK    1  A    between atoms: C_1  and  C_2
REMARK    2  A    between atoms: C_2  and  C_3
REMARK    3  A    between atoms: C_2  and  N_4
REMARK    4  A    between atoms: C_2  and  C_5
REMARK    5  A    between atoms: C_5  and  C_6
REMARK    6  A    between atoms: C_10  and  C_11
REMARK    7  A    between atoms: C_11  and  N_12
REMARK    8  A    between atoms: C_16  and  C_17
REMARK                            x       y       z     vdW  Elec       q    Type
REMARK                         _______ _______ _______ _____ _____    ______ ____
ROOT
ATOM      1  C   UNL     1      48.590   6.955  13.790  0.00  0.00    +0.000 C 
ENDROOT
BRANCH   1   2
ATOM      2  N   UNL     1      48.516   6.685  15.228  0.00  0.00    +0.000 N 
ATOM      3  C   UNL     1      49.121   7.594  16.078  0.00  0.00    +0.000 A 
ATOM      4  C   UNL     1      49.612   6.886  17.139  0.00  0.00    +0.000 A 
ATOM      5  C   UNL     1      49.066   5.574  17.070  0.00  0.00    +0.000 A 
ATOM      6  C   UNL     1      49.183   4.432  17.881  0.00  0.00    +0.000 A 
ATOM      7  N   UNL     1      48.411   3.327  17.644  0.00  0.00    +0.000 NA
ATOM      8  C   UNL     1      47.555   3.367  16.597  0.00  0.00    +0.000 A 
ATOM      9  C   UNL     1      47.439   4.410  15.685  0.00  0.00    +0.000 A 
ATOM     10  C   UNL     1      48.256   5.522  15.932  0.00  0.00    +0.000 A 
BRANCH   6  11
ATOM     11  C   UNL     1      50.170   4.388  19.003  0.00  0.00    +0.000 C 
ATOM     12  N   UNL     1      49.646   4.381  20.264  0.00  0.00    +0.000 N 
ATOM     13  O   UNL     1      51.384   4.333  18.839  0.00  0.00    +0.000 OA
ATOM     14  H   UNL     1      48.644   4.375  20.399  0.00  0.00    +0.000 HD
ATOM     15  H   UNL     1      50.280   4.302  21.046  0.00  0.00    +0.000 HD
ENDBRANCH   6  11
ENDBRANCH   1   2
BRANCH   1  20
ATOM     16  C   UNL     1      45.557   5.966  11.753  0.00  0.00    +0.000 A 
ATOM     17  C   UNL     1      44.889   7.186  11.773  0.00  0.00    +0.000 A 
ATOM     18  N   UNL     1      45.366   8.301  12.363  0.00  0.00    +0.000 NA
ATOM     19  C   UNL     1      46.561   8.201  12.984  0.00  0.00    +0.000 A 
ATOM     20  C   UNL     1      47.325   7.037  13.009  0.00  0.00    +0.000 A 
ATOM     21  C   UNL     1      46.806   5.908  12.379  0.00  0.00    +0.000 A 
BRANCH  16  22
ATOM     22  C   UNL     1      44.961   4.750  11.098  0.00  0.00    +0.000 C 
BRANCH  22  24
ATOM     23  C   UNL     1      43.467   2.748  11.241  0.00  0.00    +0.000 C 
ATOM     24  C   UNL     1      44.363   3.690  12.061  0.00  0.00    +0.000 C 
ATOM     25  C   UNL     1      43.523   4.334  13.177  0.00  0.00    +0.000 C 
BRANCH  24  26
ATOM     26  N   UNL     1      45.428   2.879  12.669  0.00  0.00    +0.000 NA
ATOM     27  H   UNL     1      45.039   2.001  13.020  0.00  0.00    +0.000 HD
ATOM     28  H   UNL     1      45.803   3.358  13.489  0.00  0.00    +0.000 HD
ENDBRANCH  24  26
ENDBRANCH  22  24
ENDBRANCH  16  22
ENDBRANCH   1  20
TORSDOF 6
ENDMDL
MODEL 4
REMARK VINA RESULT:    -6.970      3.518      8.096
REMARK INTER + INTRA:          -8.651
REMARK INTER:                  -8.409
REMARK INTRA:                  -0.242
REMARK UNBOUND:                 0.560
REMARK  Name = 
REMARK  8 active torsions:
REMARK  status: ('A' for Active; 'I' for Inactive)
REMARK    1  A    between atoms: C_1  and  C_2
REMARK    2  A    between atoms: C_2  and  C_3
REMARK    3  A    between atoms: C_2  and  N_4
REMARK    4  A    between atoms: C_2  and  C_5
REMARK    5  A    between atoms: C_5  and  C_6
REMARK    6  A    between atoms: C_10  and  C_11
REMARK    7  A    between atoms: C_11  and  N_12
REMARK    8  A    between atoms: C_16  and  C_17
REMARK                            x       y       z     vdW  Elec       q    Type
REMARK                         _______ _______ _______ _____ _____    ______ ____
ROOT
ATOM      1  C   UNL     1      48.104   6.456  13.139  0.00  0.00    +0.000 C 
ENDROOT
BRANCH   1   2
ATOM      2  N   UNL     1      46.896   5.630  13.214  0.00  0.00    +0.000 N 
ATOM      3  C   UNL     1      47.035   4.341  13.696  0.00  0.00    +0.000 A 
ATOM      4  C   UNL     1      46.133   3.563  13.025  0.00  0.00    +0.000 A 
ATOM      5  C   UNL     1      45.251   4.432  12.324  0.00  0.00    +0.000 A 
ATOM      6  C   UNL     1      44.133   4.220  11.501  0.00  0.00    +0.000 A 
ATOM      7  N   UNL     1      43.374   5.274  11.071  0.00  0.00    +0.000 NA
ATOM      8  C   UNL     1      43.750   6.518  11.446  0.00  0.00    +0.000 A 
ATOM      9  C   UNL     1      44.891   6.834  12.175  0.00  0.00    +0.000 A 
ATOM     10  C   UNL     1      45.668   5.741  12.585  0.00  0.00    +0.000 A 
BRANCH   6  11
ATOM     11  C   UNL     1      43.762   2.842  11.055  0.00  0.00    +0.000 C 
ATOM     12  N   UNL     1      44.449   2.352   9.981  0.00  0.00    +0.000 N 
ATOM     13  O   UNL     1      42.916   2.151  11.613  0.00  0.00    +0.000 OA
ATOM     14  H   UNL     1      45.182   2.901   9.552  0.00  0.00    +0.000 HD
ATOM     15  H   UNL     1      44.260   1.406   9.682  0.00  0.00    +0.000 HD
ENDBRANCH   6  11
ENDBRANCH   1   2
BRANCH   1  20
ATOM     16  C   UNL     1      48.999   6.691  16.809  0.00  0.00    +0.000 A 
ATOM     17  C   UNL     1      50.231   7.326  16.680  0.00  0.00    +0.000 A 
ATOM     18  N   UNL     1      50.765   7.709  15.502  0.00  0.00    +0.000 NA
ATOM     19  C   UNL     1      50.053   7.434  14.389  0.00  0.00    +0.000 A 
ATOM     20  C   UNL     1      48.803   6.822  14.402  0.00  0.00    +0.000 A 
ATOM     21  C   UNL     1      48.276   6.450  15.637  0.00  0.00    +0.000 A 
BRANCH  16  22
ATOM     22  C   UNL     1      48.467   6.265  18.150  0.00  0.00    +0.000 C 
BRANCH  22  24
ATOM     23  C   UNL     1      48.684   4.454  19.862  0.00  0.00    +0.000 C 
ATOM     24  C   UNL     1      48.373   4.734  18.383  0.00  0.00    +0.000 C 
ATOM     25  C   UNL     1      49.370   3.956  17.508  0.00  0.00    +0.000 C 
BRANCH  24  26
ATOM     26  N   UNL     1      47.013   4.248  18.111  0.00  0.00    +0.000 NA
ATOM     27  H   UNL     1      46.804   4.338  17.114  0.00  0.00    +0.000 HD
ATOM     28  H   UNL     1      46.331   4.841  18.586  0.00  0.00    +0.000 HD
ENDBRANCH  24  26
ENDBRANCH  22  24
ENDBRANCH  16  22
ENDBRANCH   1  20
TORSDOF 6
ENDMDL
MODEL 5
REMARK VINA RESULT:    -6.891      3.769      7.718
REMARK INTER + INTRA:          -8.548
REMARK INTER:                  -7.942
REMARK INTRA:                  -0.605
REMARK UNBOUND:                 0.560
REMARK  Name = 
REMARK  8 active torsions:
REMARK  status: ('A' for Active; 'I' for Inactive)
REMARK    1  A    between atoms: C_1  and  C_2
REMARK    2  A    between atoms: C_2  and  C_3
REMARK    3  A    between atoms: C_2  and  N_4
REMARK    4  A    between atoms: C_2  and  C_5
REMARK    5  A    between atoms: C_5  and  C_6
REMARK    6  A    between atoms: C_10  and  C_11
REMARK    7  A    between atoms: C_11  and  N_12
REMARK    8  A    between atoms: C_16  and  C_17
REMARK                            x       y       z     vdW  Elec       q    Type
REMARK                         _______ _______ _______ _____ _____    ______ ____
ROOT
ATOM      1  C   UNL     1      47.838   8.028  14.459  0.00  0.00    +0.000 C 
ENDROOT
BRANCH   1   2
ATOM      2  N   UNL     1      47.309   7.290  13.309  0.00  0.00    +0.000 N 
ATOM      3  C   UNL     1      46.850   8.031  12.235  0.00  0.00    +0.000 A 
ATOM      4  C   UNL     1      45.795   7.346  11.697  0.00  0.00    +0.000 A 
ATOM      5  C   UNL     1      45.783   6.048  12.280  0.00  0.00    +0.000 A 
ATOM      6  C   UNL     1      44.968   4.917  12.107  0.00  0.00    +0.000 A 
ATOM      7  N   UNL     1      45.286   3.730  12.709  0.00  0.00    +0.000 NA
ATOM      8  C   UNL     1      46.392   3.693  13.488  0.00  0.00    +0.000 A 
ATOM      9  C   UNL     1      47.203   4.780  13.795  0.00  0.00    +0.000 A 
ATOM     10  C   UNL     1      46.845   5.992  13.187  0.00  0.00    +0.000 A 
BRANCH   6  11
ATOM     11  C   UNL     1      43.722   4.990  11.284  0.00  0.00    +0.000 C 
ATOM     12  N   UNL     1      43.873   4.764   9.945  0.00  0.00    +0.000 N 
ATOM     13  O   UNL     1      42.610   5.210  11.751  0.00  0.00    +0.000 OA
ATOM     14  H   UNL     1      44.782   4.533   9.567  0.00  0.00    +0.000 HD
ATOM     15  H   UNL     1      43.046   4.757   9.365  0.00  0.00    +0.000 HD
ENDBRANCH   6  11
ENDBRANCH   1   2
BRANCH   1  20
ATOM     16  C   UNL     1      49.556   6.007  17.159  0.00  0.00    +0.000 A 
ATOM     17  C   UNL     1      50.856   6.067  16.665  0.00  0.00    +0.000 A 
ATOM     18  N   UNL     1      51.213   6.738  15.551  0.00  0.00    +0.000 NA
ATOM     19  C   UNL     1      50.229   7.372  14.878  0.00  0.00    +0.000 A 
ATOM     20  C   UNL     1      48.900   7.396  15.291  0.00  0.00    +0.000 A 
ATOM     21  C   UNL     1      48.569   6.700  16.452  0.00  0.00    +0.000 A 
BRANCH  16  22
ATOM     22  C   UNL     1      49.217   5.220  18.395  0.00  0.00    +0.000 C 
BRANCH  22  24
ATOM     23  C   UNL     1      49.593   2.979  17.348  0.00  0.00    +0.000 C 
ATOM     24  C   UNL     1      48.589   3.821  18.153  0.00  0.00    +0.000 C 
ATOM     25  C   UNL     1      47.269   3.910  17.368  0.00  0.00    +0.000 C 
BRANCH  24  26
ATOM     26  N   UNL     1      48.345   3.131  19.428  0.00  0.00    +0.000 NA
ATOM     27  H   UNL     1      47.452   3.435  19.822  0.00  0.00    +0.000 HD
ATOM     28  H   UNL     1      49.052   3.405  20.111  0.00  0.00    +0.000 HD
ENDBRANCH  24  26
ENDBRANCH  22  24
ENDBRANCH  16  22
ENDBRANCH   1  20
TORSDOF 6
ENDMDL
MODEL 6
REMARK VINA RESULT:    -6.604      3.058      6.939
REMARK INTER + INTRA:          -8.168
REMARK INTER:                  -7.893
REMARK INTRA:                  -0.275
REMARK UNBOUND:                 0.560
REMARK  Name = 
REMARK  8 active torsions:
REMARK  status: ('A' for Active; 'I' for Inactive)
REMARK    1  A    between atoms: C_1  and  C_2
REMARK    2  A    between atoms: C_2  and  C_3
REMARK    3  A    between atoms: C_2  and  N_4
REMARK    4  A    between atoms: C_2  and  C_5
REMARK    5  A    between atoms: C_5  and  C_6
REMARK    6  A    between atoms: C_10  and  C_11
REMARK    7  A    between atoms: C_11  and  N_12
REMARK    8  A    between atoms: C_16  and  C_17
REMARK                            x       y       z     vdW  Elec       q    Type
REMARK                         _______ _______ _______ _____ _____    ______ ____
ROOT
ATOM      1  C   UNL     1      44.887   7.830  12.418  0.00  0.00    +0.000 C 
ENDROOT
BRANCH   1   2
ATOM      2  N   UNL     1      45.299   6.512  11.929  0.00  0.00    +0.000 N 
ATOM      3  C   UNL     1      46.282   6.473  10.955  0.00  0.00    +0.000 A 
ATOM      4  C   UNL     1      45.999   5.411  10.142  0.00  0.00    +0.000 A 
ATOM      5  C   UNL     1      44.992   4.635  10.781  0.00  0.00    +0.000 A 
ATOM      6  C   UNL     1      44.331   3.441  10.448  0.00  0.00    +0.000 A 
ATOM      7  N   UNL     1      43.492   2.836  11.343  0.00  0.00    +0.000 NA
ATOM      8  C   UNL     1      43.307   3.435  12.541  0.00  0.00    +0.000 A 
ATOM      9  C   UNL     1      43.839   4.661  12.924  0.00  0.00    +0.000 A 
ATOM     10  C   UNL     1      44.677   5.277  11.983  0.00  0.00    +0.000 A 
BRANCH   6  11
ATOM     11  C   UNL     1      44.509   2.820   9.099  0.00  0.00    +0.000 C 
ATOM     12  N   UNL     1      44.183   3.604   8.029  0.00  0.00    +0.000 N 
ATOM     13  O   UNL     1      44.945   1.687   8.925  0.00  0.00    +0.000 OA
ATOM     14  H   UNL     1      43.871   4.555   8.171  0.00  0.00    +0.000 HD
ATOM     15  H   UNL     1      44.336   3.235   7.102  0.00  0.00    +0.000 HD
ENDBRANCH   6  11
ENDBRANCH   1   2
BRANCH   1  20
ATOM     16  C   UNL     1      48.087   9.626  13.346  0.00  0.00    +0.000 A 
ATOM     17  C   UNL     1      47.880  10.799  12.628  0.00  0.00    +0.000 A 
ATOM     18  N   UNL     1      46.773  11.058  11.902  0.00  0.00    +0.000 NA
ATOM     19  C   UNL     1      45.825  10.097  11.870  0.00  0.00    +0.000 A 
ATOM     20  C   UNL     1      45.918   8.895  12.566  0.00  0.00    +0.000 A 
ATOM     21  C   UNL     1      47.071   8.666  13.314  0.00  0.00    +0.000 A 
BRANCH  16  22
ATOM     22  C   UNL     1      49.357   9.386  14.117  0.00  0.00    +0.000 C 
BRANCH  22  24
ATOM     23  C   UNL     1      51.721   8.591  13.930  0.00  0.00    +0.000 C 
ATOM     24  C   UNL     1      50.264   8.245  13.584  0.00  0.00    +0.000 C 
ATOM     25  C   UNL     1      50.138   8.074  12.061  0.00  0.00    +0.000 C 
BRANCH  24  26
ATOM     26  N   UNL     1      49.938   6.970  14.240  0.00  0.00    +0.000 NA
ATOM     27  H   UNL     1      50.396   6.199  13.748  0.00  0.00    +0.000 HD
ATOM     28  H   UNL     1      48.936   6.786  14.161  0.00  0.00    +0.000 HD
ENDBRANCH  24  26
ENDBRANCH  22  24
ENDBRANCH  16  22
ENDBRANCH   1  20
TORSDOF 6
ENDMDL
MODEL 7
REMARK VINA RESULT:    -6.437      2.597      3.834
REMARK INTER + INTRA:          -7.947
REMARK INTER:                  -7.654
REMARK INTRA:                  -0.293
REMARK UNBOUND:                 0.560
REMARK  Name = 
REMARK  8 active torsions:
REMARK  status: ('A' for Active; 'I' for Inactive)
REMARK    1  A    between atoms: C_1  and  C_2
REMARK    2  A    between atoms: C_2  and  C_3
REMARK    3  A    between atoms: C_2  and  N_4
REMARK    4  A    between atoms: C_2  and  C_5
REMARK    5  A    between atoms: C_5  and  C_6
REMARK    6  A    between atoms: C_10  and  C_11
REMARK    7  A    between atoms: C_11  and  N_12
REMARK    8  A    between atoms: C_16  and  C_17
REMARK                            x       y       z     vdW  Elec       q    Type
REMARK                         _______ _______ _______ _____ _____    ______ ____
ROOT
ATOM      1  C   UNL     1      46.636   3.690  13.747  0.00  0.00    +0.000 C 
ENDROOT
BRANCH   1   2
ATOM      2  N   UNL     1      47.075   4.655  14.758  0.00  0.00    +0.000 N 
ATOM      3  C   UNL     1      47.427   5.920  14.319  0.00  0.00    +0.000 A 
ATOM      4  C   UNL     1      48.441   6.356  15.126  0.00  0.00    +0.000 A 
ATOM      5  C   UNL     1      48.525   5.465  16.232  0.00  0.00    +0.000 A 
ATOM      6  C   UNL     1      49.339   5.414  17.376  0.00  0.00    +0.000 A 
ATOM      7  N   UNL     1      49.093   4.504  18.367  0.00  0.00    +0.000 NA
ATOM      8  C   UNL     1      48.060   3.648  18.197  0.00  0.00    +0.000 A 
ATOM      9  C   UNL     1      47.261   3.558  17.062  0.00  0.00    +0.000 A 
ATOM     10  C   UNL     1      47.546   4.483  16.048  0.00  0.00    +0.000 A 
BRANCH   6  11
ATOM     11  C   UNL     1      50.508   6.336  17.524  0.00  0.00    +0.000 C 
ATOM     12  N   UNL     1      51.654   5.959  16.883  0.00  0.00    +0.000 N 
ATOM     13  O   UNL     1      50.469   7.388  18.152  0.00  0.00    +0.000 OA
ATOM     14  H   UNL     1      51.672   5.117  16.324  0.00  0.00    +0.000 HD
ATOM     15  H   UNL     1      52.449   6.581  16.920  0.00  0.00    +0.000 HD
ENDBRANCH   6  11
ENDBRANCH   1   2
BRANCH   1  20
ATOM     16  C   UNL     1      44.965   4.583  10.471  0.00  0.00    +0.000 A 
ATOM     17  C   UNL     1      43.651   4.660  10.924  0.00  0.00    +0.000 A 
ATOM     18  N   UNL     1      43.281   4.479  12.209  0.00  0.00    +0.000 NA
ATOM     19  C   UNL     1      44.260   4.189  13.092  0.00  0.00    +0.000 A 
ATOM     20  C   UNL     1      45.609   4.108  12.753  0.00  0.00    +0.000 A 
ATOM     21  C   UNL     1      45.955   4.312  11.419  0.00  0.00    +0.000 A 
BRANCH  16  22
ATOM     22  C   UNL     1      45.311   4.771   9.019  0.00  0.00    +0.000 C 
BRANCH  22  24
ATOM     23  C   UNL     1      45.411   2.274   9.119  0.00  0.00    +0.000 C 
ATOM     24  C   UNL     1      45.356   3.477   8.164  0.00  0.00    +0.000 C 
ATOM     25  C   UNL     1      46.585   3.439   7.241  0.00  0.00    +0.000 C 
BRANCH  24  26
ATOM     26  N   UNL     1      44.139   3.348   7.349  0.00  0.00    +0.000 NA
ATOM     27  H   UNL     1      44.027   2.379   7.043  0.00  0.00    +0.000 HD
ATOM     28  H   UNL     1      44.236   3.895   6.493  0.00  0.00    +0.000 HD
ENDBRANCH  24  26
ENDBRANCH  22  24
ENDBRANCH  16  22
ENDBRANCH   1  20
TORSDOF 6
ENDMDL
MODEL 8
REMARK VINA RESULT:    -6.432      4.185      6.857
REMARK INTER + INTRA:          -7.940
REMARK INTER:                  -7.400
REMARK INTRA:                  -0.540
REMARK UNBOUND:                 0.560
REMARK  Name = 
REMARK  8 active torsions:
REMARK  status: ('A' for Active; 'I' for Inactive)
REMARK    1  A    between atoms: C_1  and  C_2
REMARK    2  A    between atoms: C_2  and  C_3
REMARK    3  A    between atoms: C_2  and  N_4
REMARK    4  A    between atoms: C_2  and  C_5
REMARK    5  A    between atoms: C_5  and  C_6
REMARK    6  A    between atoms: C_10  and  C_11
REMARK    7  A    between atoms: C_11  and  N_12
REMARK    8  A    between atoms: C_16  and  C_17
REMARK                            x       y       z     vdW  Elec       q    Type
REMARK                         _______ _______ _______ _____ _____    ______ ____
ROOT
ATOM      1  C   UNL     1      47.076   3.961  16.780  0.00  0.00    +0.000 C 
ENDROOT
BRANCH   1   2
ATOM      2  N   UNL     1      48.194   3.855  17.721  0.00  0.00    +0.000 N 
ATOM      3  C   UNL     1      48.305   4.837  18.690  0.00  0.00    +0.000 A 
ATOM      4  C   UNL     1      49.640   5.030  18.913  0.00  0.00    +0.000 A 
ATOM      5  C   UNL     1      50.342   3.971  18.274  0.00  0.00    +0.000 A 
ATOM      6  C   UNL     1      51.701   3.628  18.177  0.00  0.00    +0.000 A 
ATOM      7  N   UNL     1      52.082   2.445  17.606  0.00  0.00    +0.000 NA
ATOM      8  C   UNL     1      51.113   1.635  17.122  0.00  0.00    +0.000 A 
ATOM      9  C   UNL     1      49.755   1.930  17.085  0.00  0.00    +0.000 A 
ATOM     10  C   UNL     1      49.388   3.158  17.653  0.00  0.00    +0.000 A 
BRANCH   6  11
ATOM     11  C   UNL     1      52.761   4.559  18.672  0.00  0.00    +0.000 C 
ATOM     12  N   UNL     1      53.406   5.296  17.719  0.00  0.00    +0.000 N 
ATOM     13  O   UNL     1      53.043   4.700  19.857  0.00  0.00    +0.000 OA
ATOM     14  H   UNL     1      53.139   5.217  16.747  0.00  0.00    +0.000 HD
ATOM     15  H   UNL     1      54.094   5.971  18.020  0.00  0.00    +0.000 HD
ENDBRANCH   6  11
ENDBRANCH   1   2
BRANCH   1  20
ATOM     16  C   UNL     1      46.623   5.090  13.196  0.00  0.00    +0.000 A 
ATOM     17  C   UNL     1      47.607   6.073  13.163  0.00  0.00    +0.000 A 
ATOM     18  N   UNL     1      48.420   6.365  14.200  0.00  0.00    +0.000 NA
ATOM     19  C   UNL     1      48.239   5.660  15.337  0.00  0.00    +0.000 A 
ATOM     20  C   UNL     1      47.300   4.641  15.474  0.00  0.00    +0.000 A 
ATOM     21  C   UNL     1      46.485   4.359  14.379  0.00  0.00    +0.000 A 
BRANCH  16  22
ATOM     22  C   UNL     1      45.730   4.827  12.013  0.00  0.00    +0.000 C 
BRANCH  22  24
ATOM     23  C   UNL     1      43.519   5.117  10.879  0.00  0.00    +0.000 C 
ATOM     24  C   UNL     1      44.492   5.753  11.885  0.00  0.00    +0.000 C 
ATOM     25  C   UNL     1      44.872   7.159  11.392  0.00  0.00    +0.000 C 
BRANCH  24  26
ATOM     26  N   UNL     1      43.792   5.868  13.173  0.00  0.00    +0.000 NA
ATOM     27  H   UNL     1      44.207   6.620  13.729  0.00  0.00    +0.000 HD
ATOM     28  H   UNL     1      43.930   5.017  13.720  0.00  0.00    +0.000 HD
ENDBRANCH  24  26
ENDBRANCH  22  24
ENDBRANCH  16  22
ENDBRANCH   1  20
TORSDOF 6
ENDMDL
MODEL 9
REMARK VINA RESULT:    -6.383      4.107      7.141
REMARK INTER + INTRA:          -7.876
REMARK INTER:                  -6.960
REMARK INTRA:                  -0.916
REMARK UNBOUND:                 0.560
REMARK  Name = 
REMARK  8 active torsions:
REMARK  status: ('A' for Active; 'I' for Inactive)
REMARK    1  A    between atoms: C_1  and  C_2
REMARK    2  A    between atoms: C_2  and  C_3
REMARK    3  A    between atoms: C_2  and  N_4
REMARK    4  A    between atoms: C_2  and  C_5
REMARK    5  A    between atoms: C_5  and  C_6
REMARK    6  A    between atoms: C_10  and  C_11
REMARK    7  A    between atoms: C_11  and  N_12
REMARK    8  A    between atoms: C_16  and  C_17
REMARK                            x       y       z     vdW  Elec       q    Type
REMARK                         _______ _______ _______ _____ _____    ______ ____
ROOT
ATOM      1  C   UNL     1      49.384   8.269  16.384  0.00  0.00    +0.000 C 
ENDROOT
BRANCH   1   2
ATOM      2  N   UNL     1      49.810   7.051  17.078  0.00  0.00    +0.000 N 
ATOM      3  C   UNL     1      51.143   6.693  16.974  0.00  0.00    +0.000 A 
ATOM      4  C   UNL     1      51.191   5.326  16.970  0.00  0.00    +0.000 A 
ATOM      5  C   UNL     1      49.905   4.849  17.346  0.00  0.00    +0.000 A 
ATOM      6  C   UNL     1      49.365   3.566  17.536  0.00  0.00    +0.000 A 
ATOM      7  N   UNL     1      48.107   3.408  18.052  0.00  0.00    +0.000 NA
ATOM      8  C   UNL     1      47.401   4.523  18.349  0.00  0.00    +0.000 A 
ATOM      9  C   UNL     1      47.811   5.829  18.107  0.00  0.00    +0.000 A 
ATOM     10  C   UNL     1      49.093   5.968  17.555  0.00  0.00    +0.000 A 
BRANCH   6  11
ATOM     11  C   UNL     1      50.141   2.345  17.156  0.00  0.00    +0.000 C 
ATOM     12  N   UNL     1      51.101   1.944  18.042  0.00  0.00    +0.000 N 
ATOM     13  O   UNL     1      49.938   1.702  16.133  0.00  0.00    +0.000 OA
ATOM     14  H   UNL     1      51.234   2.445  18.910  0.00  0.00    +0.000 HD
ATOM     15  H   UNL     1      51.612   1.096  17.842  0.00  0.00    +0.000 HD
ENDBRANCH   6  11
ENDBRANCH   1   2
BRANCH   1  20
ATOM     16  C   UNL     1      48.379   7.476  12.822  0.00  0.00    +0.000 A 
ATOM     17  C   UNL     1      49.128   8.453  12.174  0.00  0.00    +0.000 A 
ATOM     18  N   UNL     1      49.953   9.316  12.803  0.00  0.00    +0.000 NA
ATOM     19  C   UNL     1      50.029   9.220  14.147  0.00  0.00    +0.000 A 
ATOM     20  C   UNL     1      49.340   8.268  14.895  0.00  0.00    +0.000 A 
ATOM     21  C   UNL     1      48.506   7.386  14.211  0.00  0.00    +0.000 A 
BRANCH  16  22
ATOM     22  C   UNL     1      47.457   6.558  12.066  0.00  0.00    +0.000 C 
BRANCH  22  24
ATOM     23  C   UNL     1      45.166   6.291  11.097  0.00  0.00    +0.000 C 
ATOM     24  C   UNL     1      45.942   6.748  12.343  0.00  0.00    +0.000 C 
ATOM     25  C   UNL     1      45.590   8.215  12.640  0.00  0.00    +0.000 C 
BRANCH  24  26
ATOM     26  N   UNL     1      45.509   5.912  13.472  0.00  0.00    +0.000 NA
ATOM     27  H   UNL     1      46.192   5.169  13.637  0.00  0.00    +0.000 HD
ATOM     28  H   UNL     1      44.639   5.433  13.235  0.00  0.00    +0.000 HD
ENDBRANCH  24  26
ENDBRANCH  22  24
ENDBRANCH  16  22
ENDBRANCH   1  20
TORSDOF 6
ENDMDL
