MODEL 1
REMARK VINA RESULT:    -8.310      0.000      0.000
REMARK INTER + INTRA:         -12.370
REMARK INTER:                 -11.225
REMARK INTRA:                  -1.145
REMARK UNBOUND:                -1.145
REMARK  Name = 
REMARK  6 active torsions:
REMARK  status: ('A' for Active; 'I' for Inactive)
REMARK    1  A    between atoms: C_2  and  C_25
REMARK    2  A    between atoms: N_3  and  C_4
REMARK    3  A    between atoms: C_4  and  C_5
REMARK    4  A    between atoms: C_8  and  C_9
REMARK    5  A    between atoms: C_9  and  N_10
REMARK    6  A    between atoms: C_11  and  C_13
REMARK                            x       y       z     vdW  Elec       q    Type
REMARK                         _______ _______ _______ _____ _____    ______ ____
ROOT
ATOM      1  C   UNL     1      45.044   5.378  10.746  0.00  0.00    +0.000 A 
ATOM      2  C   UNL     1      44.437   5.685  11.973  0.00  0.00    +0.000 A 
ATOM      3  C   UNL     1      45.052   6.560  12.875  0.00  0.00    +0.000 A 
ATOM      4  C   UNL     1      46.276   7.165  12.563  0.00  0.00    +0.000 A 
ATOM      5  C   UNL     1      46.883   6.857  11.337  0.00  0.00    +0.000 A 
ATOM      6  C   UNL     1      46.268   5.983  10.433  0.00  0.00    +0.000 A 
ENDROOT
BRANCH   1   7
ATOM      7  C   UNL     1      44.395   4.413   9.788  0.00  0.00    +0.000 C 
BRANCH   7  10
ATOM      8  O   UNL     1      45.266   1.834   9.242  0.00  0.00    +0.000 OA
ATOM      9  C   UNL     1      45.636   2.741   8.501  0.00  0.00    +0.000 C 
ATOM     10  N   UNL     1      45.272   4.052   8.701  0.00  0.00    +0.000 N 
ATOM     11  H   UNL     1      45.478   4.744   7.995  0.00  0.00    +0.000 HD
BRANCH   9  12
ATOM     12  C   UNL     1      46.469   2.498   7.353  0.00  0.00    +0.000 A 
ATOM     13  C   UNL     1      46.597   3.118   6.125  0.00  0.00    +0.000 A 
ATOM     14  C   UNL     1      47.602   2.395   5.452  0.00  0.00    +0.000 A 
ATOM     15  N   UNL     1      48.083   1.392   6.184  0.00  0.00    +0.000 NA
ATOM     16  N   UNL     1      47.390   1.482   7.334  0.00  0.00    +0.000 N 
ATOM     17  H   UNL     1      47.582   0.817   8.078  0.00  0.00    +0.000 HD
ENDBRANCH   9  12
ENDBRANCH   7  10
ENDBRANCH   1   7
BRANCH   4  18
ATOM     18  C   UNL     1      46.953   8.098  13.535  0.00  0.00    +0.000 C 
BRANCH  18  19
ATOM     19  N   UNL     1      47.426   7.394  14.700  0.00  0.00    +0.000 N 
ATOM     20  C   UNL     1      48.695   6.875  14.751  0.00  0.00    +0.000 C 
ATOM     21  O   UNL     1      49.498   7.029  13.833  0.00  0.00    +0.000 OA
ATOM     22  H   UNL     1      46.724   7.059  15.353  0.00  0.00    +0.000 HD
BRANCH  20  23
ATOM     23  C   UNL     1      49.072   6.173  15.985  0.00  0.00    +0.000 A 
ATOM     24  C   UNL     1      50.167   6.611  16.719  0.00  0.00    +0.000 A 
ATOM     25  S   UNL     1      50.434   5.720  18.150  0.00  0.00    +0.000 S 
ATOM     26  C   UNL     1      49.129   4.683  17.811  0.00  0.00    +0.000 A 
ATOM     27  N   UNL     1      48.818   3.654  18.645  0.00  0.00    +0.000 NA
ATOM     28  C   UNL     1      47.828   2.926  18.250  0.00  0.00    +0.000 A 
ATOM     29  N   UNL     1      47.115   3.137  17.099  0.00  0.00    +0.000 N 
ATOM     30  C   UNL     1      47.372   4.182  16.242  0.00  0.00    +0.000 A 
ATOM     31  O   UNL     1      46.687   4.369  15.242  0.00  0.00    +0.000 OA
ATOM     32  C   UNL     1      48.487   5.023  16.633  0.00  0.00    +0.000 A 
ATOM     33  H   UNL     1      46.343   2.537  16.850  0.00  0.00    +0.000 HD
ENDBRANCH  20  23
ENDBRANCH  18  19
ENDBRANCH   4  18
TORSDOF 6
ENDMDL
MODEL 2
REMARK VINA RESULT:    -7.523      2.295      2.725
REMARK INTER + INTRA:         -11.307
REMARK INTER:                 -10.351
REMARK INTRA:                  -0.956
REMARK UNBOUND:                -1.145
REMARK  Name = 
REMARK  6 active torsions:
REMARK  status: ('A' for Active; 'I' for Inactive)
REMARK    1  A    between atoms: C_2  and  C_25
REMARK    2  A    between atoms: N_3  and  C_4
REMARK    3  A    between atoms: C_4  and  C_5
REMARK    4  A    between atoms: C_8  and  C_9
REMARK    5  A    between atoms: C_9  and  N_10
REMARK    6  A    between atoms: C_11  and  C_13
REMARK                            x       y       z     vdW  Elec       q    Type
REMARK                         _______ _______ _______ _____ _____    ______ ____
ROOT
ATOM      1  C   UNL     1      45.290   4.943  11.517  0.00  0.00    +0.000 A 
ATOM      2  C   UNL     1      45.738   6.175  11.017  0.00  0.00    +0.000 A 
ATOM      3  C   UNL     1      46.591   6.986  11.774  0.00  0.00    +0.000 A 
ATOM      4  C   UNL     1      47.033   6.574  13.038  0.00  0.00    +0.000 A 
ATOM      5  C   UNL     1      46.586   5.343  13.537  0.00  0.00    +0.000 A 
ATOM      6  C   UNL     1      45.734   4.530  12.780  0.00  0.00    +0.000 A 
ENDROOT
BRANCH   1   7
ATOM      7  C   UNL     1      44.349   4.083  10.714  0.00  0.00    +0.000 C 
BRANCH   7  10
ATOM      8  O   UNL     1      45.160   4.463   8.086  0.00  0.00    +0.000 OA
ATOM      9  C   UNL     1      45.425   3.392   8.627  0.00  0.00    +0.000 C 
ATOM     10  N   UNL     1      45.049   3.105   9.918  0.00  0.00    +0.000 N 
ATOM     11  H   UNL     1      45.404   2.276  10.372  0.00  0.00    +0.000 HD
BRANCH   9  12
ATOM     12  C   UNL     1      46.165   2.358   7.953  0.00  0.00    +0.000 A 
ATOM     13  C   UNL     1      47.082   2.367   6.919  0.00  0.00    +0.000 A 
ATOM     14  C   UNL     1      47.441   1.017   6.736  0.00  0.00    +0.000 A 
ATOM     15  N   UNL     1      46.808   0.204   7.579  0.00  0.00    +0.000 NA
ATOM     16  N   UNL     1      46.051   1.039   8.312  0.00  0.00    +0.000 N 
ATOM     17  H   UNL     1      45.465   0.656   9.049  0.00  0.00    +0.000 HD
ENDBRANCH   9  12
ENDBRANCH   7  10
ENDBRANCH   1   7
BRANCH   4  18
ATOM     18  C   UNL     1      47.941   7.448  13.866  0.00  0.00    +0.000 C 
BRANCH  18  19
ATOM     19  N   UNL     1      47.933   7.054  15.252  0.00  0.00    +0.000 N 
ATOM     20  C   UNL     1      49.084   6.654  15.884  0.00  0.00    +0.000 C 
ATOM     21  O   UNL     1      50.174   6.664  15.317  0.00  0.00    +0.000 OA
ATOM     22  H   UNL     1      47.033   6.819  15.660  0.00  0.00    +0.000 HD
BRANCH  20  23
ATOM     23  C   UNL     1      48.961   6.270  17.297  0.00  0.00    +0.000 A 
ATOM     24  C   UNL     1      49.359   5.004  17.704  0.00  0.00    +0.000 A 
ATOM     25  S   UNL     1      49.199   4.741  19.382  0.00  0.00    +0.000 S 
ATOM     26  C   UNL     1      48.540   6.291  19.617  0.00  0.00    +0.000 A 
ATOM     27  N   UNL     1      48.152   6.706  20.853  0.00  0.00    +0.000 NA
ATOM     28  C   UNL     1      47.638   7.890  20.881  0.00  0.00    +0.000 A 
ATOM     29  N   UNL     1      47.483   8.700  19.787  0.00  0.00    +0.000 N 
ATOM     30  C   UNL     1      47.889   8.337  18.525  0.00  0.00    +0.000 A 
ATOM     31  O   UNL     1      47.777   9.102  17.573  0.00  0.00    +0.000 OA
ATOM     32  C   UNL     1      48.462   7.006  18.435  0.00  0.00    +0.000 A 
ATOM     33  H   UNL     1      47.081   9.621  19.877  0.00  0.00    +0.000 HD
ENDBRANCH  20  23
ENDBRANCH  18  19
ENDBRANCH   4  18
TORSDOF 6
ENDMDL
MODEL 3
REMARK VINA RESULT:    -7.388      2.255      3.799
REMARK INTER + INTRA:         -11.125
REMARK INTER:                 -10.153
REMARK INTRA:                  -0.972
REMARK UNBOUND:                -1.145
REMARK  Name = 
REMARK  6 active torsions:
REMARK  status: ('A' for Active; 'I' for Inactive)
REMARK    1  A    between atoms: C_2  and  C_25
REMARK    2  A    between atoms: N_3  and  C_4
REMARK    3  A    between atoms: C_4  and  C_5
REMARK    4  A    between atoms: C_8  and  C_9
REMARK    5  A    between atoms: C_9  and  N_10
REMARK    6  A    between atoms: C_11  and  C_13
REMARK                            x       y       z     vdW  Elec       q    Type
REMARK                         _______ _______ _______ _____ _____    ______ ____
ROOT
ATOM      1  C   UNL     1      44.826   4.330  11.111  0.00  0.00    +0.000 A 
ATOM      2  C   UNL     1      45.110   5.582  11.675  0.00  0.00    +0.000 A 
ATOM      3  C   UNL     1      45.788   5.680  12.896  0.00  0.00    +0.000 A 
ATOM      4  C   UNL     1      46.217   4.528  13.569  0.00  0.00    +0.000 A 
ATOM      5  C   UNL     1      45.933   3.277  13.005  0.00  0.00    +0.000 A 
ATOM      6  C   UNL     1      45.256   3.179  11.784  0.00  0.00    +0.000 A 
ENDROOT
BRANCH   1   7
ATOM      7  C   UNL     1      44.071   4.225   9.812  0.00  0.00    +0.000 C 
BRANCH   7  10
ATOM      8  O   UNL     1      46.191   5.223   8.325  0.00  0.00    +0.000 OA
ATOM      9  C   UNL     1      45.850   4.058   8.141  0.00  0.00    +0.000 C 
ATOM     10  N   UNL     1      44.801   3.481   8.816  0.00  0.00    +0.000 N 
ATOM     11  H   UNL     1      44.641   2.486   8.741  0.00  0.00    +0.000 HD
BRANCH   9  12
ATOM     12  C   UNL     1      46.536   3.199   7.211  0.00  0.00    +0.000 A 
ATOM     13  C   UNL     1      46.813   3.292   5.861  0.00  0.00    +0.000 A 
ATOM     14  C   UNL     1      47.529   2.117   5.552  0.00  0.00    +0.000 A 
ATOM     15  N   UNL     1      47.697   1.332   6.614  0.00  0.00    +0.000 NA
ATOM     16  N   UNL     1      47.099   2.012   7.607  0.00  0.00    +0.000 N 
ATOM     17  H   UNL     1      47.097   1.618   8.544  0.00  0.00    +0.000 HD
ENDBRANCH   9  12
ENDBRANCH   7  10
ENDBRANCH   1   7
BRANCH   4  18
ATOM     18  C   UNL     1      46.935   4.624  14.891  0.00  0.00    +0.000 C 
BRANCH  18  19
ATOM     19  N   UNL     1      47.549   5.916  15.067  0.00  0.00    +0.000 N 
ATOM     20  C   UNL     1      48.635   6.080  15.890  0.00  0.00    +0.000 C 
ATOM     21  O   UNL     1      49.162   5.134  16.469  0.00  0.00    +0.000 OA
ATOM     22  H   UNL     1      47.003   6.727  14.794  0.00  0.00    +0.000 HD
BRANCH  20  23
ATOM     23  C   UNL     1      49.180   7.441  15.998  0.00  0.00    +0.000 A 
ATOM     24  C   UNL     1      49.253   8.056  17.241  0.00  0.00    +0.000 A 
ATOM     25  S   UNL     1      49.957   9.609  17.196  0.00  0.00    +0.000 S 
ATOM     26  C   UNL     1      50.140   9.537  15.507  0.00  0.00    +0.000 A 
ATOM     27  N   UNL     1      50.672  10.581  14.816  0.00  0.00    +0.000 NA
ATOM     28  C   UNL     1      50.720  10.406  13.537  0.00  0.00    +0.000 A 
ATOM     29  N   UNL     1      50.292   9.278  12.888  0.00  0.00    +0.000 N 
ATOM     30  C   UNL     1      49.778   8.186  13.546  0.00  0.00    +0.000 A 
ATOM     31  O   UNL     1      49.445   7.174  12.940  0.00  0.00    +0.000 OA
ATOM     32  C   UNL     1      49.688   8.337  14.987  0.00  0.00    +0.000 A 
ATOM     33  H   UNL     1      50.366   9.198  11.885  0.00  0.00    +0.000 HD
ENDBRANCH  20  23
ENDBRANCH  18  19
ENDBRANCH   4  18
TORSDOF 6
ENDMDL
MODEL 4
REMARK VINA RESULT:    -7.332      4.624      9.499
REMARK INTER + INTRA:         -11.049
REMARK INTER:                 -10.265
REMARK INTRA:                  -0.784
REMARK UNBOUND:                -1.145
REMARK  Name = 
REMARK  6 active torsions:
REMARK  status: ('A' for Active; 'I' for Inactive)
REMARK    1  A    between atoms: C_2  and  C_25
REMARK    2  A    between atoms: N_3  and  C_4
REMARK    3  A    between atoms: C_4  and  C_5
REMARK    4  A    between atoms: C_8  and  C_9
REMARK    5  A    between atoms: C_9  and  N_10
REMARK    6  A    between atoms: C_11  and  C_13
REMARK                            x       y       z     vdW  Elec       q    Type
REMARK                         _______ _______ _______ _____ _____    ______ ____
ROOT
ATOM      1  C   UNL     1      51.375   2.879  17.766  0.00  0.00    +0.000 A 
ATOM      2  C   UNL     1      50.731   4.044  18.210  0.00  0.00    +0.000 A 
ATOM      3  C   UNL     1      49.372   4.253  17.947  0.00  0.00    +0.000 A 
ATOM      4  C   UNL     1      48.622   3.294  17.254  0.00  0.00    +0.000 A 
ATOM      5  C   UNL     1      49.266   2.131  16.811  0.00  0.00    +0.000 A 
ATOM      6  C   UNL     1      50.625   1.920  17.074  0.00  0.00    +0.000 A 
ENDROOT
BRANCH   1   7
ATOM      7  C   UNL     1      52.844   2.668  18.024  0.00  0.00    +0.000 C 
BRANCH   7  10
ATOM      8  O   UNL     1      54.489   0.779  16.828  0.00  0.00    +0.000 OA
ATOM      9  C   UNL     1      53.964   0.495  17.901  0.00  0.00    +0.000 C 
ATOM     10  N   UNL     1      53.120   1.358  18.560  0.00  0.00    +0.000 N 
ATOM     11  H   UNL     1      52.821   1.147  19.502  0.00  0.00    +0.000 HD
BRANCH   9  12
ATOM     12  C   UNL     1      54.205  -0.761  18.562  0.00  0.00    +0.000 A 
ATOM     13  C   UNL     1      55.353  -1.454  18.894  0.00  0.00    +0.000 A 
ATOM     14  C   UNL     1      54.902  -2.622  19.539  0.00  0.00    +0.000 A 
ATOM     15  N   UNL     1      53.574  -2.680  19.616  0.00  0.00    +0.000 NA
ATOM     16  N   UNL     1      53.175  -1.539  19.028  0.00  0.00    +0.000 N 
ATOM     17  H   UNL     1      52.181  -1.337  18.966  0.00  0.00    +0.000 HD
ENDBRANCH   9  12
ENDBRANCH   7  10
ENDBRANCH   1   7
BRANCH   4  18
ATOM     18  C   UNL     1      47.162   3.518  16.954  0.00  0.00    +0.000 C 
BRANCH  18  19
ATOM     19  N   UNL     1      46.978   4.552  15.966  0.00  0.00    +0.000 N 
ATOM     20  C   UNL     1      47.043   4.273  14.624  0.00  0.00    +0.000 C 
ATOM     21  O   UNL     1      47.209   3.130  14.205  0.00  0.00    +0.000 OA
ATOM     22  H   UNL     1      47.075   5.513  16.280  0.00  0.00    +0.000 HD
BRANCH  20  23
ATOM     23  C   UNL     1      46.845   5.402  13.705  0.00  0.00    +0.000 A 
ATOM     24  C   UNL     1      47.889   6.285  13.463  0.00  0.00    +0.000 A 
ATOM     25  S   UNL     1      47.508   7.505  12.334  0.00  0.00    +0.000 S 
ATOM     26  C   UNL     1      45.916   6.929  12.169  0.00  0.00    +0.000 A 
ATOM     27  N   UNL     1      45.027   7.554  11.349  0.00  0.00    +0.000 NA
ATOM     28  C   UNL     1      43.846   7.033  11.346  0.00  0.00    +0.000 A 
ATOM     29  N   UNL     1      43.474   5.939  12.082  0.00  0.00    +0.000 N 
ATOM     30  C   UNL     1      44.345   5.256  12.898  0.00  0.00    +0.000 A 
ATOM     31  O   UNL     1      43.992   4.253  13.509  0.00  0.00    +0.000 OA
ATOM     32  C   UNL     1      45.685   5.811  12.949  0.00  0.00    +0.000 A 
ATOM     33  H   UNL     1      42.536   5.573  12.027  0.00  0.00    +0.000 HD
ENDBRANCH  20  23
ENDBRANCH  18  19
ENDBRANCH   4  18
TORSDOF 6
ENDMDL
MODEL 5
REMARK VINA RESULT:    -7.081      4.566      9.399
REMARK INTER + INTRA:         -10.710
REMARK INTER:                  -9.608
REMARK INTRA:                  -1.102
REMARK UNBOUND:                -1.145
REMARK  Name = 
REMARK  6 active torsions:
REMARK  status: ('A' for Active; 'I' for Inactive)
REMARK    1  A    between atoms: C_2  and  C_25
REMARK    2  A    between atoms: N_3  and  C_4
REMARK    3  A    between atoms: C_4  and  C_5
REMARK    4  A    between atoms: C_8  and  C_9
REMARK    5  A    between atoms: C_9  and  N_10
REMARK    6  A    between atoms: C_11  and  C_13
REMARK                            x       y       z     vdW  Elec       q    Type
REMARK                         _______ _______ _______ _____ _____    ______ ____
ROOT
ATOM      1  C   UNL     1      51.326   3.018  17.766  0.00  0.00    +0.000 A 
ATOM      2  C   UNL     1      50.758   4.276  18.014  0.00  0.00    +0.000 A 
ATOM      3  C   UNL     1      49.418   4.529  17.699  0.00  0.00    +0.000 A 
ATOM      4  C   UNL     1      48.610   3.524  17.151  0.00  0.00    +0.000 A 
ATOM      5  C   UNL     1      49.179   2.267  16.903  0.00  0.00    +0.000 A 
ATOM      6  C   UNL     1      50.518   2.012  17.219  0.00  0.00    +0.000 A 
ENDROOT
BRANCH   1   7
ATOM      7  C   UNL     1      52.777   2.755  18.078  0.00  0.00    +0.000 C 
BRANCH   7  10
ATOM      8  O   UNL     1      54.604   1.044  16.878  0.00  0.00    +0.000 OA
ATOM      9  C   UNL     1      53.951   0.622  17.829  0.00  0.00    +0.000 C 
ATOM     10  N   UNL     1      53.009   1.388  18.475  0.00  0.00    +0.000 N 
ATOM     11  H   UNL     1      52.596   1.056  19.335  0.00  0.00    +0.000 HD
BRANCH   9  12
ATOM     12  C   UNL     1      54.132  -0.708  18.350  0.00  0.00    +0.000 A 
ATOM     13  C   UNL     1      55.224  -1.547  18.449  0.00  0.00    +0.000 A 
ATOM     14  C   UNL     1      54.734  -2.714  19.069  0.00  0.00    +0.000 A 
ATOM     15  N   UNL     1      53.434  -2.635  19.345  0.00  0.00    +0.000 NA
ATOM     16  N   UNL     1      53.094  -1.408  18.912  0.00  0.00    +0.000 N 
ATOM     17  H   UNL     1      52.133  -1.096  19.019  0.00  0.00    +0.000 HD
ENDBRANCH   9  12
ENDBRANCH   7  10
ENDBRANCH   1   7
BRANCH   4  18
ATOM     18  C   UNL     1      47.170   3.792  16.795  0.00  0.00    +0.000 C 
BRANCH  18  19
ATOM     19  N   UNL     1      47.059   4.750  15.724  0.00  0.00    +0.000 N 
ATOM     20  C   UNL     1      47.102   4.355  14.410  0.00  0.00    +0.000 C 
ATOM     21  O   UNL     1      47.183   3.172  14.089  0.00  0.00    +0.000 OA
ATOM     22  H   UNL     1      47.225   5.724  15.957  0.00  0.00    +0.000 HD
BRANCH  20  23
ATOM     23  C   UNL     1      46.984   5.415  13.399  0.00  0.00    +0.000 A 
ATOM     24  C   UNL     1      45.970   5.353  12.451  0.00  0.00    +0.000 A 
ATOM     25  S   UNL     1      45.944   6.686  11.388  0.00  0.00    +0.000 S 
ATOM     26  C   UNL     1      47.320   7.367  12.122  0.00  0.00    +0.000 A 
ATOM     27  N   UNL     1      47.851   8.533  11.664  0.00  0.00    +0.000 NA
ATOM     28  C   UNL     1      48.913   8.917  12.290  0.00  0.00    +0.000 A 
ATOM     29  N   UNL     1      49.488   8.245  13.337  0.00  0.00    +0.000 N 
ATOM     30  C   UNL     1      48.968   7.082  13.854  0.00  0.00    +0.000 A 
ATOM     31  O   UNL     1      49.481   6.528  14.820  0.00  0.00    +0.000 OA
ATOM     32  C   UNL     1      47.780   6.598  13.175  0.00  0.00    +0.000 A 
ATOM     33  H   UNL     1      50.314   8.604  13.791  0.00  0.00    +0.000 HD
ENDBRANCH  20  23
ENDBRANCH  18  19
ENDBRANCH   4  18
TORSDOF 6
ENDMDL
MODEL 6
REMARK VINA RESULT:    -6.877      2.401      3.199
REMARK INTER + INTRA:         -10.434
REMARK INTER:                  -9.802
REMARK INTRA:                  -0.631
REMARK UNBOUND:                -1.145
REMARK  Name = 
REMARK  6 active torsions:
REMARK  status: ('A' for Active; 'I' for Inactive)
REMARK    1  A    between atoms: C_2  and  C_25
REMARK    2  A    between atoms: N_3  and  C_4
REMARK    3  A    between atoms: C_4  and  C_5
REMARK    4  A    between atoms: C_8  and  C_9
REMARK    5  A    between atoms: C_9  and  N_10
REMARK    6  A    between atoms: C_11  and  C_13
REMARK                            x       y       z     vdW  Elec       q    Type
REMARK                         _______ _______ _______ _____ _____    ______ ____
ROOT
ATOM      1  C   UNL     1      45.027   4.511  11.034  0.00  0.00    +0.000 A 
ATOM      2  C   UNL     1      45.528   5.739  11.492  0.00  0.00    +0.000 A 
ATOM      3  C   UNL     1      46.092   5.849  12.768  0.00  0.00    +0.000 A 
ATOM      4  C   UNL     1      46.188   4.731  13.606  0.00  0.00    +0.000 A 
ATOM      5  C   UNL     1      45.687   3.504  13.148  0.00  0.00    +0.000 A 
ATOM      6  C   UNL     1      45.124   3.392  11.871  0.00  0.00    +0.000 A 
ENDROOT
BRANCH   1   7
ATOM      7  C   UNL     1      44.394   4.400   9.671  0.00  0.00    +0.000 C 
BRANCH   7  10
ATOM      8  O   UNL     1      44.993   1.811   8.867  0.00  0.00    +0.000 OA
ATOM      9  C   UNL     1      45.570   2.741   8.309  0.00  0.00    +0.000 C 
ATOM     10  N   UNL     1      45.353   4.056   8.651  0.00  0.00    +0.000 N 
ATOM     11  H   UNL     1      45.738   4.794   8.079  0.00  0.00    +0.000 HD
BRANCH   9  12
ATOM     12  C   UNL     1      46.510   2.527   7.240  0.00  0.00    +0.000 A 
ATOM     13  C   UNL     1      46.745   3.168   6.040  0.00  0.00    +0.000 A 
ATOM     14  C   UNL     1      47.817   2.467   5.453  0.00  0.00    +0.000 A 
ATOM     15  N   UNL     1      48.239   1.457   6.211  0.00  0.00    +0.000 NA
ATOM     16  N   UNL     1      47.441   1.520   7.291  0.00  0.00    +0.000 N 
ATOM     17  H   UNL     1      47.569   0.844   8.039  0.00  0.00    +0.000 HD
ENDBRANCH   9  12
ENDBRANCH   7  10
ENDBRANCH   1   7
BRANCH   4  18
ATOM     18  C   UNL     1      46.781   4.844  14.988  0.00  0.00    +0.000 C 
BRANCH  18  19
ATOM     19  N   UNL     1      48.028   5.566  14.970  0.00  0.00    +0.000 N 
ATOM     20  C   UNL     1      48.615   6.000  16.132  0.00  0.00    +0.000 C 
ATOM     21  O   UNL     1      48.136   5.749  17.236  0.00  0.00    +0.000 OA
ATOM     22  H   UNL     1      48.310   5.977  14.086  0.00  0.00    +0.000 HD
BRANCH  20  23
ATOM     23  C   UNL     1      49.883   6.729  15.998  0.00  0.00    +0.000 A 
ATOM     24  C   UNL     1      49.907   7.953  15.342  0.00  0.00    +0.000 A 
ATOM     25  S   UNL     1      51.446   8.690  15.322  0.00  0.00    +0.000 S 
ATOM     26  C   UNL     1      52.146   7.374  16.142  0.00  0.00    +0.000 A 
ATOM     27  N   UNL     1      53.476   7.354  16.426  0.00  0.00    +0.000 NA
ATOM     28  C   UNL     1      53.880   6.281  17.019  0.00  0.00    +0.000 A 
ATOM     29  N   UNL     1      53.073   5.228  17.361  0.00  0.00    +0.000 N 
ATOM     30  C   UNL     1      51.719   5.216  17.123  0.00  0.00    +0.000 A 
ATOM     31  O   UNL     1      51.016   4.277  17.481  0.00  0.00    +0.000 OA
ATOM     32  C   UNL     1      51.215   6.395  16.443  0.00  0.00    +0.000 A 
ATOM     33  H   UNL     1      53.448   4.419  17.833  0.00  0.00    +0.000 HD
ENDBRANCH  20  23
ENDBRANCH  18  19
ENDBRANCH   4  18
TORSDOF 6
ENDMDL
MODEL 7
REMARK VINA RESULT:    -6.824      3.330      5.413
REMARK INTER + INTRA:         -10.363
REMARK INTER:                  -9.576
REMARK INTRA:                  -0.787
REMARK UNBOUND:                -1.145
REMARK  Name = 
REMARK  6 active torsions:
REMARK  status: ('A' for Active; 'I' for Inactive)
REMARK    1  A    between atoms: C_2  and  C_25
REMARK    2  A    between atoms: N_3  and  C_4
REMARK    3  A    between atoms: C_4  and  C_5
REMARK    4  A    between atoms: C_8  and  C_9
REMARK    5  A    between atoms: C_9  and  N_10
REMARK    6  A    between atoms: C_11  and  C_13
REMARK                            x       y       z     vdW  Elec       q    Type
REMARK                         _______ _______ _______ _____ _____    ______ ____
ROOT
ATOM      1  C   UNL     1      47.537   5.853  14.359  0.00  0.00    +0.000 A 
ATOM      2  C   UNL     1      46.940   4.585  14.413  0.00  0.00    +0.000 A 
ATOM      3  C   UNL     1      47.137   3.750  15.519  0.00  0.00    +0.000 A 
ATOM      4  C   UNL     1      47.915   4.172  16.605  0.00  0.00    +0.000 A 
ATOM      5  C   UNL     1      48.511   5.439  16.550  0.00  0.00    +0.000 A 
ATOM      6  C   UNL     1      48.314   6.276  15.445  0.00  0.00    +0.000 A 
ENDROOT
BRANCH   1   7
ATOM      7  C   UNL     1      47.349   6.740  13.156  0.00  0.00    +0.000 C 
BRANCH   7  10
ATOM      8  O   UNL     1      44.707   6.642  12.309  0.00  0.00    +0.000 OA
ATOM      9  C   UNL     1      45.550   6.032  11.655  0.00  0.00    +0.000 C 
ATOM     10  N   UNL     1      46.879   6.006  12.007  0.00  0.00    +0.000 N 
ATOM     11  H   UNL     1      47.559   5.614  11.371  0.00  0.00    +0.000 HD
BRANCH   9  12
ATOM     12  C   UNL     1      45.211   5.306  10.459  0.00  0.00    +0.000 A 
ATOM     13  C   UNL     1      44.209   4.408  10.146  0.00  0.00    +0.000 A 
ATOM     14  C   UNL     1      44.430   4.070   8.796  0.00  0.00    +0.000 A 
ATOM     15  N   UNL     1      45.486   4.696   8.281  0.00  0.00    +0.000 NA
ATOM     16  N   UNL     1      45.935   5.447   9.302  0.00  0.00    +0.000 N 
ATOM     17  H   UNL     1      46.748   6.039   9.159  0.00  0.00    +0.000 HD
ENDBRANCH   9  12
ENDBRANCH   7  10
ENDBRANCH   1   7
BRANCH   4  18
ATOM     18  C   UNL     1      48.144   3.273  17.793  0.00  0.00    +0.000 C 
BRANCH  18  19
ATOM     19  N   UNL     1      49.549   3.051  18.026  0.00  0.00    +0.000 N 
ATOM     20  C   UNL     1      50.283   2.225  17.212  0.00  0.00    +0.000 C 
ATOM     21  O   UNL     1      49.792   1.682  16.225  0.00  0.00    +0.000 OA
ATOM     22  H   UNL     1      49.908   3.293  18.944  0.00  0.00    +0.000 HD
BRANCH  20  23
ATOM     23  C   UNL     1      51.706   2.068  17.542  0.00  0.00    +0.000 A 
ATOM     24  C   UNL     1      52.235   0.796  17.719  0.00  0.00    +0.000 A 
ATOM     25  S   UNL     1      53.910   0.791  18.045  0.00  0.00    +0.000 S 
ATOM     26  C   UNL     1      53.976   2.490  18.015  0.00  0.00    +0.000 A 
ATOM     27  N   UNL     1      55.143   3.149  18.251  0.00  0.00    +0.000 NA
ATOM     28  C   UNL     1      55.043   4.436  18.232  0.00  0.00    +0.000 A 
ATOM     29  N   UNL     1      53.883   5.125  17.992  0.00  0.00    +0.000 N 
ATOM     30  C   UNL     1      52.688   4.503  17.718  0.00  0.00    +0.000 A 
ATOM     31  O   UNL     1      51.677   5.149  17.464  0.00  0.00    +0.000 OA
ATOM     32  C   UNL     1      52.742   3.053  17.741  0.00  0.00    +0.000 A 
ATOM     33  H   UNL     1      53.873   6.133  17.981  0.00  0.00    +0.000 HD
ENDBRANCH  20  23
ENDBRANCH  18  19
ENDBRANCH   4  18
TORSDOF 6
ENDMDL
MODEL 8
REMARK VINA RESULT:    -6.759      2.713      4.238
REMARK INTER + INTRA:         -10.275
REMARK INTER:                  -9.353
REMARK INTRA:                  -0.922
REMARK UNBOUND:                -1.145
REMARK  Name = 
REMARK  6 active torsions:
REMARK  status: ('A' for Active; 'I' for Inactive)
REMARK    1  A    between atoms: C_2  and  C_25
REMARK    2  A    between atoms: N_3  and  C_4
REMARK    3  A    between atoms: C_4  and  C_5
REMARK    4  A    between atoms: C_8  and  C_9
REMARK    5  A    between atoms: C_9  and  N_10
REMARK    6  A    between atoms: C_11  and  C_13
REMARK                            x       y       z     vdW  Elec       q    Type
REMARK                         _______ _______ _______ _____ _____    ______ ____
ROOT
ATOM      1  C   UNL     1      45.134   4.424  11.052  0.00  0.00    +0.000 A 
ATOM      2  C   UNL     1      45.464   5.775  11.234  0.00  0.00    +0.000 A 
ATOM      3  C   UNL     1      46.121   6.200  12.394  0.00  0.00    +0.000 A 
ATOM      4  C   UNL     1      46.484   5.281  13.388  0.00  0.00    +0.000 A 
ATOM      5  C   UNL     1      46.154   3.931  13.205  0.00  0.00    +0.000 A 
ATOM      6  C   UNL     1      45.498   3.505  12.045  0.00  0.00    +0.000 A 
ENDROOT
BRANCH   1   7
ATOM      7  C   UNL     1      44.401   3.971   9.816  0.00  0.00    +0.000 C 
BRANCH   7  10
ATOM      8  O   UNL     1      45.410   1.499   9.059  0.00  0.00    +0.000 OA
ATOM      9  C   UNL     1      45.726   2.483   8.396  0.00  0.00    +0.000 C 
ATOM     10  N   UNL     1      45.291   3.751   8.704  0.00  0.00    +0.000 N 
ATOM     11  H   UNL     1      45.457   4.509   8.058  0.00  0.00    +0.000 HD
BRANCH   9  12
ATOM     12  C   UNL     1      46.567   2.382   7.232  0.00  0.00    +0.000 A 
ATOM     13  C   UNL     1      46.602   3.053   6.025  0.00  0.00    +0.000 A 
ATOM     14  C   UNL     1      47.678   2.481   5.319  0.00  0.00    +0.000 A 
ATOM     15  N   UNL     1      48.287   1.520   6.011  0.00  0.00    +0.000 NA
ATOM     16  N   UNL     1      47.605   1.486   7.169  0.00  0.00    +0.000 N 
ATOM     17  H   UNL     1      47.885   0.825   7.888  0.00  0.00    +0.000 HD
ENDBRANCH   9  12
ENDBRANCH   7  10
ENDBRANCH   1   7
BRANCH   4  18
ATOM     18  C   UNL     1      47.179   5.732  14.647  0.00  0.00    +0.000 C 
BRANCH  18  19
ATOM     19  N   UNL     1      48.517   6.195  14.375  0.00  0.00    +0.000 N 
ATOM     20  C   UNL     1      48.927   7.448  14.756  0.00  0.00    +0.000 C 
ATOM     21  O   UNL     1      48.196   8.207  15.387  0.00  0.00    +0.000 OA
ATOM     22  H   UNL     1      49.044   5.691  13.669  0.00  0.00    +0.000 HD
BRANCH  20  23
ATOM     23  C   UNL     1      50.310   7.818  14.426  0.00  0.00    +0.000 A 
ATOM     24  C   UNL     1      51.293   7.754  15.405  0.00  0.00    +0.000 A 
ATOM     25  S   UNL     1      52.849   8.166  14.841  0.00  0.00    +0.000 S 
ATOM     26  C   UNL     1      52.256   8.496  13.281  0.00  0.00    +0.000 A 
ATOM     27  N   UNL     1      53.086   8.929  12.294  0.00  0.00    +0.000 NA
ATOM     28  C   UNL     1      52.498   9.175  11.172  0.00  0.00    +0.000 A 
ATOM     29  N   UNL     1      51.155   9.019  10.943  0.00  0.00    +0.000 N 
ATOM     30  C   UNL     1      50.284   8.554  11.900  0.00  0.00    +0.000 A 
ATOM     31  O   UNL     1      49.095   8.384  11.651  0.00  0.00    +0.000 OA
ATOM     32  C   UNL     1      50.893   8.277  13.187  0.00  0.00    +0.000 A 
ATOM     33  H   UNL     1      50.758   9.220  10.038  0.00  0.00    +0.000 HD
ENDBRANCH  20  23
ENDBRANCH  18  19
ENDBRANCH   4  18
TORSDOF 6
ENDMDL
MODEL 9
REMARK VINA RESULT:    -6.616      4.599      7.239
REMARK INTER + INTRA:         -10.082
REMARK INTER:                  -9.169
REMARK INTRA:                  -0.913
REMARK UNBOUND:                -1.145
REMARK  Name = 
REMARK  6 active torsions:
REMARK  status: ('A' for Active; 'I' for Inactive)
REMARK    1  A    between atoms: C_2  and  C_25
REMARK    2  A    between atoms: N_3  and  C_4
REMARK    3  A    between atoms: C_4  and  C_5
REMARK    4  A    between atoms: C_8  and  C_9
REMARK    5  A    between atoms: C_9  and  N_10
REMARK    6  A    between atoms: C_11  and  C_13
REMARK                            x       y       z     vdW  Elec       q    Type
REMARK                         _______ _______ _______ _____ _____    ______ ____
ROOT
ATOM      1  C   UNL     1      50.319   8.996  11.405  0.00  0.00    +0.000 A 
ATOM      2  C   UNL     1      49.981   7.691  11.793  0.00  0.00    +0.000 A 
ATOM      3  C   UNL     1      48.719   7.408  12.328  0.00  0.00    +0.000 A 
ATOM      4  C   UNL     1      47.759   8.418  12.466  0.00  0.00    +0.000 A 
ATOM      5  C   UNL     1      48.096   9.722  12.077  0.00  0.00    +0.000 A 
ATOM      6  C   UNL     1      49.358  10.006  11.542  0.00  0.00    +0.000 A 
ENDROOT
BRANCH   1   7
ATOM      7  C   UNL     1      51.687   9.305  10.857  0.00  0.00    +0.000 C 
BRANCH   7  10
ATOM      8  O   UNL     1      53.606   7.302  10.976  0.00  0.00    +0.000 OA
ATOM      9  C   UNL     1      52.997   7.462   9.921  0.00  0.00    +0.000 C 
ATOM     10  N   UNL     1      52.043   8.439   9.760  0.00  0.00    +0.000 N 
ATOM     11  H   UNL     1      51.469   8.449   8.929  0.00  0.00    +0.000 HD
BRANCH   9  12
ATOM     12  C   UNL     1      53.227   6.626   8.772  0.00  0.00    +0.000 A 
ATOM     13  C   UNL     1      53.903   5.436   8.585  0.00  0.00    +0.000 A 
ATOM     14  C   UNL     1      53.745   5.135   7.217  0.00  0.00    +0.000 A 
ATOM     15  N   UNL     1      53.028   6.055   6.575  0.00  0.00    +0.000 NA
ATOM     16  N   UNL     1      52.717   6.941   7.538  0.00  0.00    +0.000 N 
ATOM     17  H   UNL     1      52.154   7.752   7.299  0.00  0.00    +0.000 HD
ENDBRANCH   9  12
ENDBRANCH   7  10
ENDBRANCH   1   7
BRANCH   4  18
ATOM     18  C   UNL     1      46.402   8.125  13.054  0.00  0.00    +0.000 C 
BRANCH  18  19
ATOM     19  N   UNL     1      45.948   6.803  12.703  0.00  0.00    +0.000 N 
ATOM     20  C   UNL     1      44.954   6.615  11.775  0.00  0.00    +0.000 C 
ATOM     21  O   UNL     1      44.446   7.554  11.168  0.00  0.00    +0.000 OA
ATOM     22  H   UNL     1      46.180   6.050  13.344  0.00  0.00    +0.000 HD
BRANCH  20  23
ATOM     23  C   UNL     1      44.567   5.226  11.496  0.00  0.00    +0.000 A 
ATOM     24  C   UNL     1      43.823   4.517  12.431  0.00  0.00    +0.000 A 
ATOM     25  S   UNL     1      43.414   2.939  11.927  0.00  0.00    +0.000 S 
ATOM     26  C   UNL     1      44.263   3.128  10.465  0.00  0.00    +0.000 A 
ATOM     27  N   UNL     1      44.333   2.113   9.562  0.00  0.00    +0.000 NA
ATOM     28  C   UNL     1      45.037   2.380   8.513  0.00  0.00    +0.000 A 
ATOM     29  N   UNL     1      45.671   3.573   8.282  0.00  0.00    +0.000 N 
ATOM     30  C   UNL     1      45.602   4.636   9.150  0.00  0.00    +0.000 A 
ATOM     31  O   UNL     1      46.144   5.706   8.893  0.00  0.00    +0.000 OA
ATOM     32  C   UNL     1      44.833   4.383  10.354  0.00  0.00    +0.000 A 
ATOM     33  H   UNL     1      46.200   3.722   7.435  0.00  0.00    +0.000 HD
ENDBRANCH  20  23
ENDBRANCH  18  19
ENDBRANCH   4  18
TORSDOF 6
ENDMDL
