MODEL 1
REMARK VINA RESULT:    -8.792      0.000      0.000
REMARK INTER + INTRA:         -11.878
REMARK INTER:                 -11.362
REMARK INTRA:                  -0.516
REMARK UNBOUND:                -0.516
REMARK  Name = 
REMARK  6 active torsions:
REMARK  status: ('A' for Active; 'I' for Inactive)
REMARK    1  A    between atoms: C_1  and  C_2
REMARK    2  A    between atoms: C_6  and  C_7
REMARK    3  A    between atoms: C_7  and  C_8
REMARK    4  A    between atoms: C_11  and  C_12
REMARK    5  A    between atoms: C_12  and  N_13
REMARK    6  A    between atoms: C_14  and  C_16
REMARK                            x       y       z     vdW  Elec       q    Type
REMARK                         _______ _______ _______ _____ _____    ______ ____
ROOT
ATOM      1  C   UNL     1      46.655   7.741  13.196  0.00  0.00    +0.000 C 
ENDROOT
BRANCH   1   5
ATOM      2  C   UNL     1      44.907   4.801  10.641  0.00  0.00    +0.000 A 
ATOM      3  C   UNL     1      45.886   5.656  10.131  0.00  0.00    +0.000 A 
ATOM      4  C   UNL     1      46.463   6.619  10.955  0.00  0.00    +0.000 A 
ATOM      5  C   UNL     1      46.032   6.722  12.274  0.00  0.00    +0.000 A 
ATOM      6  N   UNL     1      45.078   5.909  12.793  0.00  0.00    +0.000 NA
ATOM      7  C   UNL     1      44.549   4.970  11.974  0.00  0.00    +0.000 A 
BRANCH   2   8
ATOM      8  C   UNL     1      44.299   3.715   9.797  0.00  0.00    +0.000 C 
BRANCH   8  14
ATOM      9  C   UNL     1      46.782  -0.122   7.672  0.00  0.00    +0.000 C 
ATOM     10  C   UNL     1      46.431   1.337   7.693  0.00  0.00    +0.000 A 
ATOM     11  C   UNL     1      46.956   2.217   6.742  0.00  0.00    +0.000 A 
ATOM     12  C   UNL     1      46.635   3.573   6.785  0.00  0.00    +0.000 A 
ATOM     13  C   UNL     1      45.781   4.060   7.776  0.00  0.00    +0.000 A 
ATOM     14  C   UNL     1      45.227   3.192   8.726  0.00  0.00    +0.000 A 
ATOM     15  C   UNL     1      45.568   1.832   8.681  0.00  0.00    +0.000 A 
ENDBRANCH   8  14
ENDBRANCH   2   8
ENDBRANCH   1   5
BRANCH   1  16
ATOM     16  N   UNL     1      47.219   7.136  14.382  0.00  0.00    +0.000 N 
ATOM     17  C   UNL     1      48.488   6.631  14.430  0.00  0.00    +0.000 C 
ATOM     18  O   UNL     1      49.239   6.654  13.458  0.00  0.00    +0.000 OA
ATOM     19  H   UNL     1      46.545   6.877  15.097  0.00  0.00    +0.000 HD
BRANCH  17  20
ATOM     20  C   UNL     1      48.941   6.129  15.736  0.00  0.00    +0.000 A 
ATOM     21  C   UNL     1      49.955   6.792  16.414  0.00  0.00    +0.000 A 
ATOM     22  S   UNL     1      50.306   6.128  17.944  0.00  0.00    +0.000 S 
ATOM     23  C   UNL     1      49.152   4.894  17.735  0.00  0.00    +0.000 A 
ATOM     24  N   UNL     1      48.952   3.949  18.695  0.00  0.00    +0.000 NA
ATOM     25  C   UNL     1      48.073   3.057  18.389  0.00  0.00    +0.000 A 
ATOM     26  N   UNL     1      47.373   3.021  17.213  0.00  0.00    +0.000 N 
ATOM     27  C   UNL     1      47.497   3.985  16.241  0.00  0.00    +0.000 A 
ATOM     28  O   UNL     1      46.786   3.975  15.244  0.00  0.00    +0.000 OA
ATOM     29  C   UNL     1      48.496   5.001  16.522  0.00  0.00    +0.000 A 
ATOM     30  H   UNL     1      46.685   2.304  17.038  0.00  0.00    +0.000 HD
ENDBRANCH  17  20
ENDBRANCH   1  16
TORSDOF 5
ENDMDL
MODEL 2
REMARK VINA RESULT:    -8.700      2.150      3.683
REMARK INTER + INTRA:         -11.759
REMARK INTER:                 -10.623
REMARK INTRA:                  -1.136
REMARK UNBOUND:                -0.516
REMARK  Name = 
REMARK  6 active torsions:
REMARK  status: ('A' for Active; 'I' for Inactive)
REMARK    1  A    between atoms: C_1  and  C_2
REMARK    2  A    between atoms: C_6  and  C_7
REMARK    3  A    between atoms: C_7  and  C_8
REMARK    4  A    between atoms: C_11  and  C_12
REMARK    5  A    between atoms: C_12  and  N_13
REMARK    6  A    between atoms: C_14  and  C_16
REMARK                            x       y       z     vdW  Elec       q    Type
REMARK                         _______ _______ _______ _____ _____    ______ ____
ROOT
ATOM      1  C   UNL     1      46.764   4.711  14.739  0.00  0.00    +0.000 C 
ENDROOT
BRANCH   1   5
ATOM      2  C   UNL     1      44.993   4.189  10.889  0.00  0.00    +0.000 A 
ATOM      3  C   UNL     1      45.607   5.404  11.201  0.00  0.00    +0.000 A 
ATOM      4  C   UNL     1      46.187   5.586  12.453  0.00  0.00    +0.000 A 
ATOM      5  C   UNL     1      46.124   4.552  13.381  0.00  0.00    +0.000 A 
ATOM      6  N   UNL     1      45.527   3.363  13.107  0.00  0.00    +0.000 NA
ATOM      7  C   UNL     1      44.988   3.209  11.875  0.00  0.00    +0.000 A 
BRANCH   2   8
ATOM      8  C   UNL     1      44.401   3.937   9.530  0.00  0.00    +0.000 C 
BRANCH   8  14
ATOM      9  C   UNL     1      46.751  -0.107   7.653  0.00  0.00    +0.000 C 
ATOM     10  C   UNL     1      46.518   1.375   7.637  0.00  0.00    +0.000 A 
ATOM     11  C   UNL     1      47.195   2.201   6.735  0.00  0.00    +0.000 A 
ATOM     12  C   UNL     1      46.981   3.579   6.744  0.00  0.00    +0.000 A 
ATOM     13  C   UNL     1      46.083   4.142   7.651  0.00  0.00    +0.000 A 
ATOM     14  C   UNL     1      45.377   3.332   8.549  0.00  0.00    +0.000 A 
ATOM     15  C   UNL     1      45.612   1.948   8.540  0.00  0.00    +0.000 A 
ENDBRANCH   8  14
ENDBRANCH   2   8
ENDBRANCH   1   5
BRANCH   1  16
ATOM     16  N   UNL     1      47.499   5.950  14.857  0.00  0.00    +0.000 N 
ATOM     17  C   UNL     1      48.581   6.100  15.679  0.00  0.00    +0.000 C 
ATOM     18  O   UNL     1      49.002   5.184  16.380  0.00  0.00    +0.000 OA
ATOM     19  H   UNL     1      47.022   6.771  14.495  0.00  0.00    +0.000 HD
BRANCH  17  20
ATOM     20  C   UNL     1      49.271   7.398  15.618  0.00  0.00    +0.000 A 
ATOM     21  C   UNL     1      49.445   8.140  16.777  0.00  0.00    +0.000 A 
ATOM     22  S   UNL     1      50.330   9.579  16.545  0.00  0.00    +0.000 S 
ATOM     23  C   UNL     1      50.466   9.291  14.873  0.00  0.00    +0.000 A 
ATOM     24  N   UNL     1      51.111  10.171  14.059  0.00  0.00    +0.000 NA
ATOM     25  C   UNL     1      51.107   9.843  12.811  0.00  0.00    +0.000 A 
ATOM     26  N   UNL     1      50.520   8.717  12.301  0.00  0.00    +0.000 N 
ATOM     27  C   UNL     1      49.909   7.771  13.090  0.00  0.00    +0.000 A 
ATOM     28  O   UNL     1      49.478   6.729  12.612  0.00  0.00    +0.000 OA
ATOM     29  C   UNL     1      49.860   8.103  14.503  0.00  0.00    +0.000 A 
ATOM     30  H   UNL     1      50.565   8.507  11.315  0.00  0.00    +0.000 HD
ENDBRANCH  17  20
ENDBRANCH   1  16
TORSDOF 5
ENDMDL
MODEL 3
REMARK VINA RESULT:    -8.183      1.081      1.721
REMARK INTER + INTRA:         -11.091
REMARK INTER:                 -10.126
REMARK INTRA:                  -0.966
REMARK UNBOUND:                -0.516
REMARK  Name = 
REMARK  6 active torsions:
REMARK  status: ('A' for Active; 'I' for Inactive)
REMARK    1  A    between atoms: C_1  and  C_2
REMARK    2  A    between atoms: C_6  and  C_7
REMARK    3  A    between atoms: C_7  and  C_8
REMARK    4  A    between atoms: C_11  and  C_12
REMARK    5  A    between atoms: C_12  and  N_13
REMARK    6  A    between atoms: C_14  and  C_16
REMARK                            x       y       z     vdW  Elec       q    Type
REMARK                         _______ _______ _______ _____ _____    ______ ____
ROOT
ATOM      1  C   UNL     1      47.402   8.220  13.561  0.00  0.00    +0.000 C 
ENDROOT
BRANCH   1   5
ATOM      2  C   UNL     1      44.620   5.830  11.375  0.00  0.00    +0.000 A 
ATOM      3  C   UNL     1      44.473   7.219  11.381  0.00  0.00    +0.000 A 
ATOM      4  C   UNL     1      45.374   8.008  12.090  0.00  0.00    +0.000 A 
ATOM      5  C   UNL     1      46.397   7.389  12.801  0.00  0.00    +0.000 A 
ATOM      6  N   UNL     1      46.559   6.041  12.819  0.00  0.00    +0.000 NA
ATOM      7  C   UNL     1      45.679   5.301  12.104  0.00  0.00    +0.000 A 
BRANCH   2   8
ATOM      8  C   UNL     1      43.699   4.948  10.579  0.00  0.00    +0.000 C 
BRANCH   8  14
ATOM      9  C   UNL     1      46.916   3.902   6.843  0.00  0.00    +0.000 C 
ATOM     10  C   UNL     1      45.982   3.424   7.915  0.00  0.00    +0.000 A 
ATOM     11  C   UNL     1      45.767   2.059   8.127  0.00  0.00    +0.000 A 
ATOM     12  C   UNL     1      44.881   1.630   9.114  0.00  0.00    +0.000 A 
ATOM     13  C   UNL     1      44.207   2.563   9.904  0.00  0.00    +0.000 A 
ATOM     14  C   UNL     1      44.423   3.935   9.723  0.00  0.00    +0.000 A 
ATOM     15  C   UNL     1      45.306   4.355   8.717  0.00  0.00    +0.000 A 
ENDBRANCH   8  14
ENDBRANCH   2   8
ENDBRANCH   1   5
BRANCH   1  16
ATOM     16  N   UNL     1      47.822   7.585  14.790  0.00  0.00    +0.000 N 
ATOM     17  C   UNL     1      49.077   7.076  14.975  0.00  0.00    +0.000 C 
ATOM     18  O   UNL     1      49.938   7.122  14.100  0.00  0.00    +0.000 OA
ATOM     19  H   UNL     1      47.069   7.310  15.414  0.00  0.00    +0.000 HD
BRANCH  17  20
ATOM     20  C   UNL     1      49.373   6.542  16.314  0.00  0.00    +0.000 A 
ATOM     21  C   UNL     1      50.207   7.250  17.168  0.00  0.00    +0.000 A 
ATOM     22  S   UNL     1      50.384   6.533  18.705  0.00  0.00    +0.000 S 
ATOM     23  C   UNL     1      49.394   5.219  18.267  0.00  0.00    +0.000 A 
ATOM     24  N   UNL     1      49.141   4.208  19.143  0.00  0.00    +0.000 NA
ATOM     25  C   UNL     1      48.404   3.262  18.666  0.00  0.00    +0.000 A 
ATOM     26  N   UNL     1      47.895   3.234  17.395  0.00  0.00    +0.000 N 
ATOM     27  C   UNL     1      48.075   4.258  16.496  0.00  0.00    +0.000 A 
ATOM     28  O   UNL     1      47.526   4.244  15.401  0.00  0.00    +0.000 OA
ATOM     29  C   UNL     1      48.921   5.338  16.972  0.00  0.00    +0.000 A 
ATOM     30  H   UNL     1      47.312   2.471  17.086  0.00  0.00    +0.000 HD
ENDBRANCH  17  20
ENDBRANCH   1  16
TORSDOF 5
ENDMDL
MODEL 4
REMARK VINA RESULT:    -8.102      1.642      2.138
REMARK INTER + INTRA:         -10.987
REMARK INTER:                 -10.336
REMARK INTRA:                  -0.650
REMARK UNBOUND:                -0.516
REMARK  Name = 
REMARK  6 active torsions:
REMARK  status: ('A' for Active; 'I' for Inactive)
REMARK    1  A    between atoms: C_1  and  C_2
REMARK    2  A    between atoms: C_6  and  C_7
REMARK    3  A    between atoms: C_7  and  C_8
REMARK    4  A    between atoms: C_11  and  C_12
REMARK    5  A    between atoms: C_12  and  N_13
REMARK    6  A    between atoms: C_14  and  C_16
REMARK                            x       y       z     vdW  Elec       q    Type
REMARK                         _______ _______ _______ _____ _____    ______ ____
ROOT
ATOM      1  C   UNL     1      46.976   6.882  13.580  0.00  0.00    +0.000 C 
ENDROOT
BRANCH   1   5
ATOM      2  C   UNL     1      45.000   4.546  10.602  0.00  0.00    +0.000 A 
ATOM      3  C   UNL     1      45.490   5.810  10.266  0.00  0.00    +0.000 A 
ATOM      4  C   UNL     1      46.136   6.581  11.229  0.00  0.00    +0.000 A 
ATOM      5  C   UNL     1      46.261   6.079  12.521  0.00  0.00    +0.000 A 
ATOM      6  N   UNL     1      45.788   4.857  12.876  0.00  0.00    +0.000 NA
ATOM      7  C   UNL     1      45.182   4.123  11.914  0.00  0.00    +0.000 A 
BRANCH   2   8
ATOM      8  C   UNL     1      44.343   3.664   9.577  0.00  0.00    +0.000 C 
BRANCH   8  14
ATOM      9  C   UNL     1      46.746  -0.336   7.671  0.00  0.00    +0.000 C 
ATOM     10  C   UNL     1      46.477   1.140   7.651  0.00  0.00    +0.000 A 
ATOM     11  C   UNL     1      47.116   1.975   6.730  0.00  0.00    +0.000 A 
ATOM     12  C   UNL     1      46.870   3.348   6.737  0.00  0.00    +0.000 A 
ATOM     13  C   UNL     1      45.979   3.896   7.660  0.00  0.00    +0.000 A 
ATOM     14  C   UNL     1      45.312   3.075   8.578  0.00  0.00    +0.000 A 
ATOM     15  C   UNL     1      45.578   1.697   8.571  0.00  0.00    +0.000 A 
ENDBRANCH   8  14
ENDBRANCH   2   8
ENDBRANCH   1   5
BRANCH   1  16
ATOM     16  N   UNL     1      47.190   6.125  14.792  0.00  0.00    +0.000 N 
ATOM     17  C   UNL     1      48.425   5.942  15.350  0.00  0.00    +0.000 C 
ATOM     18  O   UNL     1      49.444   6.411  14.851  0.00  0.00    +0.000 OA
ATOM     19  H   UNL     1      46.418   5.526  15.070  0.00  0.00    +0.000 HD
BRANCH  17  20
ATOM     20  C   UNL     1      48.461   5.221  16.632  0.00  0.00    +0.000 A 
ATOM     21  C   UNL     1      48.300   3.843  16.651  0.00  0.00    +0.000 A 
ATOM     22  S   UNL     1      48.445   3.157  18.205  0.00  0.00    +0.000 S 
ATOM     23  C   UNL     1      48.674   4.685  18.919  0.00  0.00    +0.000 A 
ATOM     24  N   UNL     1      48.848   4.813  20.264  0.00  0.00    +0.000 NA
ATOM     25  C   UNL     1      48.976   6.030  20.670  0.00  0.00    +0.000 A 
ATOM     26  N   UNL     1      48.948   7.132  19.858  0.00  0.00    +0.000 N 
ATOM     27  C   UNL     1      48.834   7.049  18.491  0.00  0.00    +0.000 A 
ATOM     28  O   UNL     1      48.909   8.048  17.787  0.00  0.00    +0.000 OA
ATOM     29  C   UNL     1      48.659   5.701  17.980  0.00  0.00    +0.000 A 
ATOM     30  H   UNL     1      49.069   8.060  20.236  0.00  0.00    +0.000 HD
ENDBRANCH  17  20
ENDBRANCH   1  16
TORSDOF 5
ENDMDL
MODEL 5
REMARK VINA RESULT:    -7.649      2.327      3.137
REMARK INTER + INTRA:         -10.401
REMARK INTER:                  -9.425
REMARK INTRA:                  -0.976
REMARK UNBOUND:                -0.516
REMARK  Name = 
REMARK  6 active torsions:
REMARK  status: ('A' for Active; 'I' for Inactive)
REMARK    1  A    between atoms: C_1  and  C_2
REMARK    2  A    between atoms: C_6  and  C_7
REMARK    3  A    between atoms: C_7  and  C_8
REMARK    4  A    between atoms: C_11  and  C_12
REMARK    5  A    between atoms: C_12  and  N_13
REMARK    6  A    between atoms: C_14  and  C_16
REMARK                            x       y       z     vdW  Elec       q    Type
REMARK                         _______ _______ _______ _____ _____    ______ ____
ROOT
ATOM      1  C   UNL     1      47.892   7.846  13.735  0.00  0.00    +0.000 C 
ENDROOT
BRANCH   1   5
ATOM      2  C   UNL     1      44.855   5.845  11.497  0.00  0.00    +0.000 A 
ATOM      3  C   UNL     1      44.959   7.236  11.418  0.00  0.00    +0.000 A 
ATOM      4  C   UNL     1      45.945   7.899  12.144  0.00  0.00    +0.000 A 
ATOM      5  C   UNL     1      46.799   7.157  12.954  0.00  0.00    +0.000 A 
ATOM      6  N   UNL     1      46.716   5.806  13.054  0.00  0.00    +0.000 NA
ATOM      7  C   UNL     1      45.759   5.187  12.322  0.00  0.00    +0.000 A 
BRANCH   2   8
ATOM      8  C   UNL     1      43.837   5.090  10.688  0.00  0.00    +0.000 C 
BRANCH   8  14
ATOM      9  C   UNL     1      46.692   3.769   6.750  0.00  0.00    +0.000 C 
ATOM     10  C   UNL     1      45.822   3.371   7.906  0.00  0.00    +0.000 A 
ATOM     11  C   UNL     1      45.556   2.027   8.178  0.00  0.00    +0.000 A 
ATOM     12  C   UNL     1      44.730   1.673   9.245  0.00  0.00    +0.000 A 
ATOM     13  C   UNL     1      44.169   2.663  10.054  0.00  0.00    +0.000 A 
ATOM     14  C   UNL     1      44.439   4.016   9.812  0.00  0.00    +0.000 A 
ATOM     15  C   UNL     1      45.260   4.359   8.727  0.00  0.00    +0.000 A 
ENDBRANCH   8  14
ENDBRANCH   2   8
ENDBRANCH   1   5
BRANCH   1  16
ATOM     16  N   UNL     1      47.878   7.484  15.134  0.00  0.00    +0.000 N 
ATOM     17  C   UNL     1      48.904   6.817  15.742  0.00  0.00    +0.000 C 
ATOM     18  O   UNL     1      49.914   6.474  15.132  0.00  0.00    +0.000 OA
ATOM     19  H   UNL     1      46.967   7.525  15.582  0.00  0.00    +0.000 HD
BRANCH  17  20
ATOM     20  C   UNL     1      48.775   6.602  17.192  0.00  0.00    +0.000 A 
ATOM     21  C   UNL     1      49.100   5.368  17.736  0.00  0.00    +0.000 A 
ATOM     22  S   UNL     1      48.967   5.312  19.436  0.00  0.00    +0.000 S 
ATOM     23  C   UNL     1      48.417   6.921  19.501  0.00  0.00    +0.000 A 
ATOM     24  N   UNL     1      48.097   7.506  20.689  0.00  0.00    +0.000 NA
ATOM     25  C   UNL     1      47.662   8.716  20.586  0.00  0.00    +0.000 A 
ATOM     26  N   UNL     1      47.518   9.397  19.407  0.00  0.00    +0.000 N 
ATOM     27  C   UNL     1      47.883   8.870  18.191  0.00  0.00    +0.000 A 
ATOM     28  O   UNL     1      47.830   9.541  17.169  0.00  0.00    +0.000 OA
ATOM     29  C   UNL     1      48.354   7.497  18.245  0.00  0.00    +0.000 A 
ATOM     30  H   UNL     1      47.186  10.349  19.394  0.00  0.00    +0.000 HD
ENDBRANCH  17  20
ENDBRANCH   1  16
TORSDOF 5
ENDMDL
MODEL 6
REMARK VINA RESULT:    -7.616      2.555      3.941
REMARK INTER + INTRA:         -10.359
REMARK INTER:                  -9.880
REMARK INTRA:                  -0.479
REMARK UNBOUND:                -0.516
REMARK  Name = 
REMARK  6 active torsions:
REMARK  status: ('A' for Active; 'I' for Inactive)
REMARK    1  A    between atoms: C_1  and  C_2
REMARK    2  A    between atoms: C_6  and  C_7
REMARK    3  A    between atoms: C_7  and  C_8
REMARK    4  A    between atoms: C_11  and  C_12
REMARK    5  A    between atoms: C_12  and  N_13
REMARK    6  A    between atoms: C_14  and  C_16
REMARK                            x       y       z     vdW  Elec       q    Type
REMARK                         _______ _______ _______ _____ _____    ______ ____
ROOT
ATOM      1  C   UNL     1      47.457   4.304  15.803  0.00  0.00    +0.000 C 
ENDROOT
BRANCH   1   5
ATOM      2  C   UNL     1      45.823   5.406  12.015  0.00  0.00    +0.000 A 
ATOM      3  C   UNL     1      46.922   6.107  12.517  0.00  0.00    +0.000 A 
ATOM      4  C   UNL     1      47.463   5.757  13.751  0.00  0.00    +0.000 A 
ATOM      5  C   UNL     1      46.879   4.721  14.473  0.00  0.00    +0.000 A 
ATOM      6  N   UNL     1      45.806   4.028  14.013  0.00  0.00    +0.000 NA
ATOM      7  C   UNL     1      45.313   4.378  12.801  0.00  0.00    +0.000 A 
BRANCH   2   8
ATOM      8  C   UNL     1      45.243   5.721  10.664  0.00  0.00    +0.000 C 
BRANCH   8  14
ATOM      9  C   UNL     1      46.717   3.519   6.377  0.00  0.00    +0.000 C 
ATOM     10  C   UNL     1      45.930   3.464   7.653  0.00  0.00    +0.000 A 
ATOM     11  C   UNL     1      45.169   2.339   7.982  0.00  0.00    +0.000 A 
ATOM     12  C   UNL     1      44.427   2.311   9.162  0.00  0.00    +0.000 A 
ATOM     13  C   UNL     1      44.445   3.406  10.027  0.00  0.00    +0.000 A 
ATOM     14  C   UNL     1      45.217   4.536   9.728  0.00  0.00    +0.000 A 
ATOM     15  C   UNL     1      45.949   4.558   8.530  0.00  0.00    +0.000 A 
ENDBRANCH   8  14
ENDBRANCH   2   8
ENDBRANCH   1   5
BRANCH   1  16
ATOM     16  N   UNL     1      47.534   5.404  16.737  0.00  0.00    +0.000 N 
ATOM     17  C   UNL     1      48.712   6.002  17.090  0.00  0.00    +0.000 C 
ATOM     18  O   UNL     1      49.793   5.638  16.634  0.00  0.00    +0.000 OA
ATOM     19  H   UNL     1      46.706   5.545  17.309  0.00  0.00    +0.000 HD
BRANCH  17  20
ATOM     20  C   UNL     1      48.609   7.166  17.984  0.00  0.00    +0.000 A 
ATOM     21  C   UNL     1      48.700   6.988  19.358  0.00  0.00    +0.000 A 
ATOM     22  S   UNL     1      48.639   8.444  20.244  0.00  0.00    +0.000 S 
ATOM     23  C   UNL     1      48.435   9.363  18.825  0.00  0.00    +0.000 A 
ATOM     24  N   UNL     1      48.298  10.717  18.879  0.00  0.00    +0.000 NA
ATOM     25  C   UNL     1      48.117  11.279  17.733  0.00  0.00    +0.000 A 
ATOM     26  N   UNL     1      48.060  10.616  16.537  0.00  0.00    +0.000 N 
ATOM     27  C   UNL     1      48.251   9.259  16.427  0.00  0.00    +0.000 A 
ATOM     28  O   UNL     1      48.288   8.711  15.332  0.00  0.00    +0.000 OA
ATOM     29  C   UNL     1      48.432   8.570  17.692  0.00  0.00    +0.000 A 
ATOM     30  H   UNL     1      47.930  11.116  15.671  0.00  0.00    +0.000 HD
ENDBRANCH  17  20
ENDBRANCH   1  16
TORSDOF 5
ENDMDL
MODEL 7
REMARK VINA RESULT:    -7.531      3.331      8.299
REMARK INTER + INTRA:         -10.249
REMARK INTER:                  -9.222
REMARK INTRA:                  -1.027
REMARK UNBOUND:                -0.516
REMARK  Name = 
REMARK  6 active torsions:
REMARK  status: ('A' for Active; 'I' for Inactive)
REMARK    1  A    between atoms: C_1  and  C_2
REMARK    2  A    between atoms: C_6  and  C_7
REMARK    3  A    between atoms: C_7  and  C_8
REMARK    4  A    between atoms: C_11  and  C_12
REMARK    5  A    between atoms: C_12  and  N_13
REMARK    6  A    between atoms: C_14  and  C_16
REMARK                            x       y       z     vdW  Elec       q    Type
REMARK                         _______ _______ _______ _____ _____    ______ ____
ROOT
ATOM      1  C   UNL     1      48.208   7.167  13.337  0.00  0.00    +0.000 C 
ENDROOT
BRANCH   1   5
ATOM      2  C   UNL     1      49.578   5.484  17.014  0.00  0.00    +0.000 A 
ATOM      3  C   UNL     1      48.345   5.083  16.496  0.00  0.00    +0.000 A 
ATOM      4  C   UNL     1      47.888   5.626  15.298  0.00  0.00    +0.000 A 
ATOM      5  C   UNL     1      48.667   6.578  14.649  0.00  0.00    +0.000 A 
ATOM      6  N   UNL     1      49.866   6.991  15.134  0.00  0.00    +0.000 NA
ATOM      7  C   UNL     1      50.293   6.432  16.291  0.00  0.00    +0.000 A 
BRANCH   2   8
ATOM      8  C   UNL     1      50.129   4.883  18.278  0.00  0.00    +0.000 C 
BRANCH   8  14
ATOM      9  C   UNL     1      54.618   2.595  18.429  0.00  0.00    +0.000 C 
ATOM     10  C   UNL     1      53.152   2.544  18.114  0.00  0.00    +0.000 A 
ATOM     11  C   UNL     1      52.566   1.384  17.600  0.00  0.00    +0.000 A 
ATOM     12  C   UNL     1      51.206   1.358  17.294  0.00  0.00    +0.000 A 
ATOM     13  C   UNL     1      50.418   2.490  17.507  0.00  0.00    +0.000 A 
ATOM     14  C   UNL     1      50.979   3.656  18.042  0.00  0.00    +0.000 A 
ATOM     15  C   UNL     1      52.352   3.675  18.332  0.00  0.00    +0.000 A 
ENDBRANCH   8  14
ENDBRANCH   2   8
ENDBRANCH   1   5
BRANCH   1  16
ATOM     16  N   UNL     1      47.381   6.252  12.584  0.00  0.00    +0.000 N 
ATOM     17  C   UNL     1      46.354   6.664  11.781  0.00  0.00    +0.000 C 
ATOM     18  O   UNL     1      46.062   7.849  11.648  0.00  0.00    +0.000 OA
ATOM     19  H   UNL     1      47.435   5.281  12.876  0.00  0.00    +0.000 HD
BRANCH  17  20
ATOM     20  C   UNL     1      45.665   5.614  11.014  0.00  0.00    +0.000 A 
ATOM     21  C   UNL     1      45.726   5.623   9.628  0.00  0.00    +0.000 A 
ATOM     22  S   UNL     1      44.942   4.296   8.898  0.00  0.00    +0.000 S 
ATOM     23  C   UNL     1      44.444   3.689  10.408  0.00  0.00    +0.000 A 
ATOM     24  N   UNL     1      43.700   2.552  10.497  0.00  0.00    +0.000 NA
ATOM     25  C   UNL     1      43.365   2.228  11.699  0.00  0.00    +0.000 A 
ATOM     26  N   UNL     1      43.706   2.933  12.822  0.00  0.00    +0.000 N 
ATOM     27  C   UNL     1      44.504   4.052  12.788  0.00  0.00    +0.000 A 
ATOM     28  O   UNL     1      44.868   4.603  13.819  0.00  0.00    +0.000 OA
ATOM     29  C   UNL     1      44.887   4.479  11.454  0.00  0.00    +0.000 A 
ATOM     30  H   UNL     1      43.426   2.618  13.739  0.00  0.00    +0.000 HD
ENDBRANCH  17  20
ENDBRANCH   1  16
TORSDOF 5
ENDMDL
MODEL 8
REMARK VINA RESULT:    -7.495      3.809      8.789
REMARK INTER + INTRA:         -10.202
REMARK INTER:                  -9.257
REMARK INTRA:                  -0.945
REMARK UNBOUND:                -0.516
REMARK  Name = 
REMARK  6 active torsions:
REMARK  status: ('A' for Active; 'I' for Inactive)
REMARK    1  A    between atoms: C_1  and  C_2
REMARK    2  A    between atoms: C_6  and  C_7
REMARK    3  A    between atoms: C_7  and  C_8
REMARK    4  A    between atoms: C_11  and  C_12
REMARK    5  A    between atoms: C_12  and  N_13
REMARK    6  A    between atoms: C_14  and  C_16
REMARK                            x       y       z     vdW  Elec       q    Type
REMARK                         _______ _______ _______ _____ _____    ______ ____
ROOT
ATOM      1  C   UNL     1      47.212   3.430  16.752  0.00  0.00    +0.000 C 
ENDROOT
BRANCH   1   5
ATOM      2  C   UNL     1      51.160   4.169  18.199  0.00  0.00    +0.000 A 
ATOM      3  C   UNL     1      50.128   5.040  18.553  0.00  0.00    +0.000 A 
ATOM      4  C   UNL     1      48.837   4.810  18.087  0.00  0.00    +0.000 A 
ATOM      5  C   UNL     1      48.605   3.719  17.255  0.00  0.00    +0.000 A 
ATOM      6  N   UNL     1      49.592   2.860  16.890  0.00  0.00    +0.000 NA
ATOM      7  C   UNL     1      50.833   3.099  17.374  0.00  0.00    +0.000 A 
BRANCH   2   8
ATOM      8  C   UNL     1      52.557   4.356  18.725  0.00  0.00    +0.000 C 
BRANCH   8  14
ATOM      9  C   UNL     1      53.959   7.403  14.963  0.00  0.00    +0.000 C 
ATOM     10  C   UNL     1      54.239   6.216  15.836  0.00  0.00    +0.000 A 
ATOM     11  C   UNL     1      55.404   5.461  15.673  0.00  0.00    +0.000 A 
ATOM     12  C   UNL     1      55.641   4.349  16.480  0.00  0.00    +0.000 A 
ATOM     13  C   UNL     1      54.719   3.987  17.463  0.00  0.00    +0.000 A 
ATOM     14  C   UNL     1      53.556   4.742  17.659  0.00  0.00    +0.000 A 
ATOM     15  C   UNL     1      53.321   5.850  16.831  0.00  0.00    +0.000 A 
ENDBRANCH   8  14
ENDBRANCH   2   8
ENDBRANCH   1   5
BRANCH   1  16
ATOM     16  N   UNL     1      46.773   4.394  15.768  0.00  0.00    +0.000 N 
ATOM     17  C   UNL     1      46.788   4.147  14.424  0.00  0.00    +0.000 C 
ATOM     18  O   UNL     1      47.183   3.081  13.959  0.00  0.00    +0.000 OA
ATOM     19  H   UNL     1      46.691   5.349  16.105  0.00  0.00    +0.000 HD
BRANCH  17  20
ATOM     20  C   UNL     1      46.225   5.198  13.562  0.00  0.00    +0.000 A 
ATOM     21  C   UNL     1      46.960   6.348  13.311  0.00  0.00    +0.000 A 
ATOM     22  S   UNL     1      46.197   7.427  12.233  0.00  0.00    +0.000 S 
ATOM     23  C   UNL     1      44.830   6.421  12.105  0.00  0.00    +0.000 A 
ATOM     24  N   UNL     1      43.769   6.774  11.329  0.00  0.00    +0.000 NA
ATOM     25  C   UNL     1      42.790   5.934  11.352  0.00  0.00    +0.000 A 
ATOM     26  N   UNL     1      42.773   4.774  12.078  0.00  0.00    +0.000 N 
ATOM     27  C   UNL     1      43.844   4.347  12.828  0.00  0.00    +0.000 A 
ATOM     28  O   UNL     1      43.831   3.258  13.387  0.00  0.00    +0.000 OA
ATOM     29  C   UNL     1      44.965   5.269  12.859  0.00  0.00    +0.000 A 
ATOM     30  H   UNL     1      41.982   4.149  12.042  0.00  0.00    +0.000 HD
ENDBRANCH  17  20
ENDBRANCH   1  16
TORSDOF 5
ENDMDL
MODEL 9
REMARK VINA RESULT:    -7.391      2.599      3.547
REMARK INTER + INTRA:         -10.068
REMARK INTER:                  -9.560
REMARK INTRA:                  -0.508
REMARK UNBOUND:                -0.516
REMARK  Name = 
REMARK  6 active torsions:
REMARK  status: ('A' for Active; 'I' for Inactive)
REMARK    1  A    between atoms: C_1  and  C_2
REMARK    2  A    between atoms: C_6  and  C_7
REMARK    3  A    between atoms: C_7  and  C_8
REMARK    4  A    between atoms: C_11  and  C_12
REMARK    5  A    between atoms: C_12  and  N_13
REMARK    6  A    between atoms: C_14  and  C_16
REMARK                            x       y       z     vdW  Elec       q    Type
REMARK                         _______ _______ _______ _____ _____    ______ ____
ROOT
ATOM      1  C   UNL     1      47.364   4.300  15.859  0.00  0.00    +0.000 C 
ENDROOT
BRANCH   1   5
ATOM      2  C   UNL     1      45.859   5.474  12.039  0.00  0.00    +0.000 A 
ATOM      3  C   UNL     1      46.902   6.201  12.617  0.00  0.00    +0.000 A 
ATOM      4  C   UNL     1      47.400   5.828  13.862  0.00  0.00    +0.000 A 
ATOM      5  C   UNL     1      46.830   4.742  14.518  0.00  0.00    +0.000 A 
ATOM      6  N   UNL     1      45.811   4.022  13.983  0.00  0.00    +0.000 NA
ATOM      7  C   UNL     1      45.360   4.397  12.763  0.00  0.00    +0.000 A 
BRANCH   2   8
ATOM      8  C   UNL     1      45.329   5.815  10.674  0.00  0.00    +0.000 C 
BRANCH   8  14
ATOM      9  C   UNL     1      46.833   3.547   6.431  0.00  0.00    +0.000 C 
ATOM     10  C   UNL     1      46.003   3.530   7.681  0.00  0.00    +0.000 A 
ATOM     11  C   UNL     1      45.180   2.442   7.984  0.00  0.00    +0.000 A 
ATOM     12  C   UNL     1      44.400   2.448   9.140  0.00  0.00    +0.000 A 
ATOM     13  C   UNL     1      44.443   3.540  10.008  0.00  0.00    +0.000 A 
ATOM     14  C   UNL     1      45.277   4.632   9.735  0.00  0.00    +0.000 A 
ATOM     15  C   UNL     1      46.046   4.620   8.561  0.00  0.00    +0.000 A 
ENDBRANCH   8  14
ENDBRANCH   2   8
ENDBRANCH   1   5
BRANCH   1  16
ATOM     16  N   UNL     1      47.875   5.405  16.638  0.00  0.00    +0.000 N 
ATOM     17  C   UNL     1      49.141   5.432  17.154  0.00  0.00    +0.000 C 
ATOM     18  O   UNL     1      49.933   4.508  16.991  0.00  0.00    +0.000 OA
ATOM     19  H   UNL     1      47.171   6.044  16.996  0.00  0.00    +0.000 HD
BRANCH  17  20
ATOM     20  C   UNL     1      49.536   6.668  17.847  0.00  0.00    +0.000 A 
ATOM     21  C   UNL     1      50.610   7.408  17.375  0.00  0.00    +0.000 A 
ATOM     22  S   UNL     1      50.887   8.848  18.245  0.00  0.00    +0.000 S 
ATOM     23  C   UNL     1      49.612   8.508  19.321  0.00  0.00    +0.000 A 
ATOM     24  N   UNL     1      49.314   9.354  20.345  0.00  0.00    +0.000 NA
ATOM     25  C   UNL     1      48.348   8.954  21.101  0.00  0.00    +0.000 A 
ATOM     26  N   UNL     1      47.652   7.789  20.928  0.00  0.00    +0.000 N 
ATOM     27  C   UNL     1      47.877   6.934  19.876  0.00  0.00    +0.000 A 
ATOM     28  O   UNL     1      47.172   5.948  19.697  0.00  0.00    +0.000 OA
ATOM     29  C   UNL     1      48.974   7.321  19.007  0.00  0.00    +0.000 A 
ATOM     30  H   UNL     1      46.894   7.539  21.546  0.00  0.00    +0.000 HD
ENDBRANCH  17  20
ENDBRANCH   1  16
TORSDOF 5
ENDMDL
