MODEL 1
REMARK VINA RESULT:    -8.652      0.000      0.000
REMARK INTER + INTRA:         -12.606
REMARK INTER:                 -11.181
REMARK INTRA:                  -1.425
REMARK UNBOUND:                -1.425
REMARK  Name = 
REMARK  5 active torsions:
REMARK  status: ('A' for Active; 'I' for Inactive)
REMARK    1  A    between atoms: C_2  and  C_4
REMARK    2  A    between atoms: C_7  and  C_8
REMARK    3  A    between atoms: C_8  and  C_9
REMARK    4  A    between atoms: C_9  and  C_10
REMARK    5  A    between atoms: C_14  and  C_15
REMARK                            x       y       z     vdW  Elec       q    Type
REMARK                         _______ _______ _______ _____ _____    ______ ____
ROOT
ATOM      1  C   UNL     1      43.778   4.953  11.399  0.00  0.00    +0.000 C 
ATOM      2  C   UNL     1      42.512   5.422  12.118  0.00  0.00    +0.000 C 
ATOM      3  C   UNL     1      43.043   6.221  10.974  0.00  0.00    +0.000 C 
ENDROOT
BRANCH   1   4
ATOM      4  C   UNL     1      45.071   5.115  12.198  0.00  0.00    +0.000 A 
ATOM      5  C   UNL     1      45.554   4.103  13.041  0.00  0.00    +0.000 A 
ATOM      6  C   UNL     1      46.814   4.193  13.628  0.00  0.00    +0.000 A 
ATOM      7  C   UNL     1      47.613   5.312  13.396  0.00  0.00    +0.000 A 
ATOM      8  C   UNL     1      47.165   6.366  12.584  0.00  0.00    +0.000 A 
ATOM      9  C   UNL     1      45.884   6.251  12.018  0.00  0.00    +0.000 A 
BRANCH   8  10
ATOM     10  C   UNL     1      48.032   7.511  12.256  0.00  0.00    +0.000 A 
ATOM     11  C   UNL     1      49.387   7.336  11.940  0.00  0.00    +0.000 A 
ATOM     12  C   UNL     1      50.178   8.423  11.568  0.00  0.00    +0.000 A 
ATOM     13  C   UNL     1      49.590   9.674  11.515  0.00  0.00    +0.000 A 
ATOM     14  N   UNL     1      48.295   9.904  11.814  0.00  0.00    +0.000 NA
ATOM     15  C   UNL     1      47.557   8.823  12.177  0.00  0.00    +0.000 A 
ENDBRANCH   8  10
ENDBRANCH   1   4
BRANCH   1  16
ATOM     16  C   UNL     1      43.599   3.660  10.621  0.00  0.00    +0.000 C 
BRANCH  16  20
ATOM     17  C   UNL     1      46.501   2.746   7.559  0.00  0.00    +0.000 A 
ATOM     18  C   UNL     1      45.997   1.727   8.374  0.00  0.00    +0.000 A 
ATOM     19  C   UNL     1      45.096   2.032   9.398  0.00  0.00    +0.000 A 
ATOM     20  C   UNL     1      44.686   3.355   9.621  0.00  0.00    +0.000 A 
ATOM     21  C   UNL     1      45.235   4.376   8.834  0.00  0.00    +0.000 A 
ATOM     22  C   UNL     1      46.138   4.074   7.809  0.00  0.00    +0.000 A 
BRANCH  17  24
ATOM     23  N   UNL     1      47.311   3.235   5.310  0.00  0.00    +0.000 N 
ATOM     24  C   UNL     1      47.422   2.457   6.423  0.00  0.00    +0.000 C 
ATOM     25  O   UNL     1      48.279   1.579   6.504  0.00  0.00    +0.000 OA
ATOM     26  H   UNL     1      48.018   3.098   4.603  0.00  0.00    +0.000 HD
ATOM     27  H   UNL     1      46.819   4.113   5.316  0.00  0.00    +0.000 HD
ENDBRANCH  17  24
ENDBRANCH  16  20
ENDBRANCH   1  16
TORSDOF 5
ENDMDL
MODEL 2
REMARK VINA RESULT:    -8.497      2.086      3.365
REMARK INTER + INTRA:         -12.406
REMARK INTER:                 -11.931
REMARK INTRA:                  -0.475
REMARK UNBOUND:                -1.425
REMARK  Name = 
REMARK  5 active torsions:
REMARK  status: ('A' for Active; 'I' for Inactive)
REMARK    1  A    between atoms: C_2  and  C_4
REMARK    2  A    between atoms: C_7  and  C_8
REMARK    3  A    between atoms: C_8  and  C_9
REMARK    4  A    between atoms: C_9  and  C_10
REMARK    5  A    between atoms: C_14  and  C_15
REMARK                            x       y       z     vdW  Elec       q    Type
REMARK                         _______ _______ _______ _____ _____    ______ ____
ROOT
ATOM      1  C   UNL     1      43.975   4.909  11.565  0.00  0.00    +0.000 C 
ATOM      2  C   UNL     1      43.424   3.746  12.392  0.00  0.00    +0.000 C 
ATOM      3  C   UNL     1      42.804   5.098  12.525  0.00  0.00    +0.000 C 
ENDROOT
BRANCH   1   4
ATOM      4  C   UNL     1      45.346   5.421  12.006  0.00  0.00    +0.000 A 
ATOM      5  C   UNL     1      46.027   6.423  11.299  0.00  0.00    +0.000 A 
ATOM      6  C   UNL     1      47.190   6.999  11.804  0.00  0.00    +0.000 A 
ATOM      7  C   UNL     1      47.708   6.568  13.025  0.00  0.00    +0.000 A 
ATOM      8  C   UNL     1      47.081   5.548  13.758  0.00  0.00    +0.000 A 
ATOM      9  C   UNL     1      45.917   4.978  13.215  0.00  0.00    +0.000 A 
BRANCH   8  10
ATOM     10  C   UNL     1      47.565   5.145  15.091  0.00  0.00    +0.000 A 
ATOM     11  C   UNL     1      47.158   3.940  15.683  0.00  0.00    +0.000 A 
ATOM     12  C   UNL     1      47.675   3.542  16.915  0.00  0.00    +0.000 A 
ATOM     13  C   UNL     1      48.601   4.363  17.533  0.00  0.00    +0.000 A 
ATOM     14  N   UNL     1      49.024   5.534  17.016  0.00  0.00    +0.000 NA
ATOM     15  C   UNL     1      48.495   5.892  15.817  0.00  0.00    +0.000 A 
ENDBRANCH   8  10
ENDBRANCH   1   4
BRANCH   1  16
ATOM     16  C   UNL     1      43.733   4.769  10.071  0.00  0.00    +0.000 C 
BRANCH  16  20
ATOM     17  C   UNL     1      46.424   2.326   7.742  0.00  0.00    +0.000 A 
ATOM     18  C   UNL     1      45.582   1.734   8.689  0.00  0.00    +0.000 A 
ATOM     19  C   UNL     1      44.749   2.531   9.478  0.00  0.00    +0.000 A 
ATOM     20  C   UNL     1      44.742   3.926   9.332  0.00  0.00    +0.000 A 
ATOM     21  C   UNL     1      45.625   4.515   8.416  0.00  0.00    +0.000 A 
ATOM     22  C   UNL     1      46.462   3.720   7.626  0.00  0.00    +0.000 A 
BRANCH  17  24
ATOM     23  N   UNL     1      48.334   2.138   6.235  0.00  0.00    +0.000 N 
ATOM     24  C   UNL     1      47.289   1.509   6.844  0.00  0.00    +0.000 C 
ATOM     25  O   UNL     1      47.095   0.305   6.694  0.00  0.00    +0.000 OA
ATOM     26  H   UNL     1      48.971   1.543   5.726  0.00  0.00    +0.000 HD
ATOM     27  H   UNL     1      48.673   3.034   6.541  0.00  0.00    +0.000 HD
ENDBRANCH  17  24
ENDBRANCH  16  20
ENDBRANCH   1  16
TORSDOF 5
ENDMDL
MODEL 3
REMARK VINA RESULT:    -7.798      1.422      2.175
REMARK INTER + INTRA:         -11.503
REMARK INTER:                 -11.012
REMARK INTRA:                  -0.491
REMARK UNBOUND:                -1.425
REMARK  Name = 
REMARK  5 active torsions:
REMARK  status: ('A' for Active; 'I' for Inactive)
REMARK    1  A    between atoms: C_2  and  C_4
REMARK    2  A    between atoms: C_7  and  C_8
REMARK    3  A    between atoms: C_8  and  C_9
REMARK    4  A    between atoms: C_9  and  C_10
REMARK    5  A    between atoms: C_14  and  C_15
REMARK                            x       y       z     vdW  Elec       q    Type
REMARK                         _______ _______ _______ _____ _____    ______ ____
ROOT
ATOM      1  C   UNL     1      44.303   4.451  11.703  0.00  0.00    +0.000 C 
ATOM      2  C   UNL     1      45.016   3.409  12.567  0.00  0.00    +0.000 C 
ATOM      3  C   UNL     1      43.705   3.964  13.019  0.00  0.00    +0.000 C 
ENDROOT
BRANCH   1   4
ATOM      4  C   UNL     1      44.957   5.832  11.688  0.00  0.00    +0.000 A 
ATOM      5  C   UNL     1      44.239   6.990  11.353  0.00  0.00    +0.000 A 
ATOM      6  C   UNL     1      44.798   8.256  11.508  0.00  0.00    +0.000 A 
ATOM      7  C   UNL     1      46.101   8.389  11.986  0.00  0.00    +0.000 A 
ATOM      8  C   UNL     1      46.873   7.261  12.309  0.00  0.00    +0.000 A 
ATOM      9  C   UNL     1      46.284   5.998  12.129  0.00  0.00    +0.000 A 
BRANCH   8  10
ATOM     10  C   UNL     1      48.216   7.388  12.901  0.00  0.00    +0.000 A 
ATOM     11  C   UNL     1      49.231   8.115  12.263  0.00  0.00    +0.000 A 
ATOM     12  C   UNL     1      50.477   8.281  12.867  0.00  0.00    +0.000 A 
ATOM     13  C   UNL     1      50.682   7.713  14.112  0.00  0.00    +0.000 A 
ATOM     14  N   UNL     1      49.747   6.998  14.770  0.00  0.00    +0.000 NA
ATOM     15  C   UNL     1      48.548   6.853  14.149  0.00  0.00    +0.000 A 
ENDBRANCH   8  10
ENDBRANCH   1   4
BRANCH   1  16
ATOM     16  C   UNL     1      43.798   3.906  10.377  0.00  0.00    +0.000 C 
BRANCH  16  20
ATOM     17  C   UNL     1      46.657   2.685   7.382  0.00  0.00    +0.000 A 
ATOM     18  C   UNL     1      46.069   1.732   8.220  0.00  0.00    +0.000 A 
ATOM     19  C   UNL     1      45.183   2.134   9.223  0.00  0.00    +0.000 A 
ATOM     20  C   UNL     1      44.870   3.490   9.401  0.00  0.00    +0.000 A 
ATOM     21  C   UNL     1      45.503   4.443   8.591  0.00  0.00    +0.000 A 
ATOM     22  C   UNL     1      46.391   4.044   7.588  0.00  0.00    +0.000 A 
BRANCH  17  24
ATOM     23  N   UNL     1      47.468   2.992   5.102  0.00  0.00    +0.000 N 
ATOM     24  C   UNL     1      47.567   2.294   6.268  0.00  0.00    +0.000 C 
ATOM     25  O   UNL     1      48.403   1.405   6.410  0.00  0.00    +0.000 OA
ATOM     26  H   UNL     1      48.168   2.788   4.404  0.00  0.00    +0.000 HD
ATOM     27  H   UNL     1      46.995   3.878   5.045  0.00  0.00    +0.000 HD
ENDBRANCH  17  24
ENDBRANCH  16  20
ENDBRANCH   1  16
TORSDOF 5
ENDMDL
MODEL 4
REMARK VINA RESULT:    -7.548      3.565      7.262
REMARK INTER + INTRA:         -11.179
REMARK INTER:                 -10.070
REMARK INTRA:                  -1.109
REMARK UNBOUND:                -1.425
REMARK  Name = 
REMARK  5 active torsions:
REMARK  status: ('A' for Active; 'I' for Inactive)
REMARK    1  A    between atoms: C_2  and  C_4
REMARK    2  A    between atoms: C_7  and  C_8
REMARK    3  A    between atoms: C_8  and  C_9
REMARK    4  A    between atoms: C_9  and  C_10
REMARK    5  A    between atoms: C_14  and  C_15
REMARK                            x       y       z     vdW  Elec       q    Type
REMARK                         _______ _______ _______ _____ _____    ______ ____
ROOT
ATOM      1  C   UNL     1      46.231   7.356  12.308  0.00  0.00    +0.000 C 
ATOM      2  C   UNL     1      46.171   8.758  11.699  0.00  0.00    +0.000 C 
ATOM      3  C   UNL     1      45.607   8.527  13.062  0.00  0.00    +0.000 C 
ENDROOT
BRANCH   1   4
ATOM      4  C   UNL     1      45.288   6.335  11.673  0.00  0.00    +0.000 A 
ATOM      5  C   UNL     1      43.897   6.402  11.846  0.00  0.00    +0.000 A 
ATOM      6  C   UNL     1      43.040   5.573  11.126  0.00  0.00    +0.000 A 
ATOM      7  C   UNL     1      43.561   4.643  10.228  0.00  0.00    +0.000 A 
ATOM      8  C   UNL     1      44.947   4.516  10.038  0.00  0.00    +0.000 A 
ATOM      9  C   UNL     1      45.785   5.358  10.789  0.00  0.00    +0.000 A 
BRANCH   8  10
ATOM     10  C   UNL     1      45.508   3.603   9.028  0.00  0.00    +0.000 A 
ATOM     11  C   UNL     1      46.159   4.088   7.884  0.00  0.00    +0.000 A 
ATOM     12  C   UNL     1      46.743   3.212   6.970  0.00  0.00    +0.000 A 
ATOM     13  C   UNL     1      46.667   1.854   7.224  0.00  0.00    +0.000 A 
ATOM     14  N   UNL     1      46.049   1.329   8.302  0.00  0.00    +0.000 NA
ATOM     15  C   UNL     1      45.488   2.213   9.167  0.00  0.00    +0.000 A 
ENDBRANCH   8  10
ENDBRANCH   1   4
BRANCH   1  16
ATOM     16  C   UNL     1      47.641   6.890  12.636  0.00  0.00    +0.000 C 
BRANCH  16  20
ATOM     17  C   UNL     1      47.782   4.702  16.354  0.00  0.00    +0.000 A 
ATOM     18  C   UNL     1      48.523   5.879  16.205  0.00  0.00    +0.000 A 
ATOM     19  C   UNL     1      48.517   6.559  14.984  0.00  0.00    +0.000 A 
ATOM     20  C   UNL     1      47.771   6.075  13.898  0.00  0.00    +0.000 A 
ATOM     21  C   UNL     1      47.073   4.868  14.040  0.00  0.00    +0.000 A 
ATOM     22  C   UNL     1      47.079   4.184  15.260  0.00  0.00    +0.000 A 
BRANCH  17  24
ATOM     23  N   UNL     1      46.949   2.853  17.711  0.00  0.00    +0.000 N 
ATOM     24  C   UNL     1      47.720   3.975  17.654  0.00  0.00    +0.000 C 
ATOM     25  O   UNL     1      48.373   4.349  18.626  0.00  0.00    +0.000 OA
ATOM     26  H   UNL     1      47.013   2.315  18.563  0.00  0.00    +0.000 HD
ATOM     27  H   UNL     1      46.627   2.381  16.883  0.00  0.00    +0.000 HD
ENDBRANCH  17  24
ENDBRANCH  16  20
ENDBRANCH   1  16
TORSDOF 5
ENDMDL
MODEL 5
REMARK VINA RESULT:    -6.733      3.603      5.838
REMARK INTER + INTRA:         -10.127
REMARK INTER:                  -8.874
REMARK INTRA:                  -1.253
REMARK UNBOUND:                -1.425
REMARK  Name = 
REMARK  5 active torsions:
REMARK  status: ('A' for Active; 'I' for Inactive)
REMARK    1  A    between atoms: C_2  and  C_4
REMARK    2  A    between atoms: C_7  and  C_8
REMARK    3  A    between atoms: C_8  and  C_9
REMARK    4  A    between atoms: C_9  and  C_10
REMARK    5  A    between atoms: C_14  and  C_15
REMARK                            x       y       z     vdW  Elec       q    Type
REMARK                         _______ _______ _______ _____ _____    ______ ____
ROOT
ATOM      1  C   UNL     1      47.884   8.106  12.590  0.00  0.00    +0.000 C 
ATOM      2  C   UNL     1      48.653   9.145  11.771  0.00  0.00    +0.000 C 
ATOM      3  C   UNL     1      48.934   7.693  11.562  0.00  0.00    +0.000 C 
ENDROOT
BRANCH   1   4
ATOM      4  C   UNL     1      48.271   8.036  14.067  0.00  0.00    +0.000 A 
ATOM      5  C   UNL     1      48.266   9.171  14.891  0.00  0.00    +0.000 A 
ATOM      6  C   UNL     1      48.452   9.065  16.267  0.00  0.00    +0.000 A 
ATOM      7  C   UNL     1      48.667   7.815  16.847  0.00  0.00    +0.000 A 
ATOM      8  C   UNL     1      48.709   6.651  16.064  0.00  0.00    +0.000 A 
ATOM      9  C   UNL     1      48.531   6.793  14.677  0.00  0.00    +0.000 A 
BRANCH   8  10
ATOM     10  C   UNL     1      48.843   5.315  16.672  0.00  0.00    +0.000 A 
ATOM     11  C   UNL     1      47.838   4.347  16.539  0.00  0.00    +0.000 A 
ATOM     12  C   UNL     1      48.009   3.066  17.063  0.00  0.00    +0.000 A 
ATOM     13  C   UNL     1      49.195   2.776  17.713  0.00  0.00    +0.000 A 
ATOM     14  N   UNL     1      50.194   3.668  17.877  0.00  0.00    +0.000 NA
ATOM     15  C   UNL     1      49.990   4.907  17.358  0.00  0.00    +0.000 A 
ENDBRANCH   8  10
ENDBRANCH   1   4
BRANCH   1  16
ATOM     16  C   UNL     1      46.404   8.033  12.254  0.00  0.00    +0.000 C 
BRANCH  16  20
ATOM     17  C   UNL     1      44.633   4.192  11.388  0.00  0.00    +0.000 A 
ATOM     18  C   UNL     1      44.698   4.653  12.707  0.00  0.00    +0.000 A 
ATOM     19  C   UNL     1      45.318   5.873  12.992  0.00  0.00    +0.000 A 
ATOM     20  C   UNL     1      45.877   6.649  11.966  0.00  0.00    +0.000 A 
ATOM     21  C   UNL     1      45.853   6.157  10.654  0.00  0.00    +0.000 A 
ATOM     22  C   UNL     1      45.235   4.935  10.366  0.00  0.00    +0.000 A 
BRANCH  17  24
ATOM     23  N   UNL     1      44.423   2.211   9.980  0.00  0.00    +0.000 N 
ATOM     24  C   UNL     1      43.936   2.923  11.035  0.00  0.00    +0.000 C 
ATOM     25  O   UNL     1      42.986   2.512  11.697  0.00  0.00    +0.000 OA
ATOM     26  H   UNL     1      44.009   1.302   9.832  0.00  0.00    +0.000 HD
ATOM     27  H   UNL     1      45.339   2.376   9.598  0.00  0.00    +0.000 HD
ENDBRANCH  17  24
ENDBRANCH  16  20
ENDBRANCH   1  16
TORSDOF 5
ENDMDL
MODEL 6
REMARK VINA RESULT:    -6.454      3.559      7.392
REMARK INTER + INTRA:          -9.766
REMARK INTER:                  -8.979
REMARK INTRA:                  -0.786
REMARK UNBOUND:                -1.425
REMARK  Name = 
REMARK  5 active torsions:
REMARK  status: ('A' for Active; 'I' for Inactive)
REMARK    1  A    between atoms: C_2  and  C_4
REMARK    2  A    between atoms: C_7  and  C_8
REMARK    3  A    between atoms: C_8  and  C_9
REMARK    4  A    between atoms: C_9  and  C_10
REMARK    5  A    between atoms: C_14  and  C_15
REMARK                            x       y       z     vdW  Elec       q    Type
REMARK                         _______ _______ _______ _____ _____    ______ ____
ROOT
ATOM      1  C   UNL     1      48.289   8.138  12.571  0.00  0.00    +0.000 C 
ATOM      2  C   UNL     1      48.972   8.986  11.495  0.00  0.00    +0.000 C 
ATOM      3  C   UNL     1      48.560   9.625  12.781  0.00  0.00    +0.000 C 
ENDROOT
BRANCH   1   4
ATOM      4  C   UNL     1      46.857   7.715  12.246  0.00  0.00    +0.000 A 
ATOM      5  C   UNL     1      45.753   8.513  12.582  0.00  0.00    +0.000 A 
ATOM      6  C   UNL     1      44.473   8.200  12.131  0.00  0.00    +0.000 A 
ATOM      7  C   UNL     1      44.268   7.067  11.346  0.00  0.00    +0.000 A 
ATOM      8  C   UNL     1      45.334   6.219  11.004  0.00  0.00    +0.000 A 
ATOM      9  C   UNL     1      46.611   6.555  11.486  0.00  0.00    +0.000 A 
BRANCH   8  10
ATOM     10  C   UNL     1      45.150   5.070  10.101  0.00  0.00    +0.000 A 
ATOM     11  C   UNL     1      45.795   5.006   8.858  0.00  0.00    +0.000 A 
ATOM     12  C   UNL     1      45.662   3.882   8.043  0.00  0.00    +0.000 A 
ATOM     13  C   UNL     1      44.882   2.833   8.496  0.00  0.00    +0.000 A 
ATOM     14  N   UNL     1      44.233   2.841   9.678  0.00  0.00    +0.000 NA
ATOM     15  C   UNL     1      44.382   3.954  10.442  0.00  0.00    +0.000 A 
ENDBRANCH   8  10
ENDBRANCH   1   4
BRANCH   1  16
ATOM     16  C   UNL     1      49.198   7.093  13.196  0.00  0.00    +0.000 C 
BRANCH  16  20
ATOM     17  C   UNL     1      47.712   4.727  16.486  0.00  0.00    +0.000 A 
ATOM     18  C   UNL     1      47.238   4.500  15.190  0.00  0.00    +0.000 A 
ATOM     19  C   UNL     1      47.681   5.301  14.134  0.00  0.00    +0.000 A 
ATOM     20  C   UNL     1      48.604   6.335  14.357  0.00  0.00    +0.000 A 
ATOM     21  C   UNL     1      49.035   6.587  15.666  0.00  0.00    +0.000 A 
ATOM     22  C   UNL     1      48.591   5.789  16.725  0.00  0.00    +0.000 A 
BRANCH  17  24
ATOM     23  N   UNL     1      47.875   4.116  18.843  0.00  0.00    +0.000 N 
ATOM     24  C   UNL     1      47.304   3.863  17.631  0.00  0.00    +0.000 C 
ATOM     25  O   UNL     1      46.454   2.985  17.497  0.00  0.00    +0.000 OA
ATOM     26  H   UNL     1      47.500   3.597  19.624  0.00  0.00    +0.000 HD
ATOM     27  H   UNL     1      48.356   4.976  19.040  0.00  0.00    +0.000 HD
ENDBRANCH  17  24
ENDBRANCH  16  20
ENDBRANCH   1  16
TORSDOF 5
ENDMDL
MODEL 7
REMARK VINA RESULT:    -5.945      5.298      8.446
REMARK INTER + INTRA:          -9.108
REMARK INTER:                  -7.274
REMARK INTRA:                  -1.833
REMARK UNBOUND:                -1.425
REMARK  Name = 
REMARK  5 active torsions:
REMARK  status: ('A' for Active; 'I' for Inactive)
REMARK    1  A    between atoms: C_2  and  C_4
REMARK    2  A    between atoms: C_7  and  C_8
REMARK    3  A    between atoms: C_8  and  C_9
REMARK    4  A    between atoms: C_9  and  C_10
REMARK    5  A    between atoms: C_14  and  C_15
REMARK                            x       y       z     vdW  Elec       q    Type
REMARK                         _______ _______ _______ _____ _____    ______ ____
ROOT
ATOM      1  C   UNL     1      49.001   8.105  18.375  0.00  0.00    +0.000 C 
ATOM      2  C   UNL     1      48.857   9.540  18.885  0.00  0.00    +0.000 C 
ATOM      3  C   UNL     1      47.640   8.684  18.753  0.00  0.00    +0.000 C 
ENDROOT
BRANCH   1   4
ATOM      4  C   UNL     1      49.332   7.979  16.888  0.00  0.00    +0.000 A 
ATOM      5  C   UNL     1      50.594   8.316  16.377  0.00  0.00    +0.000 A 
ATOM      6  C   UNL     1      50.936   8.035  15.056  0.00  0.00    +0.000 A 
ATOM      7  C   UNL     1      50.010   7.426  14.211  0.00  0.00    +0.000 A 
ATOM      8  C   UNL     1      48.723   7.095  14.664  0.00  0.00    +0.000 A 
ATOM      9  C   UNL     1      48.405   7.403  15.998  0.00  0.00    +0.000 A 
BRANCH   8  10
ATOM     10  C   UNL     1      47.766   6.370  13.810  0.00  0.00    +0.000 A 
ATOM     11  C   UNL     1      47.131   5.201  14.254  0.00  0.00    +0.000 A 
ATOM     12  C   UNL     1      46.178   4.563  13.460  0.00  0.00    +0.000 A 
ATOM     13  C   UNL     1      45.874   5.116  12.229  0.00  0.00    +0.000 A 
ATOM     14  N   UNL     1      46.457   6.233  11.747  0.00  0.00    +0.000 NA
ATOM     15  C   UNL     1      47.383   6.824  12.546  0.00  0.00    +0.000 A 
ENDBRANCH   8  10
ENDBRANCH   1   4
BRANCH   1  16
ATOM     16  C   UNL     1      49.741   7.185  19.333  0.00  0.00    +0.000 C 
BRANCH  16  20
ATOM     17  C   UNL     1      50.184   3.216  17.694  0.00  0.00    +0.000 A 
ATOM     18  C   UNL     1      48.941   3.642  18.175  0.00  0.00    +0.000 A 
ATOM     19  C   UNL     1      48.811   4.907  18.752  0.00  0.00    +0.000 A 
ATOM     20  C   UNL     1      49.917   5.765  18.855  0.00  0.00    +0.000 A 
ATOM     21  C   UNL     1      51.168   5.312  18.416  0.00  0.00    +0.000 A 
ATOM     22  C   UNL     1      51.302   4.045  17.840  0.00  0.00    +0.000 A 
BRANCH  17  24
ATOM     23  N   UNL     1      51.247   1.024  17.573  0.00  0.00    +0.000 N 
ATOM     24  C   UNL     1      50.354   1.895  17.025  0.00  0.00    +0.000 C 
ATOM     25  O   UNL     1      49.684   1.587  16.042  0.00  0.00    +0.000 OA
ATOM     26  H   UNL     1      51.262   0.097  17.173  0.00  0.00    +0.000 HD
ATOM     27  H   UNL     1      51.603   1.136  18.507  0.00  0.00    +0.000 HD
ENDBRANCH  17  24
ENDBRANCH  16  20
ENDBRANCH   1  16
TORSDOF 5
ENDMDL
MODEL 8
REMARK VINA RESULT:    -5.935      5.741      8.541
REMARK INTER + INTRA:          -9.095
REMARK INTER:                  -8.680
REMARK INTRA:                  -0.415
REMARK UNBOUND:                -1.425
REMARK  Name = 
REMARK  5 active torsions:
REMARK  status: ('A' for Active; 'I' for Inactive)
REMARK    1  A    between atoms: C_2  and  C_4
REMARK    2  A    between atoms: C_7  and  C_8
REMARK    3  A    between atoms: C_8  and  C_9
REMARK    4  A    between atoms: C_9  and  C_10
REMARK    5  A    between atoms: C_14  and  C_15
REMARK                            x       y       z     vdW  Elec       q    Type
REMARK                         _______ _______ _______ _____ _____    ______ ____
ROOT
ATOM      1  C   UNL     1      48.369   4.711  17.165  0.00  0.00    +0.000 C 
ATOM      2  C   UNL     1      47.120   4.674  18.047  0.00  0.00    +0.000 C 
ATOM      3  C   UNL     1      47.545   3.437  17.326  0.00  0.00    +0.000 C 
ENDROOT
BRANCH   1   4
ATOM      4  C   UNL     1      48.215   5.496  15.862  0.00  0.00    +0.000 A 
ATOM      5  C   UNL     1      49.076   6.551  15.526  0.00  0.00    +0.000 A 
ATOM      6  C   UNL     1      49.034   7.144  14.266  0.00  0.00    +0.000 A 
ATOM      7  C   UNL     1      48.110   6.702  13.319  0.00  0.00    +0.000 A 
ATOM      8  C   UNL     1      47.207   5.669  13.615  0.00  0.00    +0.000 A 
ATOM      9  C   UNL     1      47.267   5.101  14.899  0.00  0.00    +0.000 A 
BRANCH   8  10
ATOM     10  C   UNL     1      46.288   5.130  12.597  0.00  0.00    +0.000 A 
ATOM     11  C   UNL     1      46.036   5.819  11.402  0.00  0.00    +0.000 A 
ATOM     12  C   UNL     1      45.216   5.265  10.420  0.00  0.00    +0.000 A 
ATOM     13  C   UNL     1      44.663   4.019  10.653  0.00  0.00    +0.000 A 
ATOM     14  N   UNL     1      44.864   3.314  11.785  0.00  0.00    +0.000 NA
ATOM     15  C   UNL     1      45.664   3.887  12.722  0.00  0.00    +0.000 A 
ENDBRANCH   8  10
ENDBRANCH   1   4
BRANCH   1  16
ATOM     16  C   UNL     1      49.663   4.896  17.940  0.00  0.00    +0.000 C 
BRANCH  16  20
ATOM     17  C   UNL     1      52.480   1.629  17.769  0.00  0.00    +0.000 A 
ATOM     18  C   UNL     1      52.895   2.891  18.206  0.00  0.00    +0.000 A 
ATOM     19  C   UNL     1      51.996   3.960  18.212  0.00  0.00    +0.000 A 
ATOM     20  C   UNL     1      50.671   3.784  17.785  0.00  0.00    +0.000 A 
ATOM     21  C   UNL     1      50.276   2.529  17.302  0.00  0.00    +0.000 A 
ATOM     22  C   UNL     1      51.175   1.458  17.293  0.00  0.00    +0.000 A 
BRANCH  17  24
ATOM     23  N   UNL     1      53.650  -0.172  16.612  0.00  0.00    +0.000 N 
ATOM     24  C   UNL     1      53.393   0.451  17.796  0.00  0.00    +0.000 C 
ATOM     25  O   UNL     1      53.927   0.082  18.840  0.00  0.00    +0.000 OA
ATOM     26  H   UNL     1      54.357  -0.891  16.636  0.00  0.00    +0.000 HD
ATOM     27  H   UNL     1      53.450   0.259  15.725  0.00  0.00    +0.000 HD
ENDBRANCH  17  24
ENDBRANCH  16  20
ENDBRANCH   1  16
TORSDOF 5
ENDMDL
MODEL 9
REMARK VINA RESULT:    -5.689      4.372      8.509
REMARK INTER + INTRA:          -8.776
REMARK INTER:                  -7.780
REMARK INTRA:                  -0.996
REMARK UNBOUND:                -1.425
REMARK  Name = 
REMARK  5 active torsions:
REMARK  status: ('A' for Active; 'I' for Inactive)
REMARK    1  A    between atoms: C_2  and  C_4
REMARK    2  A    between atoms: C_7  and  C_8
REMARK    3  A    between atoms: C_8  and  C_9
REMARK    4  A    between atoms: C_9  and  C_10
REMARK    5  A    between atoms: C_14  and  C_15
REMARK                            x       y       z     vdW  Elec       q    Type
REMARK                         _______ _______ _______ _____ _____    ______ ____
ROOT
ATOM      1  C   UNL     1      48.767   8.068  12.659  0.00  0.00    +0.000 C 
ATOM      2  C   UNL     1      49.617   8.366  11.423  0.00  0.00    +0.000 C 
ATOM      3  C   UNL     1      49.294   9.471  12.373  0.00  0.00    +0.000 C 
ENDROOT
BRANCH   1   4
ATOM      4  C   UNL     1      47.291   7.792  12.375  0.00  0.00    +0.000 A 
ATOM      5  C   UNL     1      46.294   8.745  12.633  0.00  0.00    +0.000 A 
ATOM      6  C   UNL     1      44.981   8.547  12.213  0.00  0.00    +0.000 A 
ATOM      7  C   UNL     1      44.633   7.376  11.540  0.00  0.00    +0.000 A 
ATOM      8  C   UNL     1      45.586   6.378  11.283  0.00  0.00    +0.000 A 
ATOM      9  C   UNL     1      46.899   6.602  11.731  0.00  0.00    +0.000 A 
BRANCH   8  10
ATOM     10  C   UNL     1      45.255   5.178  10.494  0.00  0.00    +0.000 A 
ATOM     11  C   UNL     1      45.625   5.064   9.146  0.00  0.00    +0.000 A 
ATOM     12  C   UNL     1      45.362   3.895   8.433  0.00  0.00    +0.000 A 
ATOM     13  C   UNL     1      44.733   2.853   9.089  0.00  0.00    +0.000 A 
ATOM     14  N   UNL     1      44.349   2.908  10.381  0.00  0.00    +0.000 NA
ATOM     15  C   UNL     1      44.616   4.064  11.043  0.00  0.00    +0.000 A 
ENDBRANCH   8  10
ENDBRANCH   1   4
BRANCH   1  16
ATOM     16  C   UNL     1      49.458   7.177  13.679  0.00  0.00    +0.000 C 
BRANCH  16  20
ATOM     17  C   UNL     1      48.282   8.026  17.744  0.00  0.00    +0.000 A 
ATOM     18  C   UNL     1      48.395   9.066  16.815  0.00  0.00    +0.000 A 
ATOM     19  C   UNL     1      48.826   8.797  15.514  0.00  0.00    +0.000 A 
ATOM     20  C   UNL     1      49.146   7.488  15.121  0.00  0.00    +0.000 A 
ATOM     21  C   UNL     1      49.078   6.460  16.071  0.00  0.00    +0.000 A 
ATOM     22  C   UNL     1      48.649   6.727  17.375  0.00  0.00    +0.000 A 
BRANCH  17  24
ATOM     23  N   UNL     1      46.992   9.358  19.330  0.00  0.00    +0.000 N 
ATOM     24  C   UNL     1      47.777   8.263  19.127  0.00  0.00    +0.000 C 
ATOM     25  O   UNL     1      48.023   7.477  20.039  0.00  0.00    +0.000 OA
ATOM     26  H   UNL     1      46.568   9.434  20.243  0.00  0.00    +0.000 HD
ATOM     27  H   UNL     1      46.560   9.857  18.571  0.00  0.00    +0.000 HD
ENDBRANCH  17  24
ENDBRANCH  16  20
ENDBRANCH   1  16
TORSDOF 5
ENDMDL
