MODEL 1
REMARK VINA RESULT:    -8.459      0.000      0.000
REMARK INTER + INTRA:         -11.489
REMARK INTER:                 -10.932
REMARK INTRA:                  -0.557
REMARK UNBOUND:                -0.557
REMARK  Name = 
REMARK  5 active torsions:
REMARK  status: ('A' for Active; 'I' for Inactive)
REMARK    1  A    between atoms: C_2  and  C_4
REMARK    2  A    between atoms: C_7  and  N_8
REMARK    3  A    between atoms: N_8  and  C_9
REMARK    4  A    between atoms: C_9  and  C_10
REMARK    5  A    between atoms: C_14  and  C_15
REMARK                            x       y       z     vdW  Elec       q    Type
REMARK                         _______ _______ _______ _____ _____    ______ ____
ROOT
ATOM      1  N   UNL     1      43.794   4.755  10.022  0.00  0.00    +0.000 N 
ATOM      2  H   UNL     1      42.889   4.951   9.599  0.00  0.00    +0.000 HD
ENDROOT
BRANCH   1   6
ATOM      3  C   UNL     1      46.334   2.308   7.893  0.00  0.00    +0.000 A 
ATOM      4  N   UNL     1      45.513   1.693   8.777  0.00  0.00    +0.000 NA
ATOM      5  C   UNL     1      44.676   2.513   9.455  0.00  0.00    +0.000 A 
ATOM      6  C   UNL     1      44.584   3.886   9.281  0.00  0.00    +0.000 A 
ATOM      7  C   UNL     1      45.499   4.375   8.356  0.00  0.00    +0.000 A 
ATOM      8  N   UNL     1      46.369   3.628   7.646  0.00  0.00    +0.000 NA
BRANCH   3  10
ATOM      9  N   UNL     1      48.388   2.053   6.583  0.00  0.00    +0.000 N 
ATOM     10  C   UNL     1      47.292   1.421   7.127  0.00  0.00    +0.000 C 
ATOM     11  O   UNL     1      47.140   0.214   6.976  0.00  0.00    +0.000 OA
ATOM     12  H   UNL     1      49.060   1.505   6.065  0.00  0.00    +0.000 HD
ATOM     13  H   UNL     1      48.519   3.050   6.710  0.00  0.00    +0.000 HD
ENDBRANCH   3  10
ENDBRANCH   1   6
BRANCH   1  14
ATOM     14  C   UNL     1      43.766   4.718  11.476  0.00  0.00    +0.000 C 
BRANCH  14  15
ATOM     15  C   UNL     1      45.076   5.245  12.015  0.00  0.00    +0.000 A 
ATOM     16  C   UNL     1      45.674   6.375  11.442  0.00  0.00    +0.000 A 
ATOM     17  C   UNL     1      46.879   6.863  11.942  0.00  0.00    +0.000 A 
ATOM     18  C   UNL     1      47.477   6.252  13.045  0.00  0.00    +0.000 A 
ATOM     19  C   UNL     1      46.880   5.150  13.685  0.00  0.00    +0.000 A 
ATOM     20  C   UNL     1      45.688   4.644  13.132  0.00  0.00    +0.000 A 
BRANCH  19  21
ATOM     21  C   UNL     1      47.463   4.577  14.913  0.00  0.00    +0.000 A 
ATOM     22  C   UNL     1      47.906   5.366  15.974  0.00  0.00    +0.000 A 
ATOM     23  N   UNL     1      48.443   4.868  17.116  0.00  0.00    +0.000 NA
ATOM     24  C   UNL     1      48.520   3.523  17.167  0.00  0.00    +0.000 A 
ATOM     25  C   UNL     1      48.074   2.719  16.133  0.00  0.00    +0.000 A 
ATOM     26  N   UNL     1      47.533   3.219  14.993  0.00  0.00    +0.000 NA
ENDBRANCH  19  21
ENDBRANCH  14  15
ENDBRANCH   1  14
TORSDOF 5
ENDMDL
MODEL 2
REMARK VINA RESULT:    -8.072      2.346      3.685
REMARK INTER + INTRA:         -10.988
REMARK INTER:                 -10.284
REMARK INTRA:                  -0.704
REMARK UNBOUND:                -0.557
REMARK  Name = 
REMARK  5 active torsions:
REMARK  status: ('A' for Active; 'I' for Inactive)
REMARK    1  A    between atoms: C_2  and  C_4
REMARK    2  A    between atoms: C_7  and  N_8
REMARK    3  A    between atoms: N_8  and  C_9
REMARK    4  A    between atoms: C_9  and  C_10
REMARK    5  A    between atoms: C_14  and  C_15
REMARK                            x       y       z     vdW  Elec       q    Type
REMARK                         _______ _______ _______ _____ _____    ______ ____
ROOT
ATOM      1  N   UNL     1      43.783   4.769   9.967  0.00  0.00    +0.000 N 
ATOM      2  H   UNL     1      42.915   5.038   9.507  0.00  0.00    +0.000 HD
ENDROOT
BRANCH   1   6
ATOM      3  C   UNL     1      46.446   2.578   7.714  0.00  0.00    +0.000 A 
ATOM      4  N   UNL     1      45.626   1.869   8.525  0.00  0.00    +0.000 NA
ATOM      5  C   UNL     1      44.748   2.607   9.245  0.00  0.00    +0.000 A 
ATOM      6  C   UNL     1      44.616   3.986   9.180  0.00  0.00    +0.000 A 
ATOM      7  C   UNL     1      45.536   4.576   8.320  0.00  0.00    +0.000 A 
ATOM      8  N   UNL     1      46.446   3.914   7.574  0.00  0.00    +0.000 NA
BRANCH   3  10
ATOM      9  N   UNL     1      48.524   2.497   6.420  0.00  0.00    +0.000 N 
ATOM     10  C   UNL     1      47.449   1.785   6.903  0.00  0.00    +0.000 C 
ATOM     11  O   UNL     1      47.349   0.586   6.670  0.00  0.00    +0.000 OA
ATOM     12  H   UNL     1      49.224   2.013   5.876  0.00  0.00    +0.000 HD
ATOM     13  H   UNL     1      48.612   3.487   6.615  0.00  0.00    +0.000 HD
ENDBRANCH   3  10
ENDBRANCH   1   6
BRANCH   1  14
ATOM     14  C   UNL     1      43.642   4.541  11.397  0.00  0.00    +0.000 C 
BRANCH  14  15
ATOM     15  C   UNL     1      44.920   4.945  12.097  0.00  0.00    +0.000 A 
ATOM     16  C   UNL     1      45.590   4.038  12.926  0.00  0.00    +0.000 A 
ATOM     17  C   UNL     1      46.769   4.410  13.568  0.00  0.00    +0.000 A 
ATOM     18  C   UNL     1      47.311   5.677  13.354  0.00  0.00    +0.000 A 
ATOM     19  C   UNL     1      46.699   6.599  12.484  0.00  0.00    +0.000 A 
ATOM     20  C   UNL     1      45.483   6.219  11.886  0.00  0.00    +0.000 A 
BRANCH  19  21
ATOM     21  C   UNL     1      47.334   7.896  12.182  0.00  0.00    +0.000 A 
ATOM     22  C   UNL     1      48.659   8.004  11.758  0.00  0.00    +0.000 A 
ATOM     23  N   UNL     1      49.268   9.182  11.470  0.00  0.00    +0.000 NA
ATOM     24  C   UNL     1      48.490  10.273  11.617  0.00  0.00    +0.000 A 
ATOM     25  C   UNL     1      47.170  10.190  12.022  0.00  0.00    +0.000 A 
ATOM     26  N   UNL     1      46.561   9.011  12.306  0.00  0.00    +0.000 NA
ENDBRANCH  19  21
ENDBRANCH  14  15
ENDBRANCH   1  14
TORSDOF 5
ENDMDL
MODEL 3
REMARK VINA RESULT:    -7.495      2.674      7.392
REMARK INTER + INTRA:         -10.243
REMARK INTER:                  -9.955
REMARK INTRA:                  -0.288
REMARK UNBOUND:                -0.557
REMARK  Name = 
REMARK  5 active torsions:
REMARK  status: ('A' for Active; 'I' for Inactive)
REMARK    1  A    between atoms: C_2  and  C_4
REMARK    2  A    between atoms: C_7  and  N_8
REMARK    3  A    between atoms: N_8  and  C_9
REMARK    4  A    between atoms: C_9  and  C_10
REMARK    5  A    between atoms: C_14  and  C_15
REMARK                            x       y       z     vdW  Elec       q    Type
REMARK                         _______ _______ _______ _____ _____    ______ ____
ROOT
ATOM      1  N   UNL     1      47.290   6.743  12.620  0.00  0.00    +0.000 N 
ATOM      2  H   UNL     1      47.862   6.363  11.868  0.00  0.00    +0.000 HD
ENDROOT
BRANCH   1   6
ATOM      3  C   UNL     1      47.517   4.371  15.981  0.00  0.00    +0.000 A 
ATOM      4  N   UNL     1      48.337   5.448  15.953  0.00  0.00    +0.000 NA
ATOM      5  C   UNL     1      48.237   6.222  14.847  0.00  0.00    +0.000 A 
ATOM      6  C   UNL     1      47.354   6.012  13.798  0.00  0.00    +0.000 A 
ATOM      7  C   UNL     1      46.590   4.861  13.958  0.00  0.00    +0.000 A 
ATOM      8  N   UNL     1      46.636   4.034  15.024  0.00  0.00    +0.000 NA
BRANCH   3  10
ATOM      9  N   UNL     1      48.804   3.527  17.885  0.00  0.00    +0.000 N 
ATOM     10  C   UNL     1      47.613   3.477  17.198  0.00  0.00    +0.000 C 
ATOM     11  O   UNL     1      46.711   2.739  17.581  0.00  0.00    +0.000 OA
ATOM     12  H   UNL     1      48.918   2.952  18.707  0.00  0.00    +0.000 HD
ATOM     13  H   UNL     1      49.549   4.139  17.574  0.00  0.00    +0.000 HD
ENDBRANCH   3  10
ENDBRANCH   1   6
BRANCH   1  14
ATOM     14  C   UNL     1      46.053   7.356  12.162  0.00  0.00    +0.000 C 
BRANCH  14  15
ATOM     15  C   UNL     1      45.218   6.322  11.443  0.00  0.00    +0.000 A 
ATOM     16  C   UNL     1      43.835   6.255  11.656  0.00  0.00    +0.000 A 
ATOM     17  C   UNL     1      43.066   5.304  10.990  0.00  0.00    +0.000 A 
ATOM     18  C   UNL     1      43.664   4.437  10.074  0.00  0.00    +0.000 A 
ATOM     19  C   UNL     1      45.041   4.509   9.789  0.00  0.00    +0.000 A 
ATOM     20  C   UNL     1      45.806   5.445  10.510  0.00  0.00    +0.000 A 
BRANCH  19  21
ATOM     21  C   UNL     1      45.645   3.662   8.743  0.00  0.00    +0.000 A 
ATOM     22  C   UNL     1      45.670   2.270   8.823  0.00  0.00    +0.000 A 
ATOM     23  N   UNL     1      46.216   1.466   7.876  0.00  0.00    +0.000 NA
ATOM     24  C   UNL     1      46.742   2.114   6.818  0.00  0.00    +0.000 A 
ATOM     25  C   UNL     1      46.717   3.494   6.709  0.00  0.00    +0.000 A 
ATOM     26  N   UNL     1      46.167   4.295   7.656  0.00  0.00    +0.000 NA
ENDBRANCH  19  21
ENDBRANCH  14  15
ENDBRANCH   1  14
TORSDOF 5
ENDMDL
MODEL 4
REMARK VINA RESULT:    -7.153      3.340      7.069
REMARK INTER + INTRA:          -9.801
REMARK INTER:                  -9.130
REMARK INTRA:                  -0.671
REMARK UNBOUND:                -0.557
REMARK  Name = 
REMARK  5 active torsions:
REMARK  status: ('A' for Active; 'I' for Inactive)
REMARK    1  A    between atoms: C_2  and  C_4
REMARK    2  A    between atoms: C_7  and  N_8
REMARK    3  A    between atoms: N_8  and  C_9
REMARK    4  A    between atoms: C_9  and  C_10
REMARK    5  A    between atoms: C_14  and  C_15
REMARK                            x       y       z     vdW  Elec       q    Type
REMARK                         _______ _______ _______ _____ _____    ______ ____
ROOT
ATOM      1  N   UNL     1      44.584   6.833  12.703  0.00  0.00    +0.000 N 
ATOM      2  H   UNL     1      44.039   7.358  13.385  0.00  0.00    +0.000 HD
ENDROOT
BRANCH   1   6
ATOM      3  C   UNL     1      48.659   7.439  12.690  0.00  0.00    +0.000 A 
ATOM      4  N   UNL     1      47.905   8.436  12.171  0.00  0.00    +0.000 NA
ATOM      5  C   UNL     1      46.568   8.224  12.198  0.00  0.00    +0.000 A 
ATOM      6  C   UNL     1      45.944   7.109  12.738  0.00  0.00    +0.000 A 
ATOM      7  C   UNL     1      46.845   6.165  13.216  0.00  0.00    +0.000 A 
ATOM      8  N   UNL     1      48.188   6.296  13.218  0.00  0.00    +0.000 NA
BRANCH   3  10
ATOM      9  N   UNL     1      50.777   7.369  11.463  0.00  0.00    +0.000 N 
ATOM     10  C   UNL     1      50.159   7.638  12.664  0.00  0.00    +0.000 C 
ATOM     11  O   UNL     1      50.819   8.013  13.626  0.00  0.00    +0.000 OA
ATOM     12  H   UNL     1      51.777   7.490  11.392  0.00  0.00    +0.000 HD
ATOM     13  H   UNL     1      50.233   7.063  10.665  0.00  0.00    +0.000 HD
ENDBRANCH   3  10
ENDBRANCH   1   6
BRANCH   1  14
ATOM     14  C   UNL     1      43.881   6.594  11.452  0.00  0.00    +0.000 C 
BRANCH  14  15
ATOM     15  C   UNL     1      43.996   5.132  11.085  0.00  0.00    +0.000 A 
ATOM     16  C   UNL     1      43.242   4.169  11.767  0.00  0.00    +0.000 A 
ATOM     17  C   UNL     1      43.347   2.823  11.427  0.00  0.00    +0.000 A 
ATOM     18  C   UNL     1      44.174   2.430  10.374  0.00  0.00    +0.000 A 
ATOM     19  C   UNL     1      44.905   3.372   9.626  0.00  0.00    +0.000 A 
ATOM     20  C   UNL     1      44.822   4.721  10.020  0.00  0.00    +0.000 A 
BRANCH  19  21
ATOM     21  C   UNL     1      45.693   2.961   8.448  0.00  0.00    +0.000 A 
ATOM     22  C   UNL     1      46.150   1.656   8.267  0.00  0.00    +0.000 A 
ATOM     23  N   UNL     1      46.874   1.249   7.194  0.00  0.00    +0.000 NA
ATOM     24  C   UNL     1      47.126   2.209   6.283  0.00  0.00    +0.000 A 
ATOM     25  C   UNL     1      46.671   3.508   6.434  0.00  0.00    +0.000 A 
ATOM     26  N   UNL     1      45.944   3.912   7.505  0.00  0.00    +0.000 NA
ENDBRANCH  19  21
ENDBRANCH  14  15
ENDBRANCH   1  14
TORSDOF 5
ENDMDL
MODEL 5
REMARK VINA RESULT:    -7.085      2.446      4.314
REMARK INTER + INTRA:          -9.713
REMARK INTER:                  -9.096
REMARK INTRA:                  -0.617
REMARK UNBOUND:                -0.557
REMARK  Name = 
REMARK  5 active torsions:
REMARK  status: ('A' for Active; 'I' for Inactive)
REMARK    1  A    between atoms: C_2  and  C_4
REMARK    2  A    between atoms: C_7  and  N_8
REMARK    3  A    between atoms: N_8  and  C_9
REMARK    4  A    between atoms: C_9  and  C_10
REMARK    5  A    between atoms: C_14  and  C_15
REMARK                            x       y       z     vdW  Elec       q    Type
REMARK                         _______ _______ _______ _____ _____    ______ ____
ROOT
ATOM      1  N   UNL     1      43.875   3.748  10.898  0.00  0.00    +0.000 N 
ATOM      2  H   UNL     1      42.870   3.613  10.807  0.00  0.00    +0.000 HD
ENDROOT
BRANCH   1   6
ATOM      3  C   UNL     1      46.189   2.861   7.607  0.00  0.00    +0.000 A 
ATOM      4  N   UNL     1      45.736   1.804   8.321  0.00  0.00    +0.000 NA
ATOM      5  C   UNL     1      44.965   2.116   9.389  0.00  0.00    +0.000 A 
ATOM      6  C   UNL     1      44.594   3.399   9.763  0.00  0.00    +0.000 A 
ATOM      7  C   UNL     1      45.149   4.380   8.948  0.00  0.00    +0.000 A 
ATOM      8  N   UNL     1      45.931   4.153   7.872  0.00  0.00    +0.000 NA
BRANCH   3  10
ATOM      9  N   UNL     1      47.899   1.461   6.551  0.00  0.00    +0.000 N 
ATOM     10  C   UNL     1      47.065   2.548   6.413  0.00  0.00    +0.000 C 
ATOM     11  O   UNL     1      47.063   3.195   5.371  0.00  0.00    +0.000 OA
ATOM     12  H   UNL     1      48.501   1.208   5.781  0.00  0.00    +0.000 HD
ATOM     13  H   UNL     1      47.899   0.922   7.409  0.00  0.00    +0.000 HD
ENDBRANCH   3  10
ENDBRANCH   1   6
BRANCH   1  14
ATOM     14  C   UNL     1      44.382   3.489  12.237  0.00  0.00    +0.000 C 
BRANCH  14  15
ATOM     15  C   UNL     1      45.274   4.632  12.665  0.00  0.00    +0.000 A 
ATOM     16  C   UNL     1      46.428   4.386  13.419  0.00  0.00    +0.000 A 
ATOM     17  C   UNL     1      47.251   5.439  13.810  0.00  0.00    +0.000 A 
ATOM     18  C   UNL     1      46.951   6.744  13.417  0.00  0.00    +0.000 A 
ATOM     19  C   UNL     1      45.831   7.027  12.612  0.00  0.00    +0.000 A 
ATOM     20  C   UNL     1      44.988   5.953  12.270  0.00  0.00    +0.000 A 
BRANCH  19  21
ATOM     21  C   UNL     1      45.581   8.393  12.112  0.00  0.00    +0.000 A 
ATOM     22  C   UNL     1      44.515   8.701  11.267  0.00  0.00    +0.000 A 
ATOM     23  N   UNL     1      44.259   9.947  10.795  0.00  0.00    +0.000 NA
ATOM     24  C   UNL     1      45.119  10.898  11.210  0.00  0.00    +0.000 A 
ATOM     25  C   UNL     1      46.175  10.619  12.060  0.00  0.00    +0.000 A 
ATOM     26  N   UNL     1      46.427   9.374  12.534  0.00  0.00    +0.000 NA
ENDBRANCH  19  21
ENDBRANCH  14  15
ENDBRANCH   1  14
TORSDOF 5
ENDMDL
MODEL 6
REMARK VINA RESULT:    -6.385      2.964      8.074
REMARK INTER + INTRA:          -8.808
REMARK INTER:                  -8.428
REMARK INTRA:                  -0.380
REMARK UNBOUND:                -0.557
REMARK  Name = 
REMARK  5 active torsions:
REMARK  status: ('A' for Active; 'I' for Inactive)
REMARK    1  A    between atoms: C_2  and  C_4
REMARK    2  A    between atoms: C_7  and  N_8
REMARK    3  A    between atoms: N_8  and  C_9
REMARK    4  A    between atoms: C_9  and  C_10
REMARK    5  A    between atoms: C_14  and  C_15
REMARK                            x       y       z     vdW  Elec       q    Type
REMARK                         _______ _______ _______ _____ _____    ______ ____
ROOT
ATOM      1  N   UNL     1      46.410   4.315  14.652  0.00  0.00    +0.000 N 
ATOM      2  H   UNL     1      45.627   3.710  14.893  0.00  0.00    +0.000 HD
ENDROOT
BRANCH   1   6
ATOM      3  C   UNL     1      49.519   4.153  17.350  0.00  0.00    +0.000 A 
ATOM      4  N   UNL     1      49.309   5.349  16.751  0.00  0.00    +0.000 NA
ATOM      5  C   UNL     1      48.274   5.385  15.879  0.00  0.00    +0.000 A 
ATOM      6  C   UNL     1      47.423   4.325  15.600  0.00  0.00    +0.000 A 
ATOM      7  C   UNL     1      47.773   3.161  16.275  0.00  0.00    +0.000 A 
ATOM      8  N   UNL     1      48.792   3.041  17.152  0.00  0.00    +0.000 NA
BRANCH   3  10
ATOM      9  N   UNL     1      50.374   4.342  19.637  0.00  0.00    +0.000 N 
ATOM     10  C   UNL     1      50.677   4.074  18.321  0.00  0.00    +0.000 C 
ATOM     11  O   UNL     1      51.826   3.792  17.998  0.00  0.00    +0.000 OA
ATOM     12  H   UNL     1      51.112   4.299  20.326  0.00  0.00    +0.000 HD
ATOM     13  H   UNL     1      49.425   4.571  19.908  0.00  0.00    +0.000 HD
ENDBRANCH   3  10
ENDBRANCH   1   6
BRANCH   1  14
ATOM     14  C   UNL     1      46.022   5.517  13.930  0.00  0.00    +0.000 C 
BRANCH  14  15
ATOM     15  C   UNL     1      45.113   5.140  12.783  0.00  0.00    +0.000 A 
ATOM     16  C   UNL     1      43.754   5.480  12.814  0.00  0.00    +0.000 A 
ATOM     17  C   UNL     1      42.918   5.136  11.755  0.00  0.00    +0.000 A 
ATOM     18  C   UNL     1      43.439   4.484  10.637  0.00  0.00    +0.000 A 
ATOM     19  C   UNL     1      44.808   4.174  10.541  0.00  0.00    +0.000 A 
ATOM     20  C   UNL     1      45.625   4.488  11.644  0.00  0.00    +0.000 A 
BRANCH  19  21
ATOM     21  C   UNL     1      45.369   3.582   9.311  0.00  0.00    +0.000 A 
ATOM     22  C   UNL     1      45.458   2.204   9.113  0.00  0.00    +0.000 A 
ATOM     23  N   UNL     1      45.966   1.632   7.992  0.00  0.00    +0.000 NA
ATOM     24  C   UNL     1      46.386   2.502   7.052  0.00  0.00    +0.000 A 
ATOM     25  C   UNL     1      46.295   3.872   7.220  0.00  0.00    +0.000 A 
ATOM     26  N   UNL     1      45.783   4.443   8.339  0.00  0.00    +0.000 NA
ENDBRANCH  19  21
ENDBRANCH  14  15
ENDBRANCH   1  14
TORSDOF 5
ENDMDL
MODEL 7
REMARK VINA RESULT:    -6.251      3.881      7.701
REMARK INTER + INTRA:          -8.635
REMARK INTER:                  -8.058
REMARK INTRA:                  -0.576
REMARK UNBOUND:                -0.557
REMARK  Name = 
REMARK  5 active torsions:
REMARK  status: ('A' for Active; 'I' for Inactive)
REMARK    1  A    between atoms: C_2  and  C_4
REMARK    2  A    between atoms: C_7  and  N_8
REMARK    3  A    between atoms: N_8  and  C_9
REMARK    4  A    between atoms: C_9  and  C_10
REMARK    5  A    between atoms: C_14  and  C_15
REMARK                            x       y       z     vdW  Elec       q    Type
REMARK                         _______ _______ _______ _____ _____    ______ ____
ROOT
ATOM      1  N   UNL     1      48.116   5.911  16.221  0.00  0.00    +0.000 N 
ATOM      2  H   UNL     1      47.353   6.092  16.870  0.00  0.00    +0.000 HD
ENDROOT
BRANCH   1   6
ATOM      3  C   UNL     1      50.796   3.001  17.370  0.00  0.00    +0.000 A 
ATOM      4  N   UNL     1      51.253   4.275  17.390  0.00  0.00    +0.000 NA
ATOM      5  C   UNL     1      50.353   5.217  17.023  0.00  0.00    +0.000 A 
ATOM      6  C   UNL     1      49.032   4.973  16.678  0.00  0.00    +0.000 A 
ATOM      7  C   UNL     1      48.714   3.620  16.686  0.00  0.00    +0.000 A 
ATOM      8  N   UNL     1      49.553   2.621  17.031  0.00  0.00    +0.000 NA
BRANCH   3  10
ATOM      9  N   UNL     1      51.294   0.633  17.750  0.00  0.00    +0.000 N 
ATOM     10  C   UNL     1      51.781   1.921  17.762  0.00  0.00    +0.000 C 
ATOM     11  O   UNL     1      52.947   2.136  18.076  0.00  0.00    +0.000 OA
ATOM     12  H   UNL     1      51.913  -0.125  18.000  0.00  0.00    +0.000 HD
ATOM     13  H   UNL     1      50.333   0.452  17.486  0.00  0.00    +0.000 HD
ENDBRANCH   3  10
ENDBRANCH   1   6
BRANCH   1  14
ATOM     14  C   UNL     1      48.530   7.081  15.461  0.00  0.00    +0.000 C 
BRANCH  14  15
ATOM     15  C   UNL     1      48.021   6.963  14.043  0.00  0.00    +0.000 A 
ATOM     16  C   UNL     1      48.676   7.626  12.998  0.00  0.00    +0.000 A 
ATOM     17  C   UNL     1      48.208   7.515  11.691  0.00  0.00    +0.000 A 
ATOM     18  C   UNL     1      47.106   6.707  11.410  0.00  0.00    +0.000 A 
ATOM     19  C   UNL     1      46.453   5.979  12.423  0.00  0.00    +0.000 A 
ATOM     20  C   UNL     1      46.913   6.146  13.743  0.00  0.00    +0.000 A 
BRANCH  19  21
ATOM     21  C   UNL     1      45.357   5.046  12.102  0.00  0.00    +0.000 A 
ATOM     22  C   UNL     1      45.118   3.884  12.836  0.00  0.00    +0.000 A 
ATOM     23  N   UNL     1      44.117   3.009  12.566  0.00  0.00    +0.000 NA
ATOM     24  C   UNL     1      43.339   3.345  11.517  0.00  0.00    +0.000 A 
ATOM     25  C   UNL     1      43.547   4.499  10.782  0.00  0.00    +0.000 A 
ATOM     26  N   UNL     1      44.547   5.374  11.057  0.00  0.00    +0.000 NA
ENDBRANCH  19  21
ENDBRANCH  14  15
ENDBRANCH   1  14
TORSDOF 5
ENDMDL
MODEL 8
REMARK VINA RESULT:    -6.215      2.870      7.371
REMARK INTER + INTRA:          -8.589
REMARK INTER:                  -8.427
REMARK INTRA:                  -0.162
REMARK UNBOUND:                -0.557
REMARK  Name = 
REMARK  5 active torsions:
REMARK  status: ('A' for Active; 'I' for Inactive)
REMARK    1  A    between atoms: C_2  and  C_4
REMARK    2  A    between atoms: C_7  and  N_8
REMARK    3  A    between atoms: N_8  and  C_9
REMARK    4  A    between atoms: C_9  and  C_10
REMARK    5  A    between atoms: C_14  and  C_15
REMARK                            x       y       z     vdW  Elec       q    Type
REMARK                         _______ _______ _______ _____ _____    ______ ____
ROOT
ATOM      1  N   UNL     1      48.919   6.981  13.151  0.00  0.00    +0.000 N 
ATOM      2  H   UNL     1      49.266   6.379  12.407  0.00  0.00    +0.000 HD
ENDROOT
BRANCH   1   6
ATOM      3  C   UNL     1      47.704   4.731  16.380  0.00  0.00    +0.000 A 
ATOM      4  N   UNL     1      48.434   5.835  16.663  0.00  0.00    +0.000 NA
ATOM      5  C   UNL     1      48.810   6.569  15.589  0.00  0.00    +0.000 A 
ATOM      6  C   UNL     1      48.477   6.292  14.271  0.00  0.00    +0.000 A 
ATOM      7  C   UNL     1      47.742   5.120  14.136  0.00  0.00    +0.000 A 
ATOM      8  N   UNL     1      47.334   4.330  15.152  0.00  0.00    +0.000 NA
BRANCH   3  10
ATOM      9  N   UNL     1      47.824   4.223  18.773  0.00  0.00    +0.000 N 
ATOM     10  C   UNL     1      47.277   3.880  17.557  0.00  0.00    +0.000 C 
ATOM     11  O   UNL     1      46.497   2.938  17.476  0.00  0.00    +0.000 OA
ATOM     12  H   UNL     1      47.569   3.689  19.591  0.00  0.00    +0.000 HD
ATOM     13  H   UNL     1      48.466   5.004  18.843  0.00  0.00    +0.000 HD
ENDBRANCH   3  10
ENDBRANCH   1   6
BRANCH   1  14
ATOM     14  C   UNL     1      48.245   8.178  12.670  0.00  0.00    +0.000 C 
BRANCH  14  15
ATOM     15  C   UNL     1      46.877   7.805  12.146  0.00  0.00    +0.000 A 
ATOM     16  C   UNL     1      45.793   8.676  12.312  0.00  0.00    +0.000 A 
ATOM     17  C   UNL     1      44.534   8.334  11.826  0.00  0.00    +0.000 A 
ATOM     18  C   UNL     1      44.354   7.136  11.134  0.00  0.00    +0.000 A 
ATOM     19  C   UNL     1      45.428   6.259  10.896  0.00  0.00    +0.000 A 
ATOM     20  C   UNL     1      46.681   6.602  11.439  0.00  0.00    +0.000 A 
BRANCH  19  21
ATOM     21  C   UNL     1      45.252   5.047  10.072  0.00  0.00    +0.000 A 
ATOM     22  C   UNL     1      44.531   3.937  10.512  0.00  0.00    +0.000 A 
ATOM     23  N   UNL     1      44.351   2.812   9.775  0.00  0.00    +0.000 NA
ATOM     24  C   UNL     1      44.922   2.835   8.555  0.00  0.00    +0.000 A 
ATOM     25  C   UNL     1      45.629   3.930   8.091  0.00  0.00    +0.000 A 
ATOM     26  N   UNL     1      45.805   5.056   8.827  0.00  0.00    +0.000 NA
ENDBRANCH  19  21
ENDBRANCH  14  15
ENDBRANCH   1  14
TORSDOF 5
ENDMDL
MODEL 9
REMARK VINA RESULT:    -6.046      2.620      4.355
REMARK INTER + INTRA:          -8.370
REMARK INTER:                  -7.850
REMARK INTRA:                  -0.520
REMARK UNBOUND:                -0.557
REMARK  Name = 
REMARK  5 active torsions:
REMARK  status: ('A' for Active; 'I' for Inactive)
REMARK    1  A    between atoms: C_2  and  C_4
REMARK    2  A    between atoms: C_7  and  N_8
REMARK    3  A    between atoms: N_8  and  C_9
REMARK    4  A    between atoms: C_9  and  C_10
REMARK    5  A    between atoms: C_14  and  C_15
REMARK                            x       y       z     vdW  Elec       q    Type
REMARK                         _______ _______ _______ _____ _____    ______ ____
ROOT
ATOM      1  N   UNL     1      46.212   8.034  13.267  0.00  0.00    +0.000 N 
ATOM      2  H   UNL     1      45.811   8.080  14.202  0.00  0.00    +0.000 HD
ENDROOT
BRANCH   1   6
ATOM      3  C   UNL     1      44.636   4.949  11.037  0.00  0.00    +0.000 A 
ATOM      4  N   UNL     1      45.709   5.583  10.506  0.00  0.00    +0.000 NA
ATOM      5  C   UNL     1      46.220   6.583  11.261  0.00  0.00    +0.000 A 
ATOM      6  C   UNL     1      45.757   6.961  12.513  0.00  0.00    +0.000 A 
ATOM      7  C   UNL     1      44.643   6.234  12.917  0.00  0.00    +0.000 A 
ATOM      8  N   UNL     1      44.069   5.229  12.222  0.00  0.00    +0.000 NA
BRANCH   3  10
ATOM      9  N   UNL     1      44.175   3.951   8.848  0.00  0.00    +0.000 N 
ATOM     10  C   UNL     1      44.031   3.833  10.213  0.00  0.00    +0.000 C 
ATOM     11  O   UNL     1      43.443   2.868  10.689  0.00  0.00    +0.000 OA
ATOM     12  H   UNL     1      43.792   3.231   8.253  0.00  0.00    +0.000 HD
ATOM     13  H   UNL     1      44.665   4.745   8.452  0.00  0.00    +0.000 HD
ENDBRANCH   3  10
ENDBRANCH   1   6
BRANCH   1  14
ATOM     14  C   UNL     1      47.591   8.491  13.197  0.00  0.00    +0.000 C 
BRANCH  14  15
ATOM     15  C   UNL     1      48.339   8.012  14.419  0.00  0.00    +0.000 A 
ATOM     16  C   UNL     1      49.210   8.873  15.099  0.00  0.00    +0.000 A 
ATOM     17  C   UNL     1      49.898   8.432  16.227  0.00  0.00    +0.000 A 
ATOM     18  C   UNL     1      49.690   7.140  16.711  0.00  0.00    +0.000 A 
ATOM     19  C   UNL     1      48.781   6.263  16.091  0.00  0.00    +0.000 A 
ATOM     20  C   UNL     1      48.135   6.713  14.924  0.00  0.00    +0.000 A 
BRANCH  19  21
ATOM     21  C   UNL     1      48.488   4.938  16.671  0.00  0.00    +0.000 A 
ATOM     22  C   UNL     1      47.188   4.459  16.834  0.00  0.00    +0.000 A 
ATOM     23  N   UNL     1      46.890   3.244  17.361  0.00  0.00    +0.000 NA
ATOM     24  C   UNL     1      47.957   2.505  17.722  0.00  0.00    +0.000 A 
ATOM     25  C   UNL     1      49.256   2.953  17.556  0.00  0.00    +0.000 A 
ATOM     26  N   UNL     1      49.553   4.165  17.026  0.00  0.00    +0.000 NA
ENDBRANCH  19  21
ENDBRANCH  14  15
ENDBRANCH   1  14
TORSDOF 5
ENDMDL
