MODEL 1
REMARK VINA RESULT:    -8.108      0.000      0.000
REMARK INTER + INTRA:         -10.496
REMARK INTER:                 -10.003
REMARK INTRA:                  -0.493
REMARK UNBOUND:                -0.493
REMARK  Name = 
REMARK  5 active torsions:
REMARK  status: ('A' for Active; 'I' for Inactive)
REMARK    1  A    between atoms: C_1  and  C_2
REMARK    2  A    between atoms: C_2  and  C_3
REMARK    3  A    between atoms: C_2  and  C_14
REMARK    4  A    between atoms: C_3  and  N_4
REMARK    5  A    between atoms: C_8  and  C_9
REMARK                            x       y       z     vdW  Elec       q    Type
REMARK                         _______ _______ _______ _____ _____    ______ ____
ROOT
ATOM      1  N   UNL     1      43.817   4.648   9.696  0.00  0.00    +0.000 N 
ATOM      2  C   UNL     1      44.774   3.950   8.960  0.00  0.00    +0.000 A 
ATOM      3  N   UNL     1      44.864   2.616   9.085  0.00  0.00    +0.000 NA
ATOM      4  C   UNL     1      45.839   1.986   8.397  0.00  0.00    +0.000 A 
ATOM      5  C   UNL     1      46.718   2.636   7.569  0.00  0.00    +0.000 A 
ATOM      6  C   UNL     1      46.551   3.999   7.502  0.00  0.00    +0.000 A 
ATOM      7  N   UNL     1      45.594   4.674   8.184  0.00  0.00    +0.000 NA
ATOM      8  H   UNL     1      44.149   5.602   9.744  0.00  0.00    +0.000 HD
ENDROOT
BRANCH   5   9
ATOM      9  C   UNL     1      47.765   1.873   6.877  0.00  0.00    +0.000 C 
ATOM     10  N   UNL     1      48.703   2.561   6.161  0.00  0.00    +0.000 N 
ATOM     11  O   UNL     1      47.777   0.649   6.913  0.00  0.00    +0.000 OA
ATOM     12  H   UNL     1      48.609   3.531   5.896  0.00  0.00    +0.000 HD
ATOM     13  H   UNL     1      49.340   1.994   5.612  0.00  0.00    +0.000 HD
ENDBRANCH   5   9
BRANCH   1  14
ATOM     14  C   UNL     1      43.542   4.007  10.965  0.00  0.00    +0.000 C 
BRANCH  14  16
ATOM     15  C   UNL     1      42.214   6.051  11.817  0.00  0.00    +0.000 C 
ATOM     16  C   UNL     1      43.295   5.032  12.042  0.00  0.00    +0.000 C 
BRANCH  16  17
ATOM     17  C   UNL     1      44.531   5.436  12.843  0.00  0.00    +0.000 C 
ATOM     18  C   UNL     1      45.194   6.733  12.341  0.00  0.00    +0.000 C 
ATOM     19  C   UNL     1      46.496   7.046  13.077  0.00  0.00    +0.000 C 
ATOM     20  C   UNL     1      47.459   5.865  13.030  0.00  0.00    +0.000 C 
ATOM     21  C   UNL     1      46.819   4.623  13.635  0.00  0.00    +0.000 C 
ATOM     22  C   UNL     1      45.526   4.262  12.910  0.00  0.00    +0.000 C 
ENDBRANCH  16  17
ENDBRANCH  14  16
ENDBRANCH   1  14
TORSDOF 4
ENDMDL
MODEL 2
REMARK VINA RESULT:    -7.809      1.386      2.228
REMARK INTER + INTRA:         -10.127
REMARK INTER:                  -9.708
REMARK INTRA:                  -0.419
REMARK UNBOUND:                -0.493
REMARK  Name = 
REMARK  5 active torsions:
REMARK  status: ('A' for Active; 'I' for Inactive)
REMARK    1  A    between atoms: C_1  and  C_2
REMARK    2  A    between atoms: C_2  and  C_3
REMARK    3  A    between atoms: C_2  and  C_14
REMARK    4  A    between atoms: C_3  and  N_4
REMARK    5  A    between atoms: C_8  and  C_9
REMARK                            x       y       z     vdW  Elec       q    Type
REMARK                         _______ _______ _______ _____ _____    ______ ____
ROOT
ATOM      1  N   UNL     1      44.172   5.096   9.746  0.00  0.00    +0.000 N 
ATOM      2  C   UNL     1      44.865   4.070   9.105  0.00  0.00    +0.000 A 
ATOM      3  N   UNL     1      44.762   2.811   9.564  0.00  0.00    +0.000 NA
ATOM      4  C   UNL     1      45.491   1.857   8.949  0.00  0.00    +0.000 A 
ATOM      5  C   UNL     1      46.307   2.107   7.875  0.00  0.00    +0.000 A 
ATOM      6  C   UNL     1      46.350   3.422   7.473  0.00  0.00    +0.000 A 
ATOM      7  N   UNL     1      45.645   4.414   8.069  0.00  0.00    +0.000 NA
ATOM      8  H   UNL     1      44.656   5.949   9.499  0.00  0.00    +0.000 HD
ENDROOT
BRANCH   5   9
ATOM      9  C   UNL     1      47.084   1.011   7.282  0.00  0.00    +0.000 C 
ATOM     10  N   UNL     1      46.796  -0.269   7.662  0.00  0.00    +0.000 N 
ATOM     11  O   UNL     1      47.993   1.242   6.494  0.00  0.00    +0.000 OA
ATOM     12  H   UNL     1      46.238  -0.504   8.470  0.00  0.00    +0.000 HD
ATOM     13  H   UNL     1      47.425  -0.983   7.313  0.00  0.00    +0.000 HD
ENDBRANCH   5   9
BRANCH   1  14
ATOM     14  C   UNL     1      44.022   4.839  11.163  0.00  0.00    +0.000 C 
BRANCH  14  16
ATOM     15  C   UNL     1      45.544   4.366  13.194  0.00  0.00    +0.000 C 
ATOM     16  C   UNL     1      45.316   5.084  11.894  0.00  0.00    +0.000 C 
BRANCH  16  17
ATOM     17  C   UNL     1      45.902   6.484  11.715  0.00  0.00    +0.000 C 
ATOM     18  C   UNL     1      47.395   6.579  12.082  0.00  0.00    +0.000 C 
ATOM     19  C   UNL     1      47.922   8.012  12.015  0.00  0.00    +0.000 C 
ATOM     20  C   UNL     1      47.073   8.957  12.856  0.00  0.00    +0.000 C 
ATOM     21  C   UNL     1      45.620   8.928  12.399  0.00  0.00    +0.000 C 
ATOM     22  C   UNL     1      45.048   7.517  12.476  0.00  0.00    +0.000 C 
ENDBRANCH  16  17
ENDBRANCH  14  16
ENDBRANCH   1  14
TORSDOF 4
ENDMDL
MODEL 3
REMARK VINA RESULT:    -6.920      1.196      2.064
REMARK INTER + INTRA:          -9.031
REMARK INTER:                  -8.558
REMARK INTRA:                  -0.473
REMARK UNBOUND:                -0.493
REMARK  Name = 
REMARK  5 active torsions:
REMARK  status: ('A' for Active; 'I' for Inactive)
REMARK    1  A    between atoms: C_1  and  C_2
REMARK    2  A    between atoms: C_2  and  C_3
REMARK    3  A    between atoms: C_2  and  C_14
REMARK    4  A    between atoms: C_3  and  N_4
REMARK    5  A    between atoms: C_8  and  C_9
REMARK                            x       y       z     vdW  Elec       q    Type
REMARK                         _______ _______ _______ _____ _____    ______ ____
ROOT
ATOM      1  N   UNL     1      44.325   3.235  10.402  0.00  0.00    +0.000 N 
ATOM      2  C   UNL     1      45.185   3.020   9.326  0.00  0.00    +0.000 A 
ATOM      3  N   UNL     1      45.631   4.067   8.612  0.00  0.00    +0.000 NA
ATOM      4  C   UNL     1      46.417   3.811   7.546  0.00  0.00    +0.000 A 
ATOM      5  C   UNL     1      46.796   2.546   7.175  0.00  0.00    +0.000 A 
ATOM      6  C   UNL     1      46.294   1.536   7.962  0.00  0.00    +0.000 A 
ATOM      7  N   UNL     1      45.492   1.746   9.034  0.00  0.00    +0.000 NA
ATOM      8  H   UNL     1      43.842   2.358  10.547  0.00  0.00    +0.000 HD
ENDROOT
BRANCH   5   9
ATOM      9  C   UNL     1      47.634   2.358   5.984  0.00  0.00    +0.000 C 
ATOM     10  N   UNL     1      47.433   3.181   4.913  0.00  0.00    +0.000 N 
ATOM     11  O   UNL     1      48.469   1.463   5.940  0.00  0.00    +0.000 OA
ATOM     12  H   UNL     1      46.617   3.764   4.796  0.00  0.00    +0.000 HD
ATOM     13  H   UNL     1      47.956   2.949   4.075  0.00  0.00    +0.000 HD
ENDBRANCH   5   9
BRANCH   1  14
ATOM     14  C   UNL     1      43.484   4.395  10.194  0.00  0.00    +0.000 C 
BRANCH  14  16
ATOM     15  C   UNL     1      42.310   5.891  11.941  0.00  0.00    +0.000 C 
ATOM     16  C   UNL     1      43.584   5.347  11.358  0.00  0.00    +0.000 C 
BRANCH  16  17
ATOM     17  C   UNL     1      44.830   6.230  11.362  0.00  0.00    +0.000 C 
ATOM     18  C   UNL     1      45.970   5.683  12.241  0.00  0.00    +0.000 C 
ATOM     19  C   UNL     1      47.154   6.646  12.327  0.00  0.00    +0.000 C 
ATOM     20  C   UNL     1      46.711   8.034  12.775  0.00  0.00    +0.000 C 
ATOM     21  C   UNL     1      45.664   8.599  11.825  0.00  0.00    +0.000 C 
ATOM     22  C   UNL     1      44.452   7.677  11.731  0.00  0.00    +0.000 C 
ENDBRANCH  16  17
ENDBRANCH  14  16
ENDBRANCH   1  14
TORSDOF 4
ENDMDL
MODEL 4
REMARK VINA RESULT:    -6.817      3.117      6.195
REMARK INTER + INTRA:          -8.904
REMARK INTER:                  -8.444
REMARK INTRA:                  -0.460
REMARK UNBOUND:                -0.493
REMARK  Name = 
REMARK  5 active torsions:
REMARK  status: ('A' for Active; 'I' for Inactive)
REMARK    1  A    between atoms: C_1  and  C_2
REMARK    2  A    between atoms: C_2  and  C_3
REMARK    3  A    between atoms: C_2  and  C_14
REMARK    4  A    between atoms: C_3  and  N_4
REMARK    5  A    between atoms: C_8  and  C_9
REMARK                            x       y       z     vdW  Elec       q    Type
REMARK                         _______ _______ _______ _____ _____    ______ ____
ROOT
ATOM      1  N   UNL     1      43.974   4.837  10.922  0.00  0.00    +0.000 N 
ATOM      2  C   UNL     1      45.045   5.361  11.646  0.00  0.00    +0.000 A 
ATOM      3  N   UNL     1      45.957   6.126  11.023  0.00  0.00    +0.000 NA
ATOM      4  C   UNL     1      47.006   6.567  11.747  0.00  0.00    +0.000 A 
ATOM      5  C   UNL     1      47.171   6.291  13.081  0.00  0.00    +0.000 A 
ATOM      6  C   UNL     1      46.190   5.503  13.635  0.00  0.00    +0.000 A 
ATOM      7  N   UNL     1      45.126   5.028  12.943  0.00  0.00    +0.000 NA
ATOM      8  H   UNL     1      43.648   4.040  11.452  0.00  0.00    +0.000 HD
ENDROOT
BRANCH   5   9
ATOM      9  C   UNL     1      48.358   6.792  13.786  0.00  0.00    +0.000 C 
ATOM     10  N   UNL     1      48.921   7.960  13.358  0.00  0.00    +0.000 N 
ATOM     11  O   UNL     1      48.851   6.160  14.712  0.00  0.00    +0.000 OA
ATOM     12  H   UNL     1      48.715   8.392  12.468  0.00  0.00    +0.000 HD
ATOM     13  H   UNL     1      49.798   8.213  13.799  0.00  0.00    +0.000 HD
ENDBRANCH   5   9
BRANCH   1  14
ATOM     14  C   UNL     1      44.333   4.579   9.543  0.00  0.00    +0.000 C 
BRANCH  14  16
ATOM     15  C   UNL     1      44.171   2.153  10.411  0.00  0.00    +0.000 C 
ATOM     16  C   UNL     1      44.336   3.100   9.256  0.00  0.00    +0.000 C 
BRANCH  16  17
ATOM     17  C   UNL     1      45.208   2.675   8.076  0.00  0.00    +0.000 C 
ATOM     18  C   UNL     1      46.062   1.424   8.359  0.00  0.00    +0.000 C 
ATOM     19  C   UNL     1      47.014   1.096   7.209  0.00  0.00    +0.000 C 
ATOM     20  C   UNL     1      47.877   2.298   6.842  0.00  0.00    +0.000 C 
ATOM     21  C   UNL     1      47.008   3.488   6.458  0.00  0.00    +0.000 C 
ATOM     22  C   UNL     1      46.059   3.864   7.591  0.00  0.00    +0.000 C 
ENDBRANCH  16  17
ENDBRANCH  14  16
ENDBRANCH   1  14
TORSDOF 4
ENDMDL
MODEL 5
REMARK VINA RESULT:    -6.573      4.941      7.309
REMARK INTER + INTRA:          -8.603
REMARK INTER:                  -8.242
REMARK INTRA:                  -0.362
REMARK UNBOUND:                -0.493
REMARK  Name = 
REMARK  5 active torsions:
REMARK  status: ('A' for Active; 'I' for Inactive)
REMARK    1  A    between atoms: C_1  and  C_2
REMARK    2  A    between atoms: C_2  and  C_3
REMARK    3  A    between atoms: C_2  and  C_14
REMARK    4  A    between atoms: C_3  and  N_4
REMARK    5  A    between atoms: C_8  and  C_9
REMARK                            x       y       z     vdW  Elec       q    Type
REMARK                         _______ _______ _______ _____ _____    ______ ____
ROOT
ATOM      1  N   UNL     1      46.602   5.101  13.459  0.00  0.00    +0.000 N 
ATOM      2  C   UNL     1      47.238   4.805  14.664  0.00  0.00    +0.000 A 
ATOM      3  N   UNL     1      46.964   3.651  15.294  0.00  0.00    +0.000 NA
ATOM      4  C   UNL     1      47.560   3.428  16.483  0.00  0.00    +0.000 A 
ATOM      5  C   UNL     1      48.439   4.307  17.062  0.00  0.00    +0.000 A 
ATOM      6  C   UNL     1      48.661   5.461  16.347  0.00  0.00    +0.000 A 
ATOM      7  N   UNL     1      48.076   5.731  15.155  0.00  0.00    +0.000 NA
ATOM      8  H   UNL     1      46.655   6.106  13.360  0.00  0.00    +0.000 HD
ENDROOT
BRANCH   5   9
ATOM      9  C   UNL     1      49.023   3.995  18.373  0.00  0.00    +0.000 C 
ATOM     10  N   UNL     1      48.326   3.175  19.215  0.00  0.00    +0.000 N 
ATOM     11  O   UNL     1      50.091   4.485  18.718  0.00  0.00    +0.000 OA
ATOM     12  H   UNL     1      47.351   2.940  19.093  0.00  0.00    +0.000 HD
ATOM     13  H   UNL     1      48.710   3.072  20.147  0.00  0.00    +0.000 HD
ENDBRANCH   5   9
BRANCH   1  14
ATOM     14  C   UNL     1      45.275   4.526  13.397  0.00  0.00    +0.000 C 
BRANCH  14  16
ATOM     15  C   UNL     1      43.126   5.261  12.167  0.00  0.00    +0.000 C 
ATOM     16  C   UNL     1      44.585   4.904  12.111  0.00  0.00    +0.000 C 
BRANCH  16  17
ATOM     17  C   UNL     1      45.124   4.209  10.862  0.00  0.00    +0.000 C 
ATOM     18  C   UNL     1      45.407   5.172   9.695  0.00  0.00    +0.000 C 
ATOM     19  C   UNL     1      45.826   4.438   8.421  0.00  0.00    +0.000 C 
ATOM     20  C   UNL     1      44.810   3.369   8.037  0.00  0.00    +0.000 C 
ATOM     21  C   UNL     1      44.632   2.364   9.167  0.00  0.00    +0.000 C 
ATOM     22  C   UNL     1      44.189   3.055  10.452  0.00  0.00    +0.000 C 
ENDBRANCH  16  17
ENDBRANCH  14  16
ENDBRANCH   1  14
TORSDOF 4
ENDMDL
MODEL 6
REMARK VINA RESULT:    -6.380      3.610      5.968
REMARK INTER + INTRA:          -8.364
REMARK INTER:                  -7.812
REMARK INTRA:                  -0.553
REMARK UNBOUND:                -0.493
REMARK  Name = 
REMARK  5 active torsions:
REMARK  status: ('A' for Active; 'I' for Inactive)
REMARK    1  A    between atoms: C_1  and  C_2
REMARK    2  A    between atoms: C_2  and  C_3
REMARK    3  A    between atoms: C_2  and  C_14
REMARK    4  A    between atoms: C_3  and  N_4
REMARK    5  A    between atoms: C_8  and  C_9
REMARK                            x       y       z     vdW  Elec       q    Type
REMARK                         _______ _______ _______ _____ _____    ______ ____
ROOT
ATOM      1  N   UNL     1      44.219   4.665  13.096  0.00  0.00    +0.000 N 
ATOM      2  C   UNL     1      45.354   5.472  13.171  0.00  0.00    +0.000 A 
ATOM      3  N   UNL     1      45.405   6.613  12.464  0.00  0.00    +0.000 NA
ATOM      4  C   UNL     1      46.542   7.337  12.522  0.00  0.00    +0.000 A 
ATOM      5  C   UNL     1      47.628   6.976  13.279  0.00  0.00    +0.000 A 
ATOM      6  C   UNL     1      47.486   5.795  13.970  0.00  0.00    +0.000 A 
ATOM      7  N   UNL     1      46.368   5.031  13.931  0.00  0.00    +0.000 NA
ATOM      8  H   UNL     1      44.521   3.741  13.377  0.00  0.00    +0.000 HD
ENDROOT
BRANCH   5   9
ATOM      9  C   UNL     1      48.835   7.811  13.263  0.00  0.00    +0.000 C 
ATOM     10  N   UNL     1      50.017   7.252  13.659  0.00  0.00    +0.000 N 
ATOM     11  O   UNL     1      48.778   8.991  12.937  0.00  0.00    +0.000 OA
ATOM     12  H   UNL     1      50.087   6.378  14.160  0.00  0.00    +0.000 HD
ATOM     13  H   UNL     1      50.801   7.890  13.737  0.00  0.00    +0.000 HD
ENDBRANCH   5   9
BRANCH   1  14
ATOM     14  C   UNL     1      43.579   4.757  11.801  0.00  0.00    +0.000 C 
BRANCH  14  16
ATOM     15  C   UNL     1      43.270   2.196  11.703  0.00  0.00    +0.000 C 
ATOM     16  C   UNL     1      43.720   3.465  11.038  0.00  0.00    +0.000 C 
BRANCH  16  17
ATOM     17  C   UNL     1      44.907   3.411  10.078  0.00  0.00    +0.000 C 
ATOM     18  C   UNL     1      45.012   4.642   9.157  0.00  0.00    +0.000 C 
ATOM     19  C   UNL     1      46.130   4.504   8.124  0.00  0.00    +0.000 C 
ATOM     20  C   UNL     1      45.994   3.213   7.327  0.00  0.00    +0.000 C 
ATOM     21  C   UNL     1      46.006   2.004   8.252  0.00  0.00    +0.000 C 
ATOM     22  C   UNL     1      44.887   2.091   9.285  0.00  0.00    +0.000 C 
ENDBRANCH  16  17
ENDBRANCH  14  16
ENDBRANCH   1  14
TORSDOF 4
ENDMDL
MODEL 7
REMARK VINA RESULT:    -6.190      5.941      8.081
REMARK INTER + INTRA:          -8.131
REMARK INTER:                  -7.754
REMARK INTRA:                  -0.376
REMARK UNBOUND:                -0.493
REMARK  Name = 
REMARK  5 active torsions:
REMARK  status: ('A' for Active; 'I' for Inactive)
REMARK    1  A    between atoms: C_1  and  C_2
REMARK    2  A    between atoms: C_2  and  C_3
REMARK    3  A    between atoms: C_2  and  C_14
REMARK    4  A    between atoms: C_3  and  N_4
REMARK    5  A    between atoms: C_8  and  C_9
REMARK                            x       y       z     vdW  Elec       q    Type
REMARK                         _______ _______ _______ _____ _____    ______ ____
ROOT
ATOM      1  N   UNL     1      47.235   3.565  15.543  0.00  0.00    +0.000 N 
ATOM      2  C   UNL     1      48.408   3.298  16.247  0.00  0.00    +0.000 A 
ATOM      3  N   UNL     1      49.025   4.291  16.909  0.00  0.00    +0.000 NA
ATOM      4  C   UNL     1      50.186   4.002  17.532  0.00  0.00    +0.000 A 
ATOM      5  C   UNL     1      50.748   2.750  17.539  0.00  0.00    +0.000 A 
ATOM      6  C   UNL     1      50.048   1.798  16.837  0.00  0.00    +0.000 A 
ATOM      7  N   UNL     1      48.885   2.045  16.187  0.00  0.00    +0.000 NA
ATOM      8  H   UNL     1      47.154   2.828  14.855  0.00  0.00    +0.000 HD
ENDROOT
BRANCH   5   9
ATOM      9  C   UNL     1      52.029   2.532  18.222  0.00  0.00    +0.000 C 
ATOM     10  N   UNL     1      52.477   1.250  18.368  0.00  0.00    +0.000 N 
ATOM     11  O   UNL     1      52.664   3.474  18.682  0.00  0.00    +0.000 OA
ATOM     12  H   UNL     1      51.899   0.433  18.232  0.00  0.00    +0.000 HD
ATOM     13  H   UNL     1      53.307   1.136  18.939  0.00  0.00    +0.000 HD
ENDBRANCH   5   9
BRANCH   1  14
ATOM     14  C   UNL     1      47.213   4.918  15.028  0.00  0.00    +0.000 C 
BRANCH  14  16
ATOM     15  C   UNL     1      47.338   5.994  12.684  0.00  0.00    +0.000 C 
ATOM     16  C   UNL     1      46.768   4.938  13.588  0.00  0.00    +0.000 C 
BRANCH  16  17
ATOM     17  C   UNL     1      45.336   4.461  13.350  0.00  0.00    +0.000 C 
ATOM     18  C   UNL     1      45.225   3.351  12.288  0.00  0.00    +0.000 C 
ATOM     19  C   UNL     1      43.773   2.982  11.980  0.00  0.00    +0.000 C 
ATOM     20  C   UNL     1      42.956   4.211  11.600  0.00  0.00    +0.000 C 
ATOM     21  C   UNL     1      42.991   5.247  12.715  0.00  0.00    +0.000 C 
ATOM     22  C   UNL     1      44.423   5.662  13.036  0.00  0.00    +0.000 C 
ENDBRANCH  16  17
ENDBRANCH  14  16
ENDBRANCH   1  14
TORSDOF 4
ENDMDL
MODEL 8
REMARK VINA RESULT:    -6.113      4.555      6.316
REMARK INTER + INTRA:          -8.035
REMARK INTER:                  -7.652
REMARK INTRA:                  -0.384
REMARK UNBOUND:                -0.493
REMARK  Name = 
REMARK  5 active torsions:
REMARK  status: ('A' for Active; 'I' for Inactive)
REMARK    1  A    between atoms: C_1  and  C_2
REMARK    2  A    between atoms: C_2  and  C_3
REMARK    3  A    between atoms: C_2  and  C_14
REMARK    4  A    between atoms: C_3  and  N_4
REMARK    5  A    between atoms: C_8  and  C_9
REMARK                            x       y       z     vdW  Elec       q    Type
REMARK                         _______ _______ _______ _____ _____    ______ ____
ROOT
ATOM      1  N   UNL     1      47.391   5.128  15.267  0.00  0.00    +0.000 N 
ATOM      2  C   UNL     1      46.695   5.093  14.059  0.00  0.00    +0.000 A 
ATOM      3  N   UNL     1      45.791   4.124  13.841  0.00  0.00    +0.000 NA
ATOM      4  C   UNL     1      45.180   4.094  12.639  0.00  0.00    +0.000 A 
ATOM      5  C   UNL     1      45.421   5.012  11.648  0.00  0.00    +0.000 A 
ATOM      6  C   UNL     1      46.360   5.967  11.959  0.00  0.00    +0.000 A 
ATOM      7  N   UNL     1      47.006   6.028  13.148  0.00  0.00    +0.000 NA
ATOM      8  H   UNL     1      48.230   5.662  15.085  0.00  0.00    +0.000 HD
ENDROOT
BRANCH   5   9
ATOM      9  C   UNL     1      44.728   4.889  10.359  0.00  0.00    +0.000 C 
ATOM     10  N   UNL     1      45.450   5.071   9.214  0.00  0.00    +0.000 N 
ATOM     11  O   UNL     1      43.525   4.663  10.313  0.00  0.00    +0.000 OA
ATOM     12  H   UNL     1      46.368   5.491   9.188  0.00  0.00    +0.000 HD
ATOM     13  H   UNL     1      44.913   5.085   8.353  0.00  0.00    +0.000 HD
ENDBRANCH   5   9
BRANCH   1  14
ATOM     14  C   UNL     1      47.589   3.801  15.811  0.00  0.00    +0.000 C 
BRANCH  14  16
ATOM     15  C   UNL     1      47.068   4.964  18.056  0.00  0.00    +0.000 C 
ATOM     16  C   UNL     1      47.747   3.852  17.309  0.00  0.00    +0.000 C 
BRANCH  16  17
ATOM     17  C   UNL     1      49.079   3.319  17.834  0.00  0.00    +0.000 C 
ATOM     18  C   UNL     1      50.129   4.418  18.081  0.00  0.00    +0.000 C 
ATOM     19  C   UNL     1      51.488   3.847  18.485  0.00  0.00    +0.000 C 
ATOM     20  C   UNL     1      51.978   2.814  17.478  0.00  0.00    +0.000 C 
ATOM     21  C   UNL     1      50.972   1.680  17.335  0.00  0.00    +0.000 C 
ATOM     22  C   UNL     1      49.607   2.206  16.908  0.00  0.00    +0.000 C 
ENDBRANCH  16  17
ENDBRANCH  14  16
ENDBRANCH   1  14
TORSDOF 4
ENDMDL
MODEL 9
REMARK VINA RESULT:    -5.773      3.761      5.863
REMARK INTER + INTRA:          -7.616
REMARK INTER:                  -7.205
REMARK INTRA:                  -0.411
REMARK UNBOUND:                -0.493
REMARK  Name = 
REMARK  5 active torsions:
REMARK  status: ('A' for Active; 'I' for Inactive)
REMARK    1  A    between atoms: C_1  and  C_2
REMARK    2  A    between atoms: C_2  and  C_3
REMARK    3  A    between atoms: C_2  and  C_14
REMARK    4  A    between atoms: C_3  and  N_4
REMARK    5  A    between atoms: C_8  and  C_9
REMARK                            x       y       z     vdW  Elec       q    Type
REMARK                         _______ _______ _______ _____ _____    ______ ____
ROOT
ATOM      1  N   UNL     1      47.151   7.145  13.984  0.00  0.00    +0.000 N 
ATOM      2  C   UNL     1      46.297   6.433  13.143  0.00  0.00    +0.000 A 
ATOM      3  N   UNL     1      46.133   5.112  13.325  0.00  0.00    +0.000 NA
ATOM      4  C   UNL     1      45.341   4.452  12.456  0.00  0.00    +0.000 A 
ATOM      5  C   UNL     1      44.684   5.065  11.420  0.00  0.00    +0.000 A 
ATOM      6  C   UNL     1      44.908   6.417  11.310  0.00  0.00    +0.000 A 
ATOM      7  N   UNL     1      45.705   7.118  12.152  0.00  0.00    +0.000 NA
ATOM      8  H   UNL     1      47.407   7.979  13.473  0.00  0.00    +0.000 HD
ENDROOT
BRANCH   5   9
ATOM      9  C   UNL     1      43.860   4.263  10.506  0.00  0.00    +0.000 C 
ATOM     10  N   UNL     1      43.969   4.492   9.164  0.00  0.00    +0.000 N 
ATOM     11  O   UNL     1      43.069   3.434  10.938  0.00  0.00    +0.000 OA
ATOM     12  H   UNL     1      44.410   5.309   8.766  0.00  0.00    +0.000 HD
ATOM     13  H   UNL     1      43.307   3.996   8.578  0.00  0.00    +0.000 HD
ENDBRANCH   5   9
BRANCH   1  14
ATOM     14  C   UNL     1      48.249   6.326  14.452  0.00  0.00    +0.000 C 
BRANCH  14  16
ATOM     15  C   UNL     1      49.538   7.839  16.101  0.00  0.00    +0.000 C 
ATOM     16  C   UNL     1      48.614   6.676  15.872  0.00  0.00    +0.000 C 
BRANCH  16  17
ATOM     17  C   UNL     1      48.673   5.490  16.833  0.00  0.00    +0.000 C 
ATOM     18  C   UNL     1      50.107   5.022  17.147  0.00  0.00    +0.000 C 
ATOM     19  C   UNL     1      50.132   3.760  18.009  0.00  0.00    +0.000 C 
ATOM     20  C   UNL     1      49.299   2.646  17.387  0.00  0.00    +0.000 C 
ATOM     21  C   UNL     1      47.858   3.097  17.190  0.00  0.00    +0.000 C 
ATOM     22  C   UNL     1      47.787   4.342  16.313  0.00  0.00    +0.000 C 
ENDBRANCH  16  17
ENDBRANCH  14  16
ENDBRANCH   1  14
TORSDOF 4
ENDMDL
