MODEL 1
REMARK VINA RESULT:    -7.635      0.000      0.000
REMARK INTER + INTRA:          -9.455
REMARK INTER:                  -8.974
REMARK INTRA:                  -0.481
REMARK UNBOUND:                -0.481
REMARK  Name = 
REMARK  6 active torsions:
REMARK  status: ('A' for Active; 'I' for Inactive)
REMARK    1  A    between atoms: C_1  and  C_2
REMARK    2  A    between atoms: C_2  and  C_3
REMARK    3  A    between atoms: C_2  and  C_4
REMARK    4  A    between atoms: C_2  and  C_5
REMARK    5  A    between atoms: N_7  and  C_8
REMARK    6  A    between atoms: C_8  and  C_9
REMARK                            x       y       z     vdW  Elec       q    Type
REMARK                         _______ _______ _______ _____ _____    ______ ____
ROOT
ATOM      1  C   UNL     1      45.909   5.633  11.273  0.00  0.00    +0.000 A 
ATOM      2  N   UNL     1      46.027   5.602   9.937  0.00  0.00    +0.000 NA
ATOM      3  N   UNL     1      45.182   4.628   9.540  0.00  0.00    +0.000 N 
ATOM      4  C   UNL     1      44.530   4.010  10.574  0.00  0.00    +0.000 A 
ATOM      5  C   UNL     1      43.619   2.962  10.616  0.00  0.00    +0.000 A 
ATOM      6  N   UNL     1      43.147   2.547  11.813  0.00  0.00    +0.000 NA
ATOM      7  C   UNL     1      43.564   3.173  12.935  0.00  0.00    +0.000 A 
ATOM      8  C   UNL     1      44.465   4.227  12.963  0.00  0.00    +0.000 A 
ATOM      9  C   UNL     1      44.970   4.654  11.727  0.00  0.00    +0.000 A 
ENDROOT
BRANCH   1  11
ATOM     10  C   UNL     1      47.488   5.870  13.257  0.00  0.00    +0.000 C 
ATOM     11  C   UNL     1      46.757   6.594  12.103  0.00  0.00    +0.000 C 
ATOM     12  C   UNL     1      45.858   7.679  12.733  0.00  0.00    +0.000 C 
ATOM     13  C   UNL     1      47.833   7.271  11.231  0.00  0.00    +0.000 C 
ENDBRANCH   1  11
BRANCH   3  14
ATOM     14  C   UNL     1      45.111   4.283   8.124  0.00  0.00    +0.000 C 
BRANCH  14  15
ATOM     15  C   UNL     1      46.096   3.205   7.748  0.00  0.00    +0.000 A 
ATOM     16  C   UNL     1      45.897   1.880   8.152  0.00  0.00    +0.000 A 
ATOM     17  C   UNL     1      46.820   0.919   7.770  0.00  0.00    +0.000 A 
ATOM     18  N   UNL     1      47.908   1.182   7.016  0.00  0.00    +0.000 NA
ATOM     19  C   UNL     1      48.080   2.463   6.629  0.00  0.00    +0.000 A 
ATOM     20  C   UNL     1      47.215   3.495   6.961  0.00  0.00    +0.000 A 
ENDBRANCH  14  15
ENDBRANCH   3  14
TORSDOF 3
ENDMDL
MODEL 2
REMARK VINA RESULT:    -6.730      1.642      2.690
REMARK INTER + INTRA:          -8.392
REMARK INTER:                  -7.984
REMARK INTRA:                  -0.408
REMARK UNBOUND:                -0.481
REMARK  Name = 
REMARK  6 active torsions:
REMARK  status: ('A' for Active; 'I' for Inactive)
REMARK    1  A    between atoms: C_1  and  C_2
REMARK    2  A    between atoms: C_2  and  C_3
REMARK    3  A    between atoms: C_2  and  C_4
REMARK    4  A    between atoms: C_2  and  C_5
REMARK    5  A    between atoms: N_7  and  C_8
REMARK    6  A    between atoms: C_8  and  C_9
REMARK                            x       y       z     vdW  Elec       q    Type
REMARK                         _______ _______ _______ _____ _____    ______ ____
ROOT
ATOM      1  C   UNL     1      46.048   7.050  12.177  0.00  0.00    +0.000 A 
ATOM      2  N   UNL     1      45.182   6.775  11.189  0.00  0.00    +0.000 NA
ATOM      3  N   UNL     1      44.953   5.450  11.294  0.00  0.00    +0.000 N 
ATOM      4  C   UNL     1      45.655   4.847  12.303  0.00  0.00    +0.000 A 
ATOM      5  C   UNL     1      45.738   3.528  12.732  0.00  0.00    +0.000 A 
ATOM      6  N   UNL     1      46.547   3.223  13.772  0.00  0.00    +0.000 NA
ATOM      7  C   UNL     1      47.240   4.212  14.375  0.00  0.00    +0.000 A 
ATOM      8  C   UNL     1      47.198   5.547  14.003  0.00  0.00    +0.000 A 
ATOM      9  C   UNL     1      46.373   5.870  12.916  0.00  0.00    +0.000 A 
ENDROOT
BRANCH   1  11
ATOM     10  C   UNL     1      46.762   8.832  13.850  0.00  0.00    +0.000 C 
ATOM     11  C   UNL     1      46.590   8.466  12.357  0.00  0.00    +0.000 C 
ATOM     12  C   UNL     1      45.609   9.486  11.741  0.00  0.00    +0.000 C 
ATOM     13  C   UNL     1      47.968   8.618  11.686  0.00  0.00    +0.000 C 
ENDBRANCH   1  11
BRANCH   3  14
ATOM     14  C   UNL     1      44.089   4.799  10.313  0.00  0.00    +0.000 C 
BRANCH  14  15
ATOM     15  C   UNL     1      44.862   3.921   9.363  0.00  0.00    +0.000 A 
ATOM     16  C   UNL     1      45.688   4.479   8.381  0.00  0.00    +0.000 A 
ATOM     17  C   UNL     1      46.392   3.634   7.538  0.00  0.00    +0.000 A 
ATOM     18  N   UNL     1      46.339   2.287   7.612  0.00  0.00    +0.000 NA
ATOM     19  C   UNL     1      45.544   1.765   8.570  0.00  0.00    +0.000 A 
ATOM     20  C   UNL     1      44.799   2.527   9.457  0.00  0.00    +0.000 A 
ENDBRANCH  14  15
ENDBRANCH   3  14
TORSDOF 3
ENDMDL
MODEL 3
REMARK VINA RESULT:    -6.186      1.583      5.365
REMARK INTER + INTRA:          -7.752
REMARK INTER:                  -7.234
REMARK INTRA:                  -0.518
REMARK UNBOUND:                -0.481
REMARK  Name = 
REMARK  6 active torsions:
REMARK  status: ('A' for Active; 'I' for Inactive)
REMARK    1  A    between atoms: C_1  and  C_2
REMARK    2  A    between atoms: C_2  and  C_3
REMARK    3  A    between atoms: C_2  and  C_4
REMARK    4  A    between atoms: C_2  and  C_5
REMARK    5  A    between atoms: N_7  and  C_8
REMARK    6  A    between atoms: C_8  and  C_9
REMARK                            x       y       z     vdW  Elec       q    Type
REMARK                         _______ _______ _______ _____ _____    ______ ____
ROOT
ATOM      1  C   UNL     1      45.455   4.126   9.469  0.00  0.00    +0.000 A 
ATOM      2  N   UNL     1      45.972   5.352   9.642  0.00  0.00    +0.000 NA
ATOM      3  N   UNL     1      45.590   5.713  10.885  0.00  0.00    +0.000 N 
ATOM      4  C   UNL     1      44.825   4.773  11.521  0.00  0.00    +0.000 A 
ATOM      5  C   UNL     1      44.209   4.749  12.767  0.00  0.00    +0.000 A 
ATOM      6  N   UNL     1      43.488   3.664  13.124  0.00  0.00    +0.000 NA
ATOM      7  C   UNL     1      43.397   2.625  12.266  0.00  0.00    +0.000 A 
ATOM      8  C   UNL     1      43.989   2.581  11.013  0.00  0.00    +0.000 A 
ATOM      9  C   UNL     1      44.728   3.709  10.628  0.00  0.00    +0.000 A 
ENDROOT
BRANCH   1  11
ATOM     10  C   UNL     1      46.735   4.039   7.269  0.00  0.00    +0.000 C 
ATOM     11  C   UNL     1      45.637   3.389   8.145  0.00  0.00    +0.000 C 
ATOM     12  C   UNL     1      44.321   3.424   7.339  0.00  0.00    +0.000 C 
ATOM     13  C   UNL     1      46.048   1.923   8.382  0.00  0.00    +0.000 C 
ENDBRANCH   1  11
BRANCH   3  14
ATOM     14  C   UNL     1      45.938   7.043  11.375  0.00  0.00    +0.000 C 
BRANCH  14  15
ATOM     15  C   UNL     1      47.204   7.038  12.194  0.00  0.00    +0.000 A 
ATOM     16  C   UNL     1      48.414   7.480  11.647  0.00  0.00    +0.000 A 
ATOM     17  C   UNL     1      49.549   7.472  12.441  0.00  0.00    +0.000 A 
ATOM     18  N   UNL     1      49.561   7.069  13.729  0.00  0.00    +0.000 NA
ATOM     19  C   UNL     1      48.384   6.654  14.243  0.00  0.00    +0.000 A 
ATOM     20  C   UNL     1      47.196   6.622  13.530  0.00  0.00    +0.000 A 
ENDBRANCH  14  15
ENDBRANCH   3  14
TORSDOF 3
ENDMDL
MODEL 4
REMARK VINA RESULT:    -5.992      3.441      6.029
REMARK INTER + INTRA:          -7.524
REMARK INTER:                  -7.016
REMARK INTRA:                  -0.508
REMARK UNBOUND:                -0.481
REMARK  Name = 
REMARK  6 active torsions:
REMARK  status: ('A' for Active; 'I' for Inactive)
REMARK    1  A    between atoms: C_1  and  C_2
REMARK    2  A    between atoms: C_2  and  C_3
REMARK    3  A    between atoms: C_2  and  C_4
REMARK    4  A    between atoms: C_2  and  C_5
REMARK    5  A    between atoms: N_7  and  C_8
REMARK    6  A    between atoms: C_8  and  C_9
REMARK                            x       y       z     vdW  Elec       q    Type
REMARK                         _______ _______ _______ _____ _____    ______ ____
ROOT
ATOM      1  C   UNL     1      47.629   4.502  15.756  0.00  0.00    +0.000 A 
ATOM      2  N   UNL     1      46.964   3.584  15.038  0.00  0.00    +0.000 NA
ATOM      3  N   UNL     1      46.837   4.132  13.812  0.00  0.00    +0.000 N 
ATOM      4  C   UNL     1      47.379   5.385  13.711  0.00  0.00    +0.000 A 
ATOM      5  C   UNL     1      47.442   6.300  12.666  0.00  0.00    +0.000 A 
ATOM      6  N   UNL     1      48.043   7.493  12.871  0.00  0.00    +0.000 NA
ATOM      7  C   UNL     1      48.580   7.758  14.082  0.00  0.00    +0.000 A 
ATOM      8  C   UNL     1      48.558   6.890  15.163  0.00  0.00    +0.000 A 
ATOM      9  C   UNL     1      47.924   5.655  14.963  0.00  0.00    +0.000 A 
ENDROOT
BRANCH   1  11
ATOM     10  C   UNL     1      49.437   4.405  17.547  0.00  0.00    +0.000 C 
ATOM     11  C   UNL     1      47.929   4.260  17.233  0.00  0.00    +0.000 C 
ATOM     12  C   UNL     1      47.511   2.827  17.626  0.00  0.00    +0.000 C 
ATOM     13  C   UNL     1      47.176   5.270  18.120  0.00  0.00    +0.000 C 
ENDBRANCH   1  11
BRANCH   3  14
ATOM     14  C   UNL     1      46.092   3.410  12.785  0.00  0.00    +0.000 C 
BRANCH  14  15
ATOM     15  C   UNL     1      44.853   4.151  12.350  0.00  0.00    +0.000 A 
ATOM     16  C   UNL     1      44.643   4.470  11.004  0.00  0.00    +0.000 A 
ATOM     17  C   UNL     1      43.483   5.139  10.648  0.00  0.00    +0.000 A 
ATOM     18  N   UNL     1      42.524   5.498  11.528  0.00  0.00    +0.000 NA
ATOM     19  C   UNL     1      42.738   5.175  12.820  0.00  0.00    +0.000 A 
ATOM     20  C   UNL     1      43.867   4.511  13.276  0.00  0.00    +0.000 A 
ENDBRANCH  14  15
ENDBRANCH   3  14
TORSDOF 3
ENDMDL
MODEL 5
REMARK VINA RESULT:    -5.544      3.399      5.495
REMARK INTER + INTRA:          -6.997
REMARK INTER:                  -6.398
REMARK INTRA:                  -0.599
REMARK UNBOUND:                -0.481
REMARK  Name = 
REMARK  6 active torsions:
REMARK  status: ('A' for Active; 'I' for Inactive)
REMARK    1  A    between atoms: C_1  and  C_2
REMARK    2  A    between atoms: C_2  and  C_3
REMARK    3  A    between atoms: C_2  and  C_4
REMARK    4  A    between atoms: C_2  and  C_5
REMARK    5  A    between atoms: N_7  and  C_8
REMARK    6  A    between atoms: C_8  and  C_9
REMARK                            x       y       z     vdW  Elec       q    Type
REMARK                         _______ _______ _______ _____ _____    ______ ____
ROOT
ATOM      1  C   UNL     1      48.254   6.541  14.002  0.00  0.00    +0.000 A 
ATOM      2  N   UNL     1      47.614   5.735  13.140  0.00  0.00    +0.000 NA
ATOM      3  N   UNL     1      47.143   4.725  13.901  0.00  0.00    +0.000 N 
ATOM      4  C   UNL     1      47.470   4.834  15.225  0.00  0.00    +0.000 A 
ATOM      5  C   UNL     1      47.221   4.021  16.325  0.00  0.00    +0.000 A 
ATOM      6  N   UNL     1      47.694   4.389  17.537  0.00  0.00    +0.000 NA
ATOM      7  C   UNL     1      48.383   5.545  17.648  0.00  0.00    +0.000 A 
ATOM      8  C   UNL     1      48.660   6.404  16.596  0.00  0.00    +0.000 A 
ATOM      9  C   UNL     1      48.186   6.024  15.333  0.00  0.00    +0.000 A 
ENDROOT
BRANCH   1  11
ATOM     10  C   UNL     1      50.444   7.840  13.973  0.00  0.00    +0.000 C 
ATOM     11  C   UNL     1      48.971   7.792  13.502  0.00  0.00    +0.000 C 
ATOM     12  C   UNL     1      48.269   9.054  14.049  0.00  0.00    +0.000 C 
ATOM     13  C   UNL     1      48.981   7.844  11.962  0.00  0.00    +0.000 C 
ENDBRANCH   1  11
BRANCH   3  14
ATOM     14  C   UNL     1      46.439   3.620  13.257  0.00  0.00    +0.000 C 
BRANCH  14  15
ATOM     15  C   UNL     1      45.165   4.067  12.585  0.00  0.00    +0.000 A 
ATOM     16  C   UNL     1      44.951   3.829  11.223  0.00  0.00    +0.000 A 
ATOM     17  C   UNL     1      43.759   4.244  10.651  0.00  0.00    +0.000 A 
ATOM     18  N   UNL     1      42.774   4.863  11.336  0.00  0.00    +0.000 NA
ATOM     19  C   UNL     1      42.994   5.078  12.650  0.00  0.00    +0.000 A 
ATOM     20  C   UNL     1      44.153   4.703  13.312  0.00  0.00    +0.000 A 
ENDBRANCH  14  15
ENDBRANCH   3  14
TORSDOF 3
ENDMDL
MODEL 6
REMARK VINA RESULT:    -5.321      4.134      6.829
REMARK INTER + INTRA:          -6.735
REMARK INTER:                  -6.231
REMARK INTRA:                  -0.503
REMARK UNBOUND:                -0.481
REMARK  Name = 
REMARK  6 active torsions:
REMARK  status: ('A' for Active; 'I' for Inactive)
REMARK    1  A    between atoms: C_1  and  C_2
REMARK    2  A    between atoms: C_2  and  C_3
REMARK    3  A    between atoms: C_2  and  C_4
REMARK    4  A    between atoms: C_2  and  C_5
REMARK    5  A    between atoms: N_7  and  C_8
REMARK    6  A    between atoms: C_8  and  C_9
REMARK                            x       y       z     vdW  Elec       q    Type
REMARK                         _______ _______ _______ _____ _____    ______ ____
ROOT
ATOM      1  C   UNL     1      47.818   6.588  13.527  0.00  0.00    +0.000 A 
ATOM      2  N   UNL     1      48.162   5.645  14.418  0.00  0.00    +0.000 NA
ATOM      3  N   UNL     1      47.127   4.780  14.420  0.00  0.00    +0.000 N 
ATOM      4  C   UNL     1      46.111   5.136  13.575  0.00  0.00    +0.000 A 
ATOM      5  C   UNL     1      44.876   4.562  13.296  0.00  0.00    +0.000 A 
ATOM      6  N   UNL     1      44.056   5.163  12.405  0.00  0.00    +0.000 NA
ATOM      7  C   UNL     1      44.466   6.297  11.798  0.00  0.00    +0.000 A 
ATOM      8  C   UNL     1      45.685   6.919  12.025  0.00  0.00    +0.000 A 
ATOM      9  C   UNL     1      46.535   6.310  12.958  0.00  0.00    +0.000 A 
ENDROOT
BRANCH   1  11
ATOM     10  C   UNL     1      50.037   7.698  14.100  0.00  0.00    +0.000 C 
ATOM     11  C   UNL     1      48.732   7.784  13.274  0.00  0.00    +0.000 C 
ATOM     12  C   UNL     1      48.014   9.089  13.679  0.00  0.00    +0.000 C 
ATOM     13  C   UNL     1      49.133   7.867  11.789  0.00  0.00    +0.000 C 
ENDBRANCH   1  11
BRANCH   3  14
ATOM     14  C   UNL     1      47.149   3.649  15.342  0.00  0.00    +0.000 C 
BRANCH  14  15
ATOM     15  C   UNL     1      47.777   4.003  16.666  0.00  0.00    +0.000 A 
ATOM     16  C   UNL     1      47.123   4.851  17.567  0.00  0.00    +0.000 A 
ATOM     17  C   UNL     1      47.732   5.137  18.779  0.00  0.00    +0.000 A 
ATOM     18  N   UNL     1      48.927   4.635  19.155  0.00  0.00    +0.000 NA
ATOM     19  C   UNL     1      49.540   3.813  18.278  0.00  0.00    +0.000 A 
ATOM     20  C   UNL     1      49.015   3.469  17.042  0.00  0.00    +0.000 A 
ENDBRANCH  14  15
ENDBRANCH   3  14
TORSDOF 3
ENDMDL
MODEL 7
REMARK VINA RESULT:    -5.301      4.110      6.707
REMARK INTER + INTRA:          -6.712
REMARK INTER:                  -6.521
REMARK INTRA:                  -0.191
REMARK UNBOUND:                -0.481
REMARK  Name = 
REMARK  6 active torsions:
REMARK  status: ('A' for Active; 'I' for Inactive)
REMARK    1  A    between atoms: C_1  and  C_2
REMARK    2  A    between atoms: C_2  and  C_3
REMARK    3  A    between atoms: C_2  and  C_4
REMARK    4  A    between atoms: C_2  and  C_5
REMARK    5  A    between atoms: N_7  and  C_8
REMARK    6  A    between atoms: C_8  and  C_9
REMARK                            x       y       z     vdW  Elec       q    Type
REMARK                         _______ _______ _______ _____ _____    ______ ____
ROOT
ATOM      1  C   UNL     1      48.282   6.592  13.703  0.00  0.00    +0.000 A 
ATOM      2  N   UNL     1      48.389   5.972  14.889  0.00  0.00    +0.000 NA
ATOM      3  N   UNL     1      47.404   5.050  14.883  0.00  0.00    +0.000 N 
ATOM      4  C   UNL     1      46.647   5.060  13.742  0.00  0.00    +0.000 A 
ATOM      5  C   UNL     1      45.541   4.319  13.342  0.00  0.00    +0.000 A 
ATOM      6  N   UNL     1      44.982   4.569  12.137  0.00  0.00    +0.000 NA
ATOM      7  C   UNL     1      45.523   5.522  11.348  0.00  0.00    +0.000 A 
ATOM      8  C   UNL     1      46.627   6.292  11.682  0.00  0.00    +0.000 A 
ATOM      9  C   UNL     1      47.204   6.049  12.936  0.00  0.00    +0.000 A 
ENDROOT
BRANCH   1  11
ATOM     10  C   UNL     1      49.862   7.565  11.958  0.00  0.00    +0.000 C 
ATOM     11  C   UNL     1      49.213   7.749  13.350  0.00  0.00    +0.000 C 
ATOM     12  C   UNL     1      50.355   7.840  14.385  0.00  0.00    +0.000 C 
ATOM     13  C   UNL     1      48.445   9.085  13.325  0.00  0.00    +0.000 C 
ENDBRANCH   1  11
BRANCH   3  14
ATOM     14  C   UNL     1      47.194   4.228  16.071  0.00  0.00    +0.000 C 
BRANCH  14  15
ATOM     15  C   UNL     1      48.490   3.736  16.663  0.00  0.00    +0.000 A 
ATOM     16  C   UNL     1      48.918   2.420  16.459  0.00  0.00    +0.000 A 
ATOM     17  C   UNL     1      50.124   2.016  17.010  0.00  0.00    +0.000 A 
ATOM     18  N   UNL     1      50.927   2.825  17.733  0.00  0.00    +0.000 NA
ATOM     19  C   UNL     1      50.502   4.093  17.914  0.00  0.00    +0.000 A 
ATOM     20  C   UNL     1      49.312   4.591  17.406  0.00  0.00    +0.000 A 
ENDBRANCH  14  15
ENDBRANCH   3  14
TORSDOF 3
ENDMDL
MODEL 8
REMARK VINA RESULT:    -5.282      3.875      6.663
REMARK INTER + INTRA:          -6.689
REMARK INTER:                  -6.201
REMARK INTRA:                  -0.487
REMARK UNBOUND:                -0.481
REMARK  Name = 
REMARK  6 active torsions:
REMARK  status: ('A' for Active; 'I' for Inactive)
REMARK    1  A    between atoms: C_1  and  C_2
REMARK    2  A    between atoms: C_2  and  C_3
REMARK    3  A    between atoms: C_2  and  C_4
REMARK    4  A    between atoms: C_2  and  C_5
REMARK    5  A    between atoms: N_7  and  C_8
REMARK    6  A    between atoms: C_8  and  C_9
REMARK                            x       y       z     vdW  Elec       q    Type
REMARK                         _______ _______ _______ _____ _____    ______ ____
ROOT
ATOM      1  C   UNL     1      48.097   5.338  15.968  0.00  0.00    +0.000 A 
ATOM      2  N   UNL     1      47.512   4.867  14.857  0.00  0.00    +0.000 NA
ATOM      3  N   UNL     1      47.665   5.849  13.945  0.00  0.00    +0.000 N 
ATOM      4  C   UNL     1      48.313   6.954  14.430  0.00  0.00    +0.000 A 
ATOM      5  C   UNL     1      48.646   8.175  13.855  0.00  0.00    +0.000 A 
ATOM      6  N   UNL     1      49.289   9.101  14.602  0.00  0.00    +0.000 NA
ATOM      7  C   UNL     1      49.603   8.807  15.883  0.00  0.00    +0.000 A 
ATOM      8  C   UNL     1      49.306   7.609  16.514  0.00  0.00    +0.000 A 
ATOM      9  C   UNL     1      48.628   6.648  15.751  0.00  0.00    +0.000 A 
ENDROOT
BRANCH   1  11
ATOM     10  C   UNL     1      49.510   4.051  17.652  0.00  0.00    +0.000 C 
ATOM     11  C   UNL     1      48.089   4.516  17.254  0.00  0.00    +0.000 C 
ATOM     12  C   UNL     1      47.225   3.251  17.064  0.00  0.00    +0.000 C 
ATOM     13  C   UNL     1      47.530   5.339  18.431  0.00  0.00    +0.000 C 
ENDBRANCH   1  11
BRANCH   3  14
ATOM     14  C   UNL     1      47.077   5.686  12.620  0.00  0.00    +0.000 C 
BRANCH  14  15
ATOM     15  C   UNL     1      45.676   5.132  12.680  0.00  0.00    +0.000 A 
ATOM     16  C   UNL     1      44.583   5.969  12.930  0.00  0.00    +0.000 A 
ATOM     17  C   UNL     1      43.311   5.419  12.962  0.00  0.00    +0.000 A 
ATOM     18  N   UNL     1      43.056   4.110  12.755  0.00  0.00    +0.000 NA
ATOM     19  C   UNL     1      44.120   3.318  12.507  0.00  0.00    +0.000 A 
ATOM     20  C   UNL     1      45.429   3.773  12.458  0.00  0.00    +0.000 A 
ENDBRANCH  14  15
ENDBRANCH   3  14
TORSDOF 3
ENDMDL
MODEL 9
REMARK VINA RESULT:    -4.747      4.063      7.056
REMARK INTER + INTRA:          -6.061
REMARK INTER:                  -5.475
REMARK INTRA:                  -0.586
REMARK UNBOUND:                -0.481
REMARK  Name = 
REMARK  6 active torsions:
REMARK  status: ('A' for Active; 'I' for Inactive)
REMARK    1  A    between atoms: C_1  and  C_2
REMARK    2  A    between atoms: C_2  and  C_3
REMARK    3  A    between atoms: C_2  and  C_4
REMARK    4  A    between atoms: C_2  and  C_5
REMARK    5  A    between atoms: N_7  and  C_8
REMARK    6  A    between atoms: C_8  and  C_9
REMARK                            x       y       z     vdW  Elec       q    Type
REMARK                         _______ _______ _______ _____ _____    ______ ____
ROOT
ATOM      1  C   UNL     1      48.401   5.862  16.397  0.00  0.00    +0.000 A 
ATOM      2  N   UNL     1      48.266   5.387  15.149  0.00  0.00    +0.000 NA
ATOM      3  N   UNL     1      48.445   6.461  14.353  0.00  0.00    +0.000 N 
ATOM      4  C   UNL     1      48.672   7.624  15.039  0.00  0.00    +0.000 A 
ATOM      5  C   UNL     1      48.872   8.936  14.624  0.00  0.00    +0.000 A 
ATOM      6  N   UNL     1      49.059   9.899  15.554  0.00  0.00    +0.000 NA
ATOM      7  C   UNL     1      49.062   9.557  16.861  0.00  0.00    +0.000 A 
ATOM      8  C   UNL     1      48.875   8.270  17.342  0.00  0.00    +0.000 A 
ATOM      9  C   UNL     1      48.666   7.267  16.385  0.00  0.00    +0.000 A 
ENDROOT
BRANCH   1  11
ATOM     10  C   UNL     1      47.206   5.511  18.618  0.00  0.00    +0.000 C 
ATOM     11  C   UNL     1      48.218   4.939  17.599  0.00  0.00    +0.000 C 
ATOM     12  C   UNL     1      49.564   4.760  18.334  0.00  0.00    +0.000 C 
ATOM     13  C   UNL     1      47.695   3.558  17.158  0.00  0.00    +0.000 C 
ENDBRANCH   1  11
BRANCH   3  14
ATOM     14  C   UNL     1      48.300   6.306  12.909  0.00  0.00    +0.000 C 
BRANCH  14  15
ATOM     15  C   UNL     1      46.858   6.364  12.470  0.00  0.00    +0.000 A 
ATOM     16  C   UNL     1      46.054   5.219  12.496  0.00  0.00    +0.000 A 
ATOM     17  C   UNL     1      44.730   5.322  12.098  0.00  0.00    +0.000 A 
ATOM     18  N   UNL     1      44.158   6.474  11.689  0.00  0.00    +0.000 NA
ATOM     19  C   UNL     1      44.946   7.570  11.677  0.00  0.00    +0.000 A 
ATOM     20  C   UNL     1      46.280   7.568  12.054  0.00  0.00    +0.000 A 
ENDBRANCH  14  15
ENDBRANCH   3  14
TORSDOF 3
ENDMDL
