MODEL 1
REMARK VINA RESULT:    -7.609      0.000      0.000
REMARK INTER + INTRA:         -11.545
REMARK INTER:                 -10.500
REMARK INTRA:                  -1.045
REMARK UNBOUND:                -1.045
REMARK  Name = 
REMARK  9 active torsions:
REMARK  status: ('A' for Active; 'I' for Inactive)
REMARK    1  A    between atoms: C_1  and  C_2
REMARK    2  A    between atoms: N_7  and  C_8
REMARK    3  A    between atoms: C_12  and  C_13
REMARK    4  A    between atoms: C_13  and  C_14
REMARK    5  A    between atoms: C_13  and  C_15
REMARK    6  A    between atoms: C_15  and  N_16
REMARK    7  A    between atoms: N_16  and  C_17
REMARK    8  A    between atoms: C_20  and  S_21
REMARK    9  A    between atoms: S_21  and  N_22
REMARK                            x       y       z     vdW  Elec       q    Type
REMARK                         _______ _______ _______ _____ _____    ______ ____
ROOT
ATOM      1  C   UNL     1      43.835   5.560  12.509  0.00  0.00    +0.000 C 
ATOM      2  C   UNL     1      43.269   4.278  13.130  0.00  0.00    +0.000 C 
ENDROOT
BRANCH   1   7
ATOM      3  C   UNL     1      47.354   7.118  12.822  0.00  0.00    +0.000 A 
ATOM      4  C   UNL     1      47.950   6.165  13.656  0.00  0.00    +0.000 A 
ATOM      5  C   UNL     1      47.249   5.040  14.108  0.00  0.00    +0.000 A 
ATOM      6  C   UNL     1      45.923   4.845  13.737  0.00  0.00    +0.000 A 
ATOM      7  C   UNL     1      45.289   5.766  12.899  0.00  0.00    +0.000 A 
ATOM      8  C   UNL     1      46.021   6.875  12.444  0.00  0.00    +0.000 A 
BRANCH   3  15
ATOM      9  C   UNL     1      47.242  10.505  11.785  0.00  0.00    +0.000 C 
ATOM     10  C   UNL     1      47.689   9.576  12.914  0.00  0.00    +0.000 C 
ATOM     11  C   UNL     1      48.907  10.146  13.677  0.00  0.00    +0.000 C 
ATOM     12  O   UNL     1      50.105  10.138  12.886  0.00  0.00    +0.000 OA
ATOM     13  C   UNL     1      50.430   8.791  12.504  0.00  0.00    +0.000 C 
ATOM     14  C   UNL     1      49.315   8.164  11.659  0.00  0.00    +0.000 C 
ATOM     15  N   UNL     1      48.020   8.241  12.353  0.00  0.00    +0.000 N 
ENDBRANCH   3  15
ENDBRANCH   1   7
BRANCH   1  16
ATOM     16  C   UNL     1      43.606   5.544  10.977  0.00  0.00    +0.000 C 
BRANCH  16  17
ATOM     17  N   UNL     1      43.493   4.192  10.426  0.00  0.00    +0.000 N 
ATOM     18  H   UNL     1      42.537   3.936  10.187  0.00  0.00    +0.000 HD
BRANCH  17  19
ATOM     19  C   UNL     1      44.460   3.643   9.594  0.00  0.00    +0.000 A 
ATOM     20  C   UNL     1      44.741   2.275   9.533  0.00  0.00    +0.000 A 
ATOM     21  C   UNL     1      45.646   1.768   8.604  0.00  0.00    +0.000 A 
ATOM     22  C   UNL     1      46.251   2.670   7.754  0.00  0.00    +0.000 A 
ATOM     23  N   UNL     1      46.033   4.014   7.743  0.00  0.00    +0.000 NA
ATOM     24  C   UNL     1      45.123   4.447   8.652  0.00  0.00    +0.000 A 
BRANCH  22  25
ATOM     25  S   UNL     1      47.417   2.083   6.536  0.00  0.00    +0.000 S 
ATOM     26  O   UNL     1      48.734   2.501   6.959  0.00  0.00    +0.000 OA
ATOM     27  O   UNL     1      47.086   0.708   6.237  0.00  0.00    +0.000 OA
BRANCH  25  28
ATOM     28  N   UNL     1      47.024   2.997   5.165  0.00  0.00    +0.000 NA
ATOM     29  H   UNL     1      47.290   2.480   4.326  0.00  0.00    +0.000 HD
ATOM     30  H   UNL     1      47.515   3.892   5.216  0.00  0.00    +0.000 HD
ENDBRANCH  25  28
ENDBRANCH  22  25
ENDBRANCH  17  19
ENDBRANCH  16  17
ENDBRANCH   1  16
TORSDOF 7
ENDMDL
MODEL 2
REMARK VINA RESULT:    -7.378      1.260      2.059
REMARK INTER + INTRA:         -11.226
REMARK INTER:                 -10.560
REMARK INTRA:                  -0.666
REMARK UNBOUND:                -1.045
REMARK  Name = 
REMARK  9 active torsions:
REMARK  status: ('A' for Active; 'I' for Inactive)
REMARK    1  A    between atoms: C_1  and  C_2
REMARK    2  A    between atoms: N_7  and  C_8
REMARK    3  A    between atoms: C_12  and  C_13
REMARK    4  A    between atoms: C_13  and  C_14
REMARK    5  A    between atoms: C_13  and  C_15
REMARK    6  A    between atoms: C_15  and  N_16
REMARK    7  A    between atoms: N_16  and  C_17
REMARK    8  A    between atoms: C_20  and  S_21
REMARK    9  A    between atoms: S_21  and  N_22
REMARK                            x       y       z     vdW  Elec       q    Type
REMARK                         _______ _______ _______ _____ _____    ______ ____
ROOT
ATOM      1  C   UNL     1      44.980   4.618  12.947  0.00  0.00    +0.000 C 
ATOM      2  C   UNL     1      46.059   3.529  12.943  0.00  0.00    +0.000 C 
ENDROOT
BRANCH   1   7
ATOM      3  C   UNL     1      47.568   7.467  12.644  0.00  0.00    +0.000 A 
ATOM      4  C   UNL     1      46.709   8.518  12.302  0.00  0.00    +0.000 A 
ATOM      5  C   UNL     1      45.327   8.329  12.177  0.00  0.00    +0.000 A 
ATOM      6  C   UNL     1      44.770   7.072  12.386  0.00  0.00    +0.000 A 
ATOM      7  C   UNL     1      45.587   5.994  12.736  0.00  0.00    +0.000 A 
ATOM      8  C   UNL     1      46.968   6.216  12.876  0.00  0.00    +0.000 A 
BRANCH   3  15
ATOM      9  C   UNL     1      50.770   7.653  11.136  0.00  0.00    +0.000 C 
ATOM     10  C   UNL     1      49.680   8.479  11.821  0.00  0.00    +0.000 C 
ATOM     11  C   UNL     1      50.268   9.707  12.553  0.00  0.00    +0.000 C 
ATOM     12  O   UNL     1      51.039   9.342  13.708  0.00  0.00    +0.000 OA
ATOM     13  C   UNL     1      50.209   8.638  14.648  0.00  0.00    +0.000 C 
ATOM     14  C   UNL     1      49.648   7.347  14.041  0.00  0.00    +0.000 C 
ATOM     15  N   UNL     1      48.940   7.620  12.780  0.00  0.00    +0.000 N 
ENDBRANCH   3  15
ENDBRANCH   1   7
BRANCH   1  16
ATOM     16  C   UNL     1      43.879   4.267  11.916  0.00  0.00    +0.000 C 
BRANCH  16  17
ATOM     17  N   UNL     1      44.159   4.786  10.575  0.00  0.00    +0.000 N 
ATOM     18  H   UNL     1      44.305   5.793  10.558  0.00  0.00    +0.000 HD
BRANCH  17  19
ATOM     19  C   UNL     1      44.913   4.081   9.646  0.00  0.00    +0.000 A 
ATOM     20  C   UNL     1      44.894   2.687   9.534  0.00  0.00    +0.000 A 
ATOM     21  C   UNL     1      45.587   2.039   8.516  0.00  0.00    +0.000 A 
ATOM     22  C   UNL     1      46.292   2.828   7.630  0.00  0.00    +0.000 A 
ATOM     23  N   UNL     1      46.362   4.186   7.665  0.00  0.00    +0.000 NA
ATOM     24  C   UNL     1      45.646   4.765   8.662  0.00  0.00    +0.000 A 
BRANCH  22  25
ATOM     25  S   UNL     1      47.199   2.058   6.298  0.00  0.00    +0.000 S 
ATOM     26  O   UNL     1      47.201   0.633   6.541  0.00  0.00    +0.000 OA
ATOM     27  O   UNL     1      46.740   2.644   5.058  0.00  0.00    +0.000 OA
BRANCH  25  28
ATOM     28  N   UNL     1      48.781   2.607   6.551  0.00  0.00    +0.000 NA
ATOM     29  H   UNL     1      49.125   2.247   7.442  0.00  0.00    +0.000 HD
ATOM     30  H   UNL     1      48.778   3.629   6.544  0.00  0.00    +0.000 HD
ENDBRANCH  25  28
ENDBRANCH  22  25
ENDBRANCH  17  19
ENDBRANCH  16  17
ENDBRANCH   1  16
TORSDOF 7
ENDMDL
MODEL 3
REMARK VINA RESULT:    -7.202      2.609      4.020
REMARK INTER + INTRA:         -10.984
REMARK INTER:                 -10.201
REMARK INTRA:                  -0.783
REMARK UNBOUND:                -1.045
REMARK  Name = 
REMARK  9 active torsions:
REMARK  status: ('A' for Active; 'I' for Inactive)
REMARK    1  A    between atoms: C_1  and  C_2
REMARK    2  A    between atoms: N_7  and  C_8
REMARK    3  A    between atoms: C_12  and  C_13
REMARK    4  A    between atoms: C_13  and  C_14
REMARK    5  A    between atoms: C_13  and  C_15
REMARK    6  A    between atoms: C_15  and  N_16
REMARK    7  A    between atoms: N_16  and  C_17
REMARK    8  A    between atoms: C_20  and  S_21
REMARK    9  A    between atoms: S_21  and  N_22
REMARK                            x       y       z     vdW  Elec       q    Type
REMARK                         _______ _______ _______ _____ _____    ______ ____
ROOT
ATOM      1  C   UNL     1      45.900   6.126  11.762  0.00  0.00    +0.000 C 
ATOM      2  C   UNL     1      44.927   7.309  11.714  0.00  0.00    +0.000 C 
ENDROOT
BRANCH   1   7
ATOM      3  C   UNL     1      48.284   6.091  14.799  0.00  0.00    +0.000 A 
ATOM      4  C   UNL     1      49.285   6.938  14.311  0.00  0.00    +0.000 A 
ATOM      5  C   UNL     1      49.203   7.519  13.040  0.00  0.00    +0.000 A 
ATOM      6  C   UNL     1      48.112   7.258  12.218  0.00  0.00    +0.000 A 
ATOM      7  C   UNL     1      47.084   6.424  12.666  0.00  0.00    +0.000 A 
ATOM      8  C   UNL     1      47.181   5.871  13.954  0.00  0.00    +0.000 A 
BRANCH   3  15
ATOM      9  C   UNL     1      46.752   4.050  17.259  0.00  0.00    +0.000 C 
ATOM     10  C   UNL     1      47.876   4.099  16.223  0.00  0.00    +0.000 C 
ATOM     11  C   UNL     1      49.067   3.201  16.629  0.00  0.00    +0.000 C 
ATOM     12  O   UNL     1      49.780   3.712  17.765  0.00  0.00    +0.000 OA
ATOM     13  C   UNL     1      50.307   5.016  17.466  0.00  0.00    +0.000 C 
ATOM     14  C   UNL     1      49.188   6.011  17.138  0.00  0.00    +0.000 C 
ATOM     15  N   UNL     1      48.331   5.503  16.054  0.00  0.00    +0.000 N 
ENDBRANCH   3  15
ENDBRANCH   1   7
BRANCH   1  16
ATOM     16  C   UNL     1      45.137   4.837  12.154  0.00  0.00    +0.000 C 
BRANCH  16  17
ATOM     17  N   UNL     1      44.352   4.274  11.053  0.00  0.00    +0.000 N 
ATOM     18  H   UNL     1      43.458   4.741  10.919  0.00  0.00    +0.000 HD
BRANCH  17  19
ATOM     19  C   UNL     1      44.938   3.810   9.882  0.00  0.00    +0.000 A 
ATOM     20  C   UNL     1      45.453   4.650   8.890  0.00  0.00    +0.000 A 
ATOM     21  C   UNL     1      46.125   4.131   7.787  0.00  0.00    +0.000 A 
ATOM     22  C   UNL     1      46.256   2.759   7.715  0.00  0.00    +0.000 A 
ATOM     23  N   UNL     1      45.789   1.872   8.635  0.00  0.00    +0.000 NA
ATOM     24  C   UNL     1      45.166   2.436   9.700  0.00  0.00    +0.000 A 
BRANCH  22  25
ATOM     25  S   UNL     1      47.112   2.031   6.327  0.00  0.00    +0.000 S 
ATOM     26  O   UNL     1      47.093   0.597   6.509  0.00  0.00    +0.000 OA
ATOM     27  O   UNL     1      46.634   2.678   5.127  0.00  0.00    +0.000 OA
BRANCH  25  28
ATOM     28  N   UNL     1      48.711   2.538   6.561  0.00  0.00    +0.000 NA
ATOM     29  H   UNL     1      48.749   3.558   6.538  0.00  0.00    +0.000 HD
ATOM     30  H   UNL     1      49.295   2.133   5.827  0.00  0.00    +0.000 HD
ENDBRANCH  25  28
ENDBRANCH  22  25
ENDBRANCH  17  19
ENDBRANCH  16  17
ENDBRANCH   1  16
TORSDOF 7
ENDMDL
MODEL 4
REMARK VINA RESULT:    -7.148      2.285      2.765
REMARK INTER + INTRA:         -10.909
REMARK INTER:                 -10.096
REMARK INTRA:                  -0.813
REMARK UNBOUND:                -1.045
REMARK  Name = 
REMARK  9 active torsions:
REMARK  status: ('A' for Active; 'I' for Inactive)
REMARK    1  A    between atoms: C_1  and  C_2
REMARK    2  A    between atoms: N_7  and  C_8
REMARK    3  A    between atoms: C_12  and  C_13
REMARK    4  A    between atoms: C_13  and  C_14
REMARK    5  A    between atoms: C_13  and  C_15
REMARK    6  A    between atoms: C_15  and  N_16
REMARK    7  A    between atoms: N_16  and  C_17
REMARK    8  A    between atoms: C_20  and  S_21
REMARK    9  A    between atoms: S_21  and  N_22
REMARK                            x       y       z     vdW  Elec       q    Type
REMARK                         _______ _______ _______ _____ _____    ______ ____
ROOT
ATOM      1  C   UNL     1      45.849   6.079  12.016  0.00  0.00    +0.000 C 
ATOM      2  C   UNL     1      45.506   7.571  11.948  0.00  0.00    +0.000 C 
ENDROOT
BRANCH   1   7
ATOM      3  C   UNL     1      48.231   6.387  15.040  0.00  0.00    +0.000 A 
ATOM      4  C   UNL     1      47.977   5.156  15.654  0.00  0.00    +0.000 A 
ATOM      5  C   UNL     1      47.070   4.236  15.114  0.00  0.00    +0.000 A 
ATOM      6  C   UNL     1      46.385   4.533  13.941  0.00  0.00    +0.000 A 
ATOM      7  C   UNL     1      46.610   5.748  13.288  0.00  0.00    +0.000 A 
ATOM      8  C   UNL     1      47.541   6.644  13.840  0.00  0.00    +0.000 A 
BRANCH   3  15
ATOM      9  C   UNL     1      48.803   9.538  16.558  0.00  0.00    +0.000 C 
ATOM     10  C   UNL     1      48.807   8.030  16.810  0.00  0.00    +0.000 C 
ATOM     11  C   UNL     1      49.820   7.635  17.908  0.00  0.00    +0.000 C 
ATOM     12  O   UNL     1      51.183   7.801  17.486  0.00  0.00    +0.000 OA
ATOM     13  C   UNL     1      51.444   6.970  16.342  0.00  0.00    +0.000 C 
ATOM     14  C   UNL     1      50.545   7.347  15.159  0.00  0.00    +0.000 C 
ATOM     15  N   UNL     1      49.125   7.319  15.545  0.00  0.00    +0.000 N 
ENDBRANCH   3  15
ENDBRANCH   1   7
BRANCH   1  16
ATOM     16  C   UNL     1      44.561   5.238  11.834  0.00  0.00    +0.000 C 
BRANCH  16  17
ATOM     17  N   UNL     1      44.177   5.069  10.431  0.00  0.00    +0.000 N 
ATOM     18  H   UNL     1      43.763   5.905  10.025  0.00  0.00    +0.000 HD
BRANCH  17  19
ATOM     19  C   UNL     1      44.925   4.309   9.541  0.00  0.00    +0.000 A 
ATOM     20  C   UNL     1      44.827   2.918   9.439  0.00  0.00    +0.000 A 
ATOM     21  C   UNL     1      45.521   2.218   8.457  0.00  0.00    +0.000 A 
ATOM     22  C   UNL     1      46.309   2.953   7.595  0.00  0.00    +0.000 A 
ATOM     23  N   UNL     1      46.459   4.306   7.621  0.00  0.00    +0.000 NA
ATOM     24  C   UNL     1      45.739   4.937   8.583  0.00  0.00    +0.000 A 
BRANCH  22  25
ATOM     25  S   UNL     1      47.221   2.116   6.309  0.00  0.00    +0.000 S 
ATOM     26  O   UNL     1      47.211   0.704   6.618  0.00  0.00    +0.000 OA
ATOM     27  O   UNL     1      46.779   2.647   5.039  0.00  0.00    +0.000 OA
BRANCH  25  28
ATOM     28  N   UNL     1      48.805   2.665   6.551  0.00  0.00    +0.000 NA
ATOM     29  H   UNL     1      48.781   3.629   6.887  0.00  0.00    +0.000 HD
ATOM     30  H   UNL     1      49.315   2.597   5.668  0.00  0.00    +0.000 HD
ENDBRANCH  25  28
ENDBRANCH  22  25
ENDBRANCH  17  19
ENDBRANCH  16  17
ENDBRANCH   1  16
TORSDOF 7
ENDMDL
MODEL 5
REMARK VINA RESULT:    -7.007      4.250      8.024
REMARK INTER + INTRA:         -10.715
REMARK INTER:                  -9.594
REMARK INTRA:                  -1.120
REMARK UNBOUND:                -1.045
REMARK  Name = 
REMARK  9 active torsions:
REMARK  status: ('A' for Active; 'I' for Inactive)
REMARK    1  A    between atoms: C_1  and  C_2
REMARK    2  A    between atoms: N_7  and  C_8
REMARK    3  A    between atoms: C_12  and  C_13
REMARK    4  A    between atoms: C_13  and  C_14
REMARK    5  A    between atoms: C_13  and  C_15
REMARK    6  A    between atoms: C_15  and  N_16
REMARK    7  A    between atoms: N_16  and  C_17
REMARK    8  A    between atoms: C_20  and  S_21
REMARK    9  A    between atoms: S_21  and  N_22
REMARK                            x       y       z     vdW  Elec       q    Type
REMARK                         _______ _______ _______ _____ _____    ______ ____
ROOT
ATOM      1  C   UNL     1      49.058   8.947  12.179  0.00  0.00    +0.000 C 
ATOM      2  C   UNL     1      49.942   7.985  11.378  0.00  0.00    +0.000 C 
ENDROOT
BRANCH   1   7
ATOM      3  C   UNL     1      45.847   6.837  11.793  0.00  0.00    +0.000 A 
ATOM      4  C   UNL     1      44.892   7.851  11.927  0.00  0.00    +0.000 A 
ATOM      5  C   UNL     1      45.260   9.187  12.129  0.00  0.00    +0.000 A 
ATOM      6  C   UNL     1      46.603   9.540  12.209  0.00  0.00    +0.000 A 
ATOM      7  C   UNL     1      47.592   8.563  12.074  0.00  0.00    +0.000 A 
ATOM      8  C   UNL     1      47.196   7.233  11.851  0.00  0.00    +0.000 A 
BRANCH   3  15
ATOM      9  C   UNL     1      46.021   3.464  12.867  0.00  0.00    +0.000 C 
ATOM     10  C   UNL     1      45.090   4.671  12.741  0.00  0.00    +0.000 C 
ATOM     11  C   UNL     1      43.616   4.240  12.564  0.00  0.00    +0.000 C 
ATOM     12  O   UNL     1      43.370   3.626  11.290  0.00  0.00    +0.000 OA
ATOM     13  C   UNL     1      43.677   4.552  10.234  0.00  0.00    +0.000 C 
ATOM     14  C   UNL     1      45.151   4.972  10.267  0.00  0.00    +0.000 C 
ATOM     15  N   UNL     1      45.518   5.505  11.588  0.00  0.00    +0.000 N 
ENDBRANCH   3  15
ENDBRANCH   1   7
BRANCH   1  16
ATOM     16  C   UNL     1      49.568   9.033  13.638  0.00  0.00    +0.000 C 
BRANCH  16  17
ATOM     17  N   UNL     1      50.271   7.825  14.075  0.00  0.00    +0.000 N 
ATOM     18  H   UNL     1      51.275   7.958  14.170  0.00  0.00    +0.000 HD
BRANCH  17  19
ATOM     19  C   UNL     1      49.722   6.932  14.987  0.00  0.00    +0.000 A 
ATOM     20  C   UNL     1      50.200   6.767  16.290  0.00  0.00    +0.000 A 
ATOM     21  C   UNL     1      49.546   5.937  17.196  0.00  0.00    +0.000 A 
ATOM     22  C   UNL     1      48.414   5.285  16.751  0.00  0.00    +0.000 A 
ATOM     23  N   UNL     1      47.880   5.391  15.504  0.00  0.00    +0.000 NA
ATOM     24  C   UNL     1      48.544   6.234  14.673  0.00  0.00    +0.000 A 
BRANCH  22  25
ATOM     25  S   UNL     1      47.526   4.209  17.865  0.00  0.00    +0.000 S 
ATOM     26  O   UNL     1      46.671   3.363  17.063  0.00  0.00    +0.000 OA
ATOM     27  O   UNL     1      48.475   3.687  18.822  0.00  0.00    +0.000 OA
BRANCH  25  28
ATOM     28  N   UNL     1      46.517   5.282  18.702  0.00  0.00    +0.000 NA
ATOM     29  H   UNL     1      46.668   5.175  19.706  0.00  0.00    +0.000 HD
ATOM     30  H   UNL     1      45.546   5.080  18.454  0.00  0.00    +0.000 HD
ENDBRANCH  25  28
ENDBRANCH  22  25
ENDBRANCH  17  19
ENDBRANCH  16  17
ENDBRANCH   1  16
TORSDOF 7
ENDMDL
MODEL 6
REMARK VINA RESULT:    -6.655      3.731      5.954
REMARK INTER + INTRA:         -10.228
REMARK INTER:                  -9.004
REMARK INTRA:                  -1.224
REMARK UNBOUND:                -1.045
REMARK  Name = 
REMARK  9 active torsions:
REMARK  status: ('A' for Active; 'I' for Inactive)
REMARK    1  A    between atoms: C_1  and  C_2
REMARK    2  A    between atoms: N_7  and  C_8
REMARK    3  A    between atoms: C_12  and  C_13
REMARK    4  A    between atoms: C_13  and  C_14
REMARK    5  A    between atoms: C_13  and  C_15
REMARK    6  A    between atoms: C_15  and  N_16
REMARK    7  A    between atoms: N_16  and  C_17
REMARK    8  A    between atoms: C_20  and  S_21
REMARK    9  A    between atoms: S_21  and  N_22
REMARK                            x       y       z     vdW  Elec       q    Type
REMARK                         _______ _______ _______ _____ _____    ______ ____
ROOT
ATOM      1  C   UNL     1      48.918   7.850  13.027  0.00  0.00    +0.000 C 
ATOM      2  C   UNL     1      49.861   8.482  11.997  0.00  0.00    +0.000 C 
ENDROOT
BRANCH   1   7
ATOM      3  C   UNL     1      49.797   6.210  16.411  0.00  0.00    +0.000 A 
ATOM      4  C   UNL     1      51.043   6.808  16.635  0.00  0.00    +0.000 A 
ATOM      5  C   UNL     1      51.594   7.724  15.731  0.00  0.00    +0.000 A 
ATOM      6  C   UNL     1      50.908   8.061  14.569  0.00  0.00    +0.000 A 
ATOM      7  C   UNL     1      49.658   7.495  14.306  0.00  0.00    +0.000 A 
ATOM      8  C   UNL     1      49.119   6.594  15.239  0.00  0.00    +0.000 A 
BRANCH   3  15
ATOM      9  C   UNL     1      47.135   5.361  18.591  0.00  0.00    +0.000 C 
ATOM     10  C   UNL     1      47.758   5.055  17.227  0.00  0.00    +0.000 C 
ATOM     11  C   UNL     1      47.484   3.598  16.787  0.00  0.00    +0.000 C 
ATOM     12  O   UNL     1      48.195   2.639  17.584  0.00  0.00    +0.000 OA
ATOM     13  C   UNL     1      49.611   2.863  17.472  0.00  0.00    +0.000 C 
ATOM     14  C   UNL     1      49.999   4.259  17.974  0.00  0.00    +0.000 C 
ATOM     15  N   UNL     1      49.221   5.302  17.287  0.00  0.00    +0.000 N 
ENDBRANCH   3  15
ENDBRANCH   1   7
BRANCH   1  16
ATOM     16  C   UNL     1      47.700   8.778  13.260  0.00  0.00    +0.000 C 
BRANCH  16  17
ATOM     17  N   UNL     1      46.480   8.049  13.612  0.00  0.00    +0.000 N 
ATOM     18  H   UNL     1      45.739   8.653  13.962  0.00  0.00    +0.000 HD
BRANCH  17  19
ATOM     19  C   UNL     1      46.031   6.953  12.887  0.00  0.00    +0.000 A 
ATOM     20  C   UNL     1      46.040   5.644  13.379  0.00  0.00    +0.000 A 
ATOM     21  C   UNL     1      45.481   4.599  12.651  0.00  0.00    +0.000 A 
ATOM     22  C   UNL     1      44.923   4.908  11.427  0.00  0.00    +0.000 A 
ATOM     23  N   UNL     1      44.869   6.152  10.876  0.00  0.00    +0.000 NA
ATOM     24  C   UNL     1      45.406   7.135  11.642  0.00  0.00    +0.000 A 
BRANCH  22  25
ATOM     25  S   UNL     1      44.184   3.613  10.446  0.00  0.00    +0.000 S 
ATOM     26  O   UNL     1      45.233   2.686  10.088  0.00  0.00    +0.000 OA
ATOM     27  O   UNL     1      42.964   3.204  11.105  0.00  0.00    +0.000 OA
BRANCH  25  28
ATOM     28  N   UNL     1      43.734   4.424   9.028  0.00  0.00    +0.000 NA
ATOM     29  H   UNL     1      43.929   3.828   8.222  0.00  0.00    +0.000 HD
ATOM     30  H   UNL     1      44.256   5.300   8.972  0.00  0.00    +0.000 HD
ENDBRANCH  25  28
ENDBRANCH  22  25
ENDBRANCH  17  19
ENDBRANCH  16  17
ENDBRANCH   1  16
TORSDOF 7
ENDMDL
MODEL 7
REMARK VINA RESULT:    -6.513      4.615      6.991
REMARK INTER + INTRA:         -10.032
REMARK INTER:                  -8.853
REMARK INTRA:                  -1.180
REMARK UNBOUND:                -1.045
REMARK  Name = 
REMARK  9 active torsions:
REMARK  status: ('A' for Active; 'I' for Inactive)
REMARK    1  A    between atoms: C_1  and  C_2
REMARK    2  A    between atoms: N_7  and  C_8
REMARK    3  A    between atoms: C_12  and  C_13
REMARK    4  A    between atoms: C_13  and  C_14
REMARK    5  A    between atoms: C_13  and  C_15
REMARK    6  A    between atoms: C_15  and  N_16
REMARK    7  A    between atoms: N_16  and  C_17
REMARK    8  A    between atoms: C_20  and  S_21
REMARK    9  A    between atoms: S_21  and  N_22
REMARK                            x       y       z     vdW  Elec       q    Type
REMARK                         _______ _______ _______ _____ _____    ______ ____
ROOT
ATOM      1  C   UNL     1      50.475   8.093  14.556  0.00  0.00    +0.000 C 
ATOM      2  C   UNL     1      50.733   9.545  14.974  0.00  0.00    +0.000 C 
ENDROOT
BRANCH   1   7
ATOM      3  C   UNL     1      50.508   5.313  17.236  0.00  0.00    +0.000 A 
ATOM      4  C   UNL     1      51.876   5.301  17.533  0.00  0.00    +0.000 A 
ATOM      5  C   UNL     1      52.775   6.167  16.898  0.00  0.00    +0.000 A 
ATOM      6  C   UNL     1      52.323   7.068  15.940  0.00  0.00    +0.000 A 
ATOM      7  C   UNL     1      50.965   7.121  15.616  0.00  0.00    +0.000 A 
ATOM      8  C   UNL     1      50.081   6.256  16.282  0.00  0.00    +0.000 A 
BRANCH   3  15
ATOM      9  C   UNL     1      48.615   4.457  20.108  0.00  0.00    +0.000 C 
ATOM     10  C   UNL     1      48.522   5.053  18.702  0.00  0.00    +0.000 C 
ATOM     11  C   UNL     1      47.137   4.798  18.063  0.00  0.00    +0.000 C 
ATOM     12  O   UNL     1      46.925   3.415  17.740  0.00  0.00    +0.000 OA
ATOM     13  C   UNL     1      47.919   2.975  16.800  0.00  0.00    +0.000 C 
ATOM     14  C   UNL     1      49.333   3.102  17.379  0.00  0.00    +0.000 C 
ATOM     15  N   UNL     1      49.590   4.473  17.848  0.00  0.00    +0.000 N 
ENDBRANCH   3  15
ENDBRANCH   1   7
BRANCH   1  16
ATOM     16  C   UNL     1      48.979   7.910  14.199  0.00  0.00    +0.000 C 
BRANCH  16  17
ATOM     17  N   UNL     1      48.765   7.030  13.048  0.00  0.00    +0.000 N 
ATOM     18  H   UNL     1      49.613   6.558  12.742  0.00  0.00    +0.000 HD
BRANCH  17  19
ATOM     19  C   UNL     1      47.603   6.287  12.885  0.00  0.00    +0.000 A 
ATOM     20  C   UNL     1      47.110   5.402  13.848  0.00  0.00    +0.000 A 
ATOM     21  C   UNL     1      45.885   4.764  13.678  0.00  0.00    +0.000 A 
ATOM     22  C   UNL     1      45.185   5.038  12.521  0.00  0.00    +0.000 A 
ATOM     23  N   UNL     1      45.589   5.886  11.536  0.00  0.00    +0.000 NA
ATOM     24  C   UNL     1      46.777   6.499  11.769  0.00  0.00    +0.000 A 
BRANCH  22  25
ATOM     25  S   UNL     1      43.604   4.255  12.245  0.00  0.00    +0.000 S 
ATOM     26  O   UNL     1      42.697   4.737  13.261  0.00  0.00    +0.000 OA
ATOM     27  O   UNL     1      43.316   4.335  10.830  0.00  0.00    +0.000 OA
BRANCH  25  28
ATOM     28  N   UNL     1      43.922   2.629  12.595  0.00  0.00    +0.000 NA
ATOM     29  H   UNL     1      44.122   2.531  13.591  0.00  0.00    +0.000 HD
ATOM     30  H   UNL     1      44.716   2.321  12.030  0.00  0.00    +0.000 HD
ENDBRANCH  25  28
ENDBRANCH  22  25
ENDBRANCH  17  19
ENDBRANCH  16  17
ENDBRANCH   1  16
TORSDOF 7
ENDMDL
MODEL 8
REMARK VINA RESULT:    -6.129      4.551      8.119
REMARK INTER + INTRA:          -9.503
REMARK INTER:                  -8.214
REMARK INTRA:                  -1.288
REMARK UNBOUND:                -1.045
REMARK  Name = 
REMARK  9 active torsions:
REMARK  status: ('A' for Active; 'I' for Inactive)
REMARK    1  A    between atoms: C_1  and  C_2
REMARK    2  A    between atoms: N_7  and  C_8
REMARK    3  A    between atoms: C_12  and  C_13
REMARK    4  A    between atoms: C_13  and  C_14
REMARK    5  A    between atoms: C_13  and  C_15
REMARK    6  A    between atoms: C_15  and  N_16
REMARK    7  A    between atoms: N_16  and  C_17
REMARK    8  A    between atoms: C_20  and  S_21
REMARK    9  A    between atoms: S_21  and  N_22
REMARK                            x       y       z     vdW  Elec       q    Type
REMARK                         _______ _______ _______ _____ _____    ______ ____
ROOT
ATOM      1  C   UNL     1      48.592   9.713  14.577  0.00  0.00    +0.000 C 
ATOM      2  C   UNL     1      48.895  11.086  13.967  0.00  0.00    +0.000 C 
ENDROOT
BRANCH   1   7
ATOM      3  C   UNL     1      47.000   6.761  12.664  0.00  0.00    +0.000 A 
ATOM      4  C   UNL     1      47.761   6.814  11.491  0.00  0.00    +0.000 A 
ATOM      5  C   UNL     1      48.770   7.768  11.310  0.00  0.00    +0.000 A 
ATOM      6  C   UNL     1      49.039   8.701  12.306  0.00  0.00    +0.000 A 
ATOM      7  C   UNL     1      48.310   8.682  13.497  0.00  0.00    +0.000 A 
ATOM      8  C   UNL     1      47.317   7.702  13.661  0.00  0.00    +0.000 A 
BRANCH   3  15
ATOM      9  C   UNL     1      43.559   5.919  12.546  0.00  0.00    +0.000 C 
ATOM     10  C   UNL     1      44.911   5.677  11.873  0.00  0.00    +0.000 C 
ATOM     11  C   UNL     1      44.984   4.277  11.222  0.00  0.00    +0.000 C 
ATOM     12  O   UNL     1      45.018   3.219  12.192  0.00  0.00    +0.000 OA
ATOM     13  C   UNL     1      46.176   3.363  13.032  0.00  0.00    +0.000 C 
ATOM     14  C   UNL     1      46.151   4.690  13.797  0.00  0.00    +0.000 C 
ATOM     15  N   UNL     1      45.996   5.828  12.877  0.00  0.00    +0.000 N 
ENDBRANCH   3  15
ENDBRANCH   1   7
BRANCH   1  16
ATOM     16  C   UNL     1      49.737   9.302  15.535  0.00  0.00    +0.000 C 
BRANCH  16  17
ATOM     17  N   UNL     1      49.260   8.859  16.846  0.00  0.00    +0.000 N 
ATOM     18  H   UNL     1      48.631   9.524  17.290  0.00  0.00    +0.000 HD
BRANCH  17  19
ATOM     19  C   UNL     1      48.976   7.528  17.124  0.00  0.00    +0.000 A 
ATOM     20  C   UNL     1      48.204   7.114  18.214  0.00  0.00    +0.000 A 
ATOM     21  C   UNL     1      47.861   5.776  18.385  0.00  0.00    +0.000 A 
ATOM     22  C   UNL     1      48.318   4.881  17.439  0.00  0.00    +0.000 A 
ATOM     23  N   UNL     1      49.069   5.198  16.350  0.00  0.00    +0.000 NA
ATOM     24  C   UNL     1      49.351   6.520  16.221  0.00  0.00    +0.000 A 
BRANCH  22  25
ATOM     25  S   UNL     1      47.909   3.150  17.598  0.00  0.00    +0.000 S 
ATOM     26  O   UNL     1      46.498   3.010  17.319  0.00  0.00    +0.000 OA
ATOM     27  O   UNL     1      48.927   2.393  16.906  0.00  0.00    +0.000 OA
BRANCH  25  28
ATOM     28  N   UNL     1      48.117   2.863  19.254  0.00  0.00    +0.000 NA
ATOM     29  H   UNL     1      47.727   3.644  19.784  0.00  0.00    +0.000 HD
ATOM     30  H   UNL     1      49.115   2.754  19.445  0.00  0.00    +0.000 HD
ENDBRANCH  25  28
ENDBRANCH  22  25
ENDBRANCH  17  19
ENDBRANCH  16  17
ENDBRANCH   1  16
TORSDOF 7
ENDMDL
MODEL 9
REMARK VINA RESULT:    -6.030      4.319      6.597
REMARK INTER + INTRA:          -9.367
REMARK INTER:                  -7.921
REMARK INTRA:                  -1.446
REMARK UNBOUND:                -1.045
REMARK  Name = 
REMARK  9 active torsions:
REMARK  status: ('A' for Active; 'I' for Inactive)
REMARK    1  A    between atoms: C_1  and  C_2
REMARK    2  A    between atoms: N_7  and  C_8
REMARK    3  A    between atoms: C_12  and  C_13
REMARK    4  A    between atoms: C_13  and  C_14
REMARK    5  A    between atoms: C_13  and  C_15
REMARK    6  A    between atoms: C_15  and  N_16
REMARK    7  A    between atoms: N_16  and  C_17
REMARK    8  A    between atoms: C_20  and  S_21
REMARK    9  A    between atoms: S_21  and  N_22
REMARK                            x       y       z     vdW  Elec       q    Type
REMARK                         _______ _______ _______ _____ _____    ______ ____
ROOT
ATOM      1  C   UNL     1      49.678   8.768  14.049  0.00  0.00    +0.000 C 
ATOM      2  C   UNL     1      49.045   9.929  13.273  0.00  0.00    +0.000 C 
ENDROOT
BRANCH   1   7
ATOM      3  C   UNL     1      48.435   7.251  17.375  0.00  0.00    +0.000 A 
ATOM      4  C   UNL     1      48.017   8.423  18.016  0.00  0.00    +0.000 A 
ATOM      5  C   UNL     1      48.120   9.676  17.400  0.00  0.00    +0.000 A 
ATOM      6  C   UNL     1      48.654   9.787  16.121  0.00  0.00    +0.000 A 
ATOM      7  C   UNL     1      49.079   8.644  15.439  0.00  0.00    +0.000 A 
ATOM      8  C   UNL     1      48.945   7.396  16.071  0.00  0.00    +0.000 A 
BRANCH   3  15
ATOM      9  C   UNL     1      47.111   3.964  17.309  0.00  0.00    +0.000 C 
ATOM     10  C   UNL     1      48.382   4.785  17.091  0.00  0.00    +0.000 C 
ATOM     11  C   UNL     1      49.655   3.961  17.391  0.00  0.00    +0.000 C 
ATOM     12  O   UNL     1      49.807   3.671  18.789  0.00  0.00    +0.000 OA
ATOM     13  C   UNL     1      49.903   4.897  19.534  0.00  0.00    +0.000 C 
ATOM     14  C   UNL     1      48.640   5.750  19.375  0.00  0.00    +0.000 C 
ATOM     15  N   UNL     1      48.344   5.994  17.954  0.00  0.00    +0.000 N 
ENDBRANCH   3  15
ENDBRANCH   1   7
BRANCH   1  16
ATOM     16  C   UNL     1      49.576   7.466  13.217  0.00  0.00    +0.000 C 
BRANCH  16  17
ATOM     17  N   UNL     1      48.474   7.482  12.253  0.00  0.00    +0.000 N 
ATOM     18  H   UNL     1      48.775   7.686  11.303  0.00  0.00    +0.000 HD
BRANCH  17  19
ATOM     19  C   UNL     1      47.397   6.609  12.339  0.00  0.00    +0.000 A 
ATOM     20  C   UNL     1      47.177   5.758  13.426  0.00  0.00    +0.000 A 
ATOM     21  C   UNL     1      46.025   4.981  13.508  0.00  0.00    +0.000 A 
ATOM     22  C   UNL     1      45.118   5.085  12.475  0.00  0.00    +0.000 A 
ATOM     23  N   UNL     1      45.251   5.888  11.384  0.00  0.00    +0.000 NA
ATOM     24  C   UNL     1      46.380   6.641  11.370  0.00  0.00    +0.000 A 
BRANCH  22  25
ATOM     25  S   UNL     1      43.617   4.119  12.523  0.00  0.00    +0.000 S 
ATOM     26  O   UNL     1      43.984   2.764  12.866  0.00  0.00    +0.000 OA
ATOM     27  O   UNL     1      42.629   4.877  13.257  0.00  0.00    +0.000 OA
BRANCH  25  28
ATOM     28  N   UNL     1      43.126   4.103  10.902  0.00  0.00    +0.000 NA
ATOM     29  H   UNL     1      43.596   3.340  10.413  0.00  0.00    +0.000 HD
ATOM     30  H   UNL     1      43.356   5.005  10.481  0.00  0.00    +0.000 HD
ENDBRANCH  25  28
ENDBRANCH  22  25
ENDBRANCH  17  19
ENDBRANCH  16  17
ENDBRANCH   1  16
TORSDOF 7
ENDMDL
