MODEL 1
REMARK VINA RESULT:    -8.274      0.000      0.000
REMARK INTER + INTRA:         -11.541
REMARK INTER:                 -10.693
REMARK INTRA:                  -0.848
REMARK UNBOUND:                -0.848
REMARK  Name = 
REMARK  5 active torsions:
REMARK  status: ('A' for Active; 'I' for Inactive)
REMARK    1  A    between atoms: C_2  and  C_3
REMARK    2  A    between atoms: C_10  and  C_11
REMARK    3  A    between atoms: C_11  and  N_12
REMARK    4  A    between atoms: N_12  and  C_13
REMARK    5  A    between atoms: C_16  and  C_17
REMARK                            x       y       z     vdW  Elec       q    Type
REMARK                         _______ _______ _______ _____ _____    ______ ____
ROOT
ATOM      1  C   UNL     1      43.953   5.086  11.575  0.00  0.00    +0.000 C 
ATOM      2  C   UNL     1      43.128   6.241  11.044  0.00  0.00    +0.000 C 
ATOM      3  C   UNL     1      42.604   5.445  12.192  0.00  0.00    +0.000 C 
ENDROOT
BRANCH   1  11
ATOM      4  C   UNL     1      48.818   9.429  11.949  0.00  0.00    +0.000 C 
ATOM      5  C   UNL     1      49.460  10.047  13.191  0.00  0.00    +0.000 C 
ATOM      6  C   UNL     1      49.277   9.149  14.415  0.00  0.00    +0.000 C 
ATOM      7  C   UNL     1      47.809   8.821  14.667  0.00  0.00    +0.000 C 
ATOM      8  N   UNL     1      47.106   8.402  13.456  0.00  0.00    +0.000 N 
ATOM      9  C   UNL     1      46.745   7.063  13.330  0.00  0.00    +0.000 A 
ATOM     10  C   UNL     1      45.615   6.738  12.573  0.00  0.00    +0.000 A 
ATOM     11  C   UNL     1      45.207   5.414  12.380  0.00  0.00    +0.000 A 
ATOM     12  C   UNL     1      46.004   4.434  12.973  0.00  0.00    +0.000 A 
ATOM     13  C   UNL     1      47.091   4.822  13.741  0.00  0.00    +0.000 A 
ATOM     14  N   UNL     1      47.461   6.106  13.944  0.00  0.00    +0.000 NA
ATOM     15  C   UNL     1      47.336   9.138  12.207  0.00  0.00    +0.000 C 
BRANCH   4  17
ATOM     16  N   UNL     1      50.171   7.317  11.131  0.00  0.00    +0.000 NA
ATOM     17  C   UNL     1      49.545   8.231  11.492  0.00  0.00    +0.000 C 
ENDBRANCH   4  17
ENDBRANCH   1  11
BRANCH   1  18
ATOM     18  N   UNL     1      43.979   3.777  10.910  0.00  0.00    +0.000 N 
ATOM     19  H   UNL     1      43.575   3.001  11.422  0.00  0.00    +0.000 HD
BRANCH  18  20
ATOM     20  C   UNL     1      44.719   3.402   9.776  0.00  0.00    +0.000 A 
ATOM     21  C   UNL     1      45.022   2.082   9.432  0.00  0.00    +0.000 A 
ATOM     22  C   UNL     1      45.865   1.796   8.346  0.00  0.00    +0.000 A 
ATOM     23  C   UNL     1      46.424   2.832   7.587  0.00  0.00    +0.000 A 
ATOM     24  C   UNL     1      46.109   4.153   7.903  0.00  0.00    +0.000 A 
ATOM     25  C   UNL     1      45.266   4.426   8.986  0.00  0.00    +0.000 A 
BRANCH  23  26
ATOM     26  C   UNL     1      47.401   2.493   6.519  0.00  0.00    +0.000 C 
ATOM     27  N   UNL     1      47.338   3.203   5.352  0.00  0.00    +0.000 N 
ATOM     28  O   UNL     1      48.231   1.604   6.668  0.00  0.00    +0.000 OA
ATOM     29  H   UNL     1      46.571   3.813   5.110  0.00  0.00    +0.000 HD
ATOM     30  H   UNL     1      47.978   2.930   4.617  0.00  0.00    +0.000 HD
ENDBRANCH  23  26
ENDBRANCH  18  20
ENDBRANCH   1  18
TORSDOF 5
ENDMDL
MODEL 2
REMARK VINA RESULT:    -7.958      1.377      2.616
REMARK INTER + INTRA:         -11.132
REMARK INTER:                 -10.586
REMARK INTRA:                  -0.545
REMARK UNBOUND:                -0.848
REMARK  Name = 
REMARK  5 active torsions:
REMARK  status: ('A' for Active; 'I' for Inactive)
REMARK    1  A    between atoms: C_2  and  C_3
REMARK    2  A    between atoms: C_10  and  C_11
REMARK    3  A    between atoms: C_11  and  N_12
REMARK    4  A    between atoms: N_12  and  C_13
REMARK    5  A    between atoms: C_16  and  C_17
REMARK                            x       y       z     vdW  Elec       q    Type
REMARK                         _______ _______ _______ _____ _____    ______ ____
ROOT
ATOM      1  C   UNL     1      44.030   5.287  11.581  0.00  0.00    +0.000 C 
ATOM      2  C   UNL     1      42.986   5.049  12.654  0.00  0.00    +0.000 C 
ATOM      3  C   UNL     1      44.212   4.199  12.637  0.00  0.00    +0.000 C 
ENDROOT
BRANCH   1  11
ATOM      4  C   UNL     1      49.613   7.418  14.218  0.00  0.00    +0.000 C 
ATOM      5  C   UNL     1      50.666   8.347  13.615  0.00  0.00    +0.000 C 
ATOM      6  C   UNL     1      50.064   9.238  12.529  0.00  0.00    +0.000 C 
ATOM      7  C   UNL     1      49.371   8.422  11.442  0.00  0.00    +0.000 C 
ATOM      8  N   UNL     1      48.489   7.390  11.983  0.00  0.00    +0.000 N 
ATOM      9  C   UNL     1      47.113   7.566  11.866  0.00  0.00    +0.000 A 
ATOM     10  C   UNL     1      46.294   6.436  11.788  0.00  0.00    +0.000 A 
ATOM     11  C   UNL     1      44.901   6.534  11.696  0.00  0.00    +0.000 A 
ATOM     12  C   UNL     1      44.375   7.827  11.704  0.00  0.00    +0.000 A 
ATOM     13  C   UNL     1      45.243   8.908  11.747  0.00  0.00    +0.000 A 
ATOM     14  N   UNL     1      46.589   8.802  11.809  0.00  0.00    +0.000 NA
ATOM     15  C   UNL     1      48.951   6.582  13.118  0.00  0.00    +0.000 C 
BRANCH   4  17
ATOM     16  N   UNL     1      47.872   8.792  15.646  0.00  0.00    +0.000 NA
ATOM     17  C   UNL     1      48.622   8.157  15.022  0.00  0.00    +0.000 C 
ENDBRANCH   4  17
ENDBRANCH   1  11
BRANCH   1  18
ATOM     18  N   UNL     1      43.873   4.775  10.215  0.00  0.00    +0.000 N 
ATOM     19  H   UNL     1      42.928   4.742   9.849  0.00  0.00    +0.000 HD
BRANCH  18  20
ATOM     20  C   UNL     1      44.819   4.082   9.441  0.00  0.00    +0.000 A 
ATOM     21  C   UNL     1      45.701   4.688   8.543  0.00  0.00    +0.000 A 
ATOM     22  C   UNL     1      46.536   3.914   7.721  0.00  0.00    +0.000 A 
ATOM     23  C   UNL     1      46.498   2.515   7.782  0.00  0.00    +0.000 A 
ATOM     24  C   UNL     1      45.641   1.897   8.692  0.00  0.00    +0.000 A 
ATOM     25  C   UNL     1      44.814   2.679   9.508  0.00  0.00    +0.000 A 
BRANCH  23  26
ATOM     26  C   UNL     1      47.313   1.731   6.817  0.00  0.00    +0.000 C 
ATOM     27  N   UNL     1      48.348   2.370   6.192  0.00  0.00    +0.000 N 
ATOM     28  O   UNL     1      47.067   0.555   6.577  0.00  0.00    +0.000 OA
ATOM     29  H   UNL     1      48.481   3.371   6.216  0.00  0.00    +0.000 HD
ATOM     30  H   UNL     1      48.863   1.838   5.503  0.00  0.00    +0.000 HD
ENDBRANCH  23  26
ENDBRANCH  18  20
ENDBRANCH   1  18
TORSDOF 5
ENDMDL
MODEL 3
REMARK VINA RESULT:    -6.535      3.972      6.174
REMARK INTER + INTRA:          -9.293
REMARK INTER:                  -8.631
REMARK INTRA:                  -0.663
REMARK UNBOUND:                -0.848
REMARK  Name = 
REMARK  5 active torsions:
REMARK  status: ('A' for Active; 'I' for Inactive)
REMARK    1  A    between atoms: C_2  and  C_3
REMARK    2  A    between atoms: C_10  and  C_11
REMARK    3  A    between atoms: C_11  and  N_12
REMARK    4  A    between atoms: N_12  and  C_13
REMARK    5  A    between atoms: C_16  and  C_17
REMARK                            x       y       z     vdW  Elec       q    Type
REMARK                         _______ _______ _______ _____ _____    ______ ____
ROOT
ATOM      1  C   UNL     1      48.481   7.354  13.611  0.00  0.00    +0.000 C 
ATOM      2  C   UNL     1      49.275   7.464  12.325  0.00  0.00    +0.000 C 
ATOM      3  C   UNL     1      48.760   8.709  12.967  0.00  0.00    +0.000 C 
ENDROOT
BRANCH   1  11
ATOM      4  C   UNL     1      47.552   6.280  19.987  0.00  0.00    +0.000 C 
ATOM      5  C   UNL     1      48.205   5.234  20.889  0.00  0.00    +0.000 C 
ATOM      6  C   UNL     1      49.556   4.786  20.333  0.00  0.00    +0.000 C 
ATOM      7  C   UNL     1      49.440   4.274  18.900  0.00  0.00    +0.000 C 
ATOM      8  N   UNL     1      48.658   5.161  18.042  0.00  0.00    +0.000 N 
ATOM      9  C   UNL     1      49.325   5.900  17.069  0.00  0.00    +0.000 A 
ATOM     10  C   UNL     1      48.641   6.248  15.900  0.00  0.00    +0.000 A 
ATOM     11  C   UNL     1      49.238   7.012  14.891  0.00  0.00    +0.000 A 
ATOM     12  C   UNL     1      50.551   7.421  15.127  0.00  0.00    +0.000 A 
ATOM     13  C   UNL     1      51.187   7.013  16.290  0.00  0.00    +0.000 A 
ATOM     14  N   UNL     1      50.610   6.252  17.246  0.00  0.00    +0.000 NA
ATOM     15  C   UNL     1      47.411   5.737  18.562  0.00  0.00    +0.000 C 
BRANCH   4  17
ATOM     16  N   UNL     1      48.799   8.604  20.015  0.00  0.00    +0.000 NA
ATOM     17  C   UNL     1      48.274   7.564  20.021  0.00  0.00    +0.000 C 
ENDBRANCH   4  17
ENDBRANCH   1  11
BRANCH   1  18
ATOM     18  N   UNL     1      47.063   6.975  13.621  0.00  0.00    +0.000 N 
ATOM     19  H   UNL     1      46.503   7.335  14.385  0.00  0.00    +0.000 HD
BRANCH  18  20
ATOM     20  C   UNL     1      46.434   5.973  12.863  0.00  0.00    +0.000 A 
ATOM     21  C   UNL     1      45.829   6.185  11.622  0.00  0.00    +0.000 A 
ATOM     22  C   UNL     1      45.119   5.156  10.982  0.00  0.00    +0.000 A 
ATOM     23  C   UNL     1      45.000   3.895  11.579  0.00  0.00    +0.000 A 
ATOM     24  C   UNL     1      45.621   3.662  12.806  0.00  0.00    +0.000 A 
ATOM     25  C   UNL     1      46.328   4.694  13.433  0.00  0.00    +0.000 A 
BRANCH  23  26
ATOM     26  C   UNL     1      44.146   2.868  10.925  0.00  0.00    +0.000 C 
ATOM     27  N   UNL     1      44.635   2.254   9.805  0.00  0.00    +0.000 N 
ATOM     28  O   UNL     1      43.039   2.582  11.364  0.00  0.00    +0.000 OA
ATOM     29  H   UNL     1      45.451   2.574   9.304  0.00  0.00    +0.000 HD
ATOM     30  H   UNL     1      44.023   1.592   9.345  0.00  0.00    +0.000 HD
ENDBRANCH  23  26
ENDBRANCH  18  20
ENDBRANCH   1  18
TORSDOF 5
ENDMDL
MODEL 4
REMARK VINA RESULT:    -6.306      4.088      8.468
REMARK INTER + INTRA:          -8.996
REMARK INTER:                  -8.165
REMARK INTRA:                  -0.831
REMARK UNBOUND:                -0.848
REMARK  Name = 
REMARK  5 active torsions:
REMARK  status: ('A' for Active; 'I' for Inactive)
REMARK    1  A    between atoms: C_2  and  C_3
REMARK    2  A    between atoms: C_10  and  C_11
REMARK    3  A    between atoms: C_11  and  N_12
REMARK    4  A    between atoms: N_12  and  C_13
REMARK    5  A    between atoms: C_16  and  C_17
REMARK                            x       y       z     vdW  Elec       q    Type
REMARK                         _______ _______ _______ _____ _____    ______ ____
ROOT
ATOM      1  C   UNL     1      49.003   7.621  13.760  0.00  0.00    +0.000 C 
ATOM      2  C   UNL     1      49.694   8.968  13.679  0.00  0.00    +0.000 C 
ATOM      3  C   UNL     1      50.131   7.874  12.763  0.00  0.00    +0.000 C 
ENDROOT
BRANCH   1  11
ATOM      4  C   UNL     1      44.877   3.354  11.034  0.00  0.00    +0.000 C 
ATOM      5  C   UNL     1      43.379   3.175  11.281  0.00  0.00    +0.000 C 
ATOM      6  C   UNL     1      42.746   4.461  11.812  0.00  0.00    +0.000 C 
ATOM      7  C   UNL     1      43.449   4.964  13.069  0.00  0.00    +0.000 C 
ATOM      8  N   UNL     1      44.905   4.974  12.939  0.00  0.00    +0.000 N 
ATOM      9  C   UNL     1      45.552   6.203  12.832  0.00  0.00    +0.000 A 
ATOM     10  C   UNL     1      46.862   6.318  13.307  0.00  0.00    +0.000 A 
ATOM     11  C   UNL     1      47.585   7.512  13.208  0.00  0.00    +0.000 A 
ATOM     12  C   UNL     1      46.927   8.578  12.593  0.00  0.00    +0.000 A 
ATOM     13  C   UNL     1      45.615   8.411  12.175  0.00  0.00    +0.000 A 
ATOM     14  N   UNL     1      44.916   7.261  12.300  0.00  0.00    +0.000 NA
ATOM     15  C   UNL     1      45.573   3.826  12.314  0.00  0.00    +0.000 C 
BRANCH   4  17
ATOM     16  N   UNL     1      45.326   4.923   8.961  0.00  0.00    +0.000 NA
ATOM     17  C   UNL     1      45.144   4.253   9.896  0.00  0.00    +0.000 C 
ENDBRANCH   4  17
ENDBRANCH   1  11
BRANCH   1  18
ATOM     18  N   UNL     1      49.331   6.638  14.800  0.00  0.00    +0.000 N 
ATOM     19  H   UNL     1      49.811   5.800  14.496  0.00  0.00    +0.000 HD
BRANCH  18  20
ATOM     20  C   UNL     1      48.841   6.581  16.116  0.00  0.00    +0.000 A 
ATOM     21  C   UNL     1      48.930   7.626  17.038  0.00  0.00    +0.000 A 
ATOM     22  C   UNL     1      48.521   7.448  18.369  0.00  0.00    +0.000 A 
ATOM     23  C   UNL     1      48.017   6.215  18.801  0.00  0.00    +0.000 A 
ATOM     24  C   UNL     1      47.898   5.171  17.885  0.00  0.00    +0.000 A 
ATOM     25  C   UNL     1      48.307   5.360  16.560  0.00  0.00    +0.000 A 
BRANCH  23  26
ATOM     26  C   UNL     1      47.702   6.033  20.243  0.00  0.00    +0.000 C 
ATOM     27  N   UNL     1      47.943   4.805  20.795  0.00  0.00    +0.000 N 
ATOM     28  O   UNL     1      47.235   6.942  20.917  0.00  0.00    +0.000 OA
ATOM     29  H   UNL     1      48.153   3.980  20.252  0.00  0.00    +0.000 HD
ATOM     30  H   UNL     1      47.679   4.681  21.764  0.00  0.00    +0.000 HD
ENDBRANCH  23  26
ENDBRANCH  18  20
ENDBRANCH   1  18
TORSDOF 5
ENDMDL
MODEL 5
REMARK VINA RESULT:    -6.146      3.862      6.563
REMARK INTER + INTRA:          -8.790
REMARK INTER:                  -7.872
REMARK INTRA:                  -0.918
REMARK UNBOUND:                -0.848
REMARK  Name = 
REMARK  5 active torsions:
REMARK  status: ('A' for Active; 'I' for Inactive)
REMARK    1  A    between atoms: C_2  and  C_3
REMARK    2  A    between atoms: C_10  and  C_11
REMARK    3  A    between atoms: C_11  and  N_12
REMARK    4  A    between atoms: N_12  and  C_13
REMARK    5  A    between atoms: C_16  and  C_17
REMARK                            x       y       z     vdW  Elec       q    Type
REMARK                         _______ _______ _______ _____ _____    ______ ____
ROOT
ATOM      1  C   UNL     1      49.400   7.880  12.914  0.00  0.00    +0.000 C 
ATOM      2  C   UNL     1      50.740   8.318  12.357  0.00  0.00    +0.000 C 
ATOM      3  C   UNL     1      49.535   9.154  12.083  0.00  0.00    +0.000 C 
ENDROOT
BRANCH   1  11
ATOM      4  C   UNL     1      49.326   4.463  18.480  0.00  0.00    +0.000 C 
ATOM      5  C   UNL     1      49.849   4.863  19.859  0.00  0.00    +0.000 C 
ATOM      6  C   UNL     1      49.894   6.383  20.016  0.00  0.00    +0.000 C 
ATOM      7  C   UNL     1      50.711   7.045  18.911  0.00  0.00    +0.000 C 
ATOM      8  N   UNL     1      50.370   6.550  17.579  0.00  0.00    +0.000 N 
ATOM      9  C   UNL     1      49.671   7.392  16.718  0.00  0.00    +0.000 A 
ATOM     10  C   UNL     1      49.852   7.246  15.339  0.00  0.00    +0.000 A 
ATOM     11  C   UNL     1      49.163   8.038  14.413  0.00  0.00    +0.000 A 
ATOM     12  C   UNL     1      48.272   8.970  14.946  0.00  0.00    +0.000 A 
ATOM     13  C   UNL     1      48.165   9.091  16.323  0.00  0.00    +0.000 A 
ATOM     14  N   UNL     1      48.855   8.339  17.210  0.00  0.00    +0.000 NA
ATOM     15  C   UNL     1      50.178   5.107  17.383  0.00  0.00    +0.000 C 
BRANCH   4  17
ATOM     16  N   UNL     1      46.763   4.989  18.144  0.00  0.00    +0.000 NA
ATOM     17  C   UNL     1      47.894   4.774  18.322  0.00  0.00    +0.000 C 
ENDBRANCH   4  17
ENDBRANCH   1  11
BRANCH   1  18
ATOM     18  N   UNL     1      48.596   6.831  12.276  0.00  0.00    +0.000 N 
ATOM     19  H   UNL     1      48.982   6.411  11.439  0.00  0.00    +0.000 HD
BRANCH  18  20
ATOM     20  C   UNL     1      47.249   6.512  12.517  0.00  0.00    +0.000 A 
ATOM     21  C   UNL     1      46.819   5.388  13.227  0.00  0.00    +0.000 A 
ATOM     22  C   UNL     1      45.453   5.078  13.324  0.00  0.00    +0.000 A 
ATOM     23  C   UNL     1      44.492   5.888  12.706  0.00  0.00    +0.000 A 
ATOM     24  C   UNL     1      44.906   7.027  12.015  0.00  0.00    +0.000 A 
ATOM     25  C   UNL     1      46.270   7.328  11.927  0.00  0.00    +0.000 A 
BRANCH  23  26
ATOM     26  C   UNL     1      43.067   5.463  12.735  0.00  0.00    +0.000 C 
ATOM     27  N   UNL     1      42.225   6.002  11.802  0.00  0.00    +0.000 N 
ATOM     28  O   UNL     1      42.653   4.666  13.567  0.00  0.00    +0.000 OA
ATOM     29  H   UNL     1      42.470   6.788  11.216  0.00  0.00    +0.000 HD
ATOM     30  H   UNL     1      41.250   5.740  11.863  0.00  0.00    +0.000 HD
ENDBRANCH  23  26
ENDBRANCH  18  20
ENDBRANCH   1  18
TORSDOF 5
ENDMDL
MODEL 6
REMARK VINA RESULT:    -6.075      3.832      6.112
REMARK INTER + INTRA:          -8.699
REMARK INTER:                  -7.963
REMARK INTRA:                  -0.735
REMARK UNBOUND:                -0.848
REMARK  Name = 
REMARK  5 active torsions:
REMARK  status: ('A' for Active; 'I' for Inactive)
REMARK    1  A    between atoms: C_2  and  C_3
REMARK    2  A    between atoms: C_10  and  C_11
REMARK    3  A    between atoms: C_11  and  N_12
REMARK    4  A    between atoms: N_12  and  C_13
REMARK    5  A    between atoms: C_16  and  C_17
REMARK                            x       y       z     vdW  Elec       q    Type
REMARK                         _______ _______ _______ _____ _____    ______ ____
ROOT
ATOM      1  C   UNL     1      48.238   7.661  13.502  0.00  0.00    +0.000 C 
ATOM      2  C   UNL     1      49.257   7.222  12.469  0.00  0.00    +0.000 C 
ATOM      3  C   UNL     1      48.733   8.618  12.420  0.00  0.00    +0.000 C 
ENDROOT
BRANCH   1  11
ATOM      4  C   UNL     1      50.291   4.465  18.816  0.00  0.00    +0.000 C 
ATOM      5  C   UNL     1      51.422   4.829  19.777  0.00  0.00    +0.000 C 
ATOM      6  C   UNL     1      51.707   6.331  19.756  0.00  0.00    +0.000 C 
ATOM      7  C   UNL     1      52.008   6.833  18.347  0.00  0.00    +0.000 C 
ATOM      8  N   UNL     1      51.048   6.351  17.356  0.00  0.00    +0.000 N 
ATOM      9  C   UNL     1      50.138   7.257  16.820  0.00  0.00    +0.000 A 
ATOM     10  C   UNL     1      49.660   7.045  15.523  0.00  0.00    +0.000 A 
ATOM     11  C   UNL     1      48.723   7.897  14.928  0.00  0.00    +0.000 A 
ATOM     12  C   UNL     1      48.282   8.965  15.712  0.00  0.00    +0.000 A 
ATOM     13  C   UNL     1      48.821   9.143  16.977  0.00  0.00    +0.000 A 
ATOM     14  N   UNL     1      49.746   8.328  17.532  0.00  0.00    +0.000 NA
ATOM     15  C   UNL     1      50.625   4.946  17.400  0.00  0.00    +0.000 C 
BRANCH   4  17
ATOM     16  N   UNL     1      47.989   5.415  19.683  0.00  0.00    +0.000 NA
ATOM     17  C   UNL     1      48.988   4.975  19.280  0.00  0.00    +0.000 C 
ENDBRANCH   4  17
ENDBRANCH   1  11
BRANCH   1  18
ATOM     18  N   UNL     1      46.816   7.314  13.390  0.00  0.00    +0.000 N 
ATOM     19  H   UNL     1      46.183   7.783  14.027  0.00  0.00    +0.000 HD
BRANCH  18  20
ATOM     20  C   UNL     1      46.246   6.230  12.700  0.00  0.00    +0.000 A 
ATOM     21  C   UNL     1      45.800   6.283  11.377  0.00  0.00    +0.000 A 
ATOM     22  C   UNL     1      45.136   5.191  10.797  0.00  0.00    +0.000 A 
ATOM     23  C   UNL     1      44.903   4.025  11.536  0.00  0.00    +0.000 A 
ATOM     24  C   UNL     1      45.365   3.948  12.850  0.00  0.00    +0.000 A 
ATOM     25  C   UNL     1      46.029   5.043  13.417  0.00  0.00    +0.000 A 
BRANCH  23  26
ATOM     26  C   UNL     1      44.096   2.935  10.925  0.00  0.00    +0.000 C 
ATOM     27  N   UNL     1      44.627   2.278   9.850  0.00  0.00    +0.000 N 
ATOM     28  O   UNL     1      42.990   2.636  11.358  0.00  0.00    +0.000 OA
ATOM     29  H   UNL     1      45.442   2.598   9.347  0.00  0.00    +0.000 HD
ATOM     30  H   UNL     1      44.047   1.572   9.416  0.00  0.00    +0.000 HD
ENDBRANCH  23  26
ENDBRANCH  18  20
ENDBRANCH   1  18
TORSDOF 5
ENDMDL
MODEL 7
REMARK VINA RESULT:    -5.476      4.216      6.628
REMARK INTER + INTRA:          -7.924
REMARK INTER:                  -7.035
REMARK INTRA:                  -0.889
REMARK UNBOUND:                -0.848
REMARK  Name = 
REMARK  5 active torsions:
REMARK  status: ('A' for Active; 'I' for Inactive)
REMARK    1  A    between atoms: C_2  and  C_3
REMARK    2  A    between atoms: C_10  and  C_11
REMARK    3  A    between atoms: C_11  and  N_12
REMARK    4  A    between atoms: N_12  and  C_13
REMARK    5  A    between atoms: C_16  and  C_17
REMARK                            x       y       z     vdW  Elec       q    Type
REMARK                         _______ _______ _______ _____ _____    ______ ____
ROOT
ATOM      1  C   UNL     1      46.257   4.728  13.807  0.00  0.00    +0.000 C 
ATOM      2  C   UNL     1      46.374   3.544  12.869  0.00  0.00    +0.000 C 
ATOM      3  C   UNL     1      45.020   4.084  13.186  0.00  0.00    +0.000 C 
ENDROOT
BRANCH   1  11
ATOM      4  C   UNL     1      50.972   9.212  14.377  0.00  0.00    +0.000 C 
ATOM      5  C   UNL     1      51.627  10.060  13.287  0.00  0.00    +0.000 C 
ATOM      6  C   UNL     1      50.705  10.219  12.078  0.00  0.00    +0.000 C 
ATOM      7  C   UNL     1      50.257   8.870  11.523  0.00  0.00    +0.000 C 
ATOM      8  N   UNL     1      49.795   7.954  12.563  0.00  0.00    +0.000 N 
ATOM      9  C   UNL     1      48.433   7.677  12.645  0.00  0.00    +0.000 A 
ATOM     10  C   UNL     1      48.026   6.437  13.147  0.00  0.00    +0.000 A 
ATOM     11  C   UNL     1      46.675   6.099  13.284  0.00  0.00    +0.000 A 
ATOM     12  C   UNL     1      45.757   7.078  12.905  0.00  0.00    +0.000 A 
ATOM     13  C   UNL     1      46.223   8.274  12.380  0.00  0.00    +0.000 A 
ATOM     14  N   UNL     1      47.530   8.581  12.227  0.00  0.00    +0.000 NA
ATOM     15  C   UNL     1      50.560   7.849  13.812  0.00  0.00    +0.000 C 
BRANCH   4  17
ATOM     16  N   UNL     1      48.930  10.481  15.461  0.00  0.00    +0.000 NA
ATOM     17  C   UNL     1      49.842   9.911  15.014  0.00  0.00    +0.000 C 
ENDBRANCH   4  17
ENDBRANCH   1  11
BRANCH   1  18
ATOM     18  N   UNL     1      46.342   4.578  15.265  0.00  0.00    +0.000 N 
ATOM     19  H   UNL     1      45.535   4.877  15.799  0.00  0.00    +0.000 HD
BRANCH  18  20
ATOM     20  C   UNL     1      47.487   4.322  16.038  0.00  0.00    +0.000 A 
ATOM     21  C   UNL     1      48.324   5.311  16.562  0.00  0.00    +0.000 A 
ATOM     22  C   UNL     1      49.513   4.970  17.226  0.00  0.00    +0.000 A 
ATOM     23  C   UNL     1      49.887   3.629  17.372  0.00  0.00    +0.000 A 
ATOM     24  C   UNL     1      49.049   2.630  16.877  0.00  0.00    +0.000 A 
ATOM     25  C   UNL     1      47.865   2.982  16.219  0.00  0.00    +0.000 A 
BRANCH  23  26
ATOM     26  C   UNL     1      51.208   3.313  17.979  0.00  0.00    +0.000 C 
ATOM     27  N   UNL     1      51.605   2.004  17.991  0.00  0.00    +0.000 N 
ATOM     28  O   UNL     1      51.918   4.187  18.460  0.00  0.00    +0.000 OA
ATOM     29  H   UNL     1      50.991   1.233  17.775  0.00  0.00    +0.000 HD
ATOM     30  H   UNL     1      52.484   1.799  18.449  0.00  0.00    +0.000 HD
ENDBRANCH  23  26
ENDBRANCH  18  20
ENDBRANCH   1  18
TORSDOF 5
ENDMDL
MODEL 8
REMARK VINA RESULT:    -5.313      3.340      6.310
REMARK INTER + INTRA:          -7.714
REMARK INTER:                  -6.852
REMARK INTRA:                  -0.862
REMARK UNBOUND:                -0.848
REMARK  Name = 
REMARK  5 active torsions:
REMARK  status: ('A' for Active; 'I' for Inactive)
REMARK    1  A    between atoms: C_2  and  C_3
REMARK    2  A    between atoms: C_10  and  C_11
REMARK    3  A    between atoms: C_11  and  N_12
REMARK    4  A    between atoms: N_12  and  C_13
REMARK    5  A    between atoms: C_16  and  C_17
REMARK                            x       y       z     vdW  Elec       q    Type
REMARK                         _______ _______ _______ _____ _____    ______ ____
ROOT
ATOM      1  C   UNL     1      48.791   7.992  13.408  0.00  0.00    +0.000 C 
ATOM      2  C   UNL     1      47.897   8.791  14.335  0.00  0.00    +0.000 C 
ATOM      3  C   UNL     1      49.105   8.119  14.897  0.00  0.00    +0.000 C 
ENDROOT
BRANCH   1  11
ATOM      4  C   UNL     1      54.870   8.131  11.022  0.00  0.00    +0.000 C 
ATOM      5  C   UNL     1      55.333   8.388   9.588  0.00  0.00    +0.000 C 
ATOM      6  C   UNL     1      54.296   9.194   8.806  0.00  0.00    +0.000 C 
ATOM      7  C   UNL     1      52.924   8.526   8.824  0.00  0.00    +0.000 C 
ATOM      8  N   UNL     1      52.522   8.093  10.161  0.00  0.00    +0.000 N 
ATOM      9  C   UNL     1      51.506   8.793  10.807  0.00  0.00    +0.000 A 
ATOM     10  C   UNL     1      50.699   8.115  11.725  0.00  0.00    +0.000 A 
ATOM     11  C   UNL     1      49.677   8.759  12.432  0.00  0.00    +0.000 A 
ATOM     12  C   UNL     1      49.520  10.122  12.178  0.00  0.00    +0.000 A 
ATOM     13  C   UNL     1      50.328  10.729  11.228  0.00  0.00    +0.000 A 
ATOM     14  N   UNL     1      51.295  10.092  10.531  0.00  0.00    +0.000 NA
ATOM     15  C   UNL     1      53.509   7.429  11.022  0.00  0.00    +0.000 C 
BRANCH   4  17
ATOM     16  N   UNL     1      54.898  10.328  12.482  0.00  0.00    +0.000 NA
ATOM     17  C   UNL     1      54.855   9.367  11.825  0.00  0.00    +0.000 C 
ENDBRANCH   4  17
ENDBRANCH   1  11
BRANCH   1  18
ATOM     18  N   UNL     1      48.451   6.628  12.982  0.00  0.00    +0.000 N 
ATOM     19  H   UNL     1      49.228   6.001  12.810  0.00  0.00    +0.000 HD
BRANCH  18  20
ATOM     20  C   UNL     1      47.209   6.152  12.530  0.00  0.00    +0.000 A 
ATOM     21  C   UNL     1      46.585   6.570  11.352  0.00  0.00    +0.000 A 
ATOM     22  C   UNL     1      45.290   6.133  11.029  0.00  0.00    +0.000 A 
ATOM     23  C   UNL     1      44.595   5.271  11.886  0.00  0.00    +0.000 A 
ATOM     24  C   UNL     1      45.216   4.826  13.053  0.00  0.00    +0.000 A 
ATOM     25  C   UNL     1      46.508   5.266  13.363  0.00  0.00    +0.000 A 
BRANCH  23  26
ATOM     26  C   UNL     1      43.185   4.923  11.567  0.00  0.00    +0.000 C 
ATOM     27  N   UNL     1      42.242   5.904  11.702  0.00  0.00    +0.000 N 
ATOM     28  O   UNL     1      42.869   3.796  11.205  0.00  0.00    +0.000 OA
ATOM     29  H   UNL     1      42.416   6.786  12.163  0.00  0.00    +0.000 HD
ATOM     30  H   UNL     1      41.281   5.640  11.527  0.00  0.00    +0.000 HD
ENDBRANCH  23  26
ENDBRANCH  18  20
ENDBRANCH   1  18
TORSDOF 5
ENDMDL
