MODEL 1
REMARK VINA RESULT:    -8.220      0.000      0.000
REMARK INTER + INTRA:         -10.532
REMARK INTER:                 -10.142
REMARK INTRA:                  -0.390
REMARK UNBOUND:                -0.390
REMARK  Name = 
REMARK  4 active torsions:
REMARK  status: ('A' for Active; 'I' for Inactive)
REMARK    1  A    between atoms: C_2  and  C_4
REMARK    2  A    between atoms: C_7  and  N_8
REMARK    3  A    between atoms: N_8  and  C_9
REMARK    4  A    between atoms: C_9  and  C_10
REMARK                            x       y       z     vdW  Elec       q    Type
REMARK                         _______ _______ _______ _____ _____    ______ ____
ROOT
ATOM      1  C   UNL     1      46.474   2.394   7.671  0.00  0.00    +0.000 A 
ATOM      2  C   UNL     1      46.509   3.761   7.450  0.00  0.00    +0.000 A 
ATOM      3  N   UNL     1      45.697   4.624   8.119  0.00  0.00    +0.000 NA
ATOM      4  C   UNL     1      44.823   4.085   9.001  0.00  0.00    +0.000 A 
ATOM      5  C   UNL     1      44.795   2.695   9.186  0.00  0.00    +0.000 A 
ATOM      6  N   UNL     1      45.617   1.817   8.556  0.00  0.00    +0.000 NA
ENDROOT
BRANCH   1   8
ATOM      7  N   UNL     1      48.540   2.061   6.463  0.00  0.00    +0.000 N 
ATOM      8  C   UNL     1      47.391   1.481   6.928  0.00  0.00    +0.000 C 
ATOM      9  O   UNL     1      47.135   0.295   6.753  0.00  0.00    +0.000 OA
ATOM     10  H   UNL     1      49.217   1.503   5.964  0.00  0.00    +0.000 HD
ATOM     11  H   UNL     1      48.719   3.044   6.644  0.00  0.00    +0.000 HD
ENDBRANCH   1   8
BRANCH   4  12
ATOM     12  N   UNL     1      43.869   4.876   9.671  0.00  0.00    +0.000 N 
ATOM     13  H   UNL     1      42.951   4.851   9.250  0.00  0.00    +0.000 HD
BRANCH  12  14
ATOM     14  C   UNL     1      43.887   4.962  11.153  0.00  0.00    +0.000 C 
ATOM     15  C   UNL     1      42.912   4.091  11.922  0.00  0.00    +0.000 C 
ATOM     16  C   UNL     1      42.672   5.564  11.855  0.00  0.00    +0.000 C 
BRANCH  14  17
ATOM     17  C   UNL     1      45.248   5.379  11.717  0.00  0.00    +0.000 A 
ATOM     18  C   UNL     1      45.862   6.572  11.331  0.00  0.00    +0.000 A 
ATOM     19  C   UNL     1      46.995   7.021  12.007  0.00  0.00    +0.000 A 
ATOM     20  C   UNL     1      47.503   6.265  13.053  0.00  0.00    +0.000 A 
ATOM     21  C   UNL     1      46.882   5.067  13.349  0.00  0.00    +0.000 A 
ATOM     22  N   UNL     1      45.787   4.607  12.705  0.00  0.00    +0.000 NA
ENDBRANCH  14  17
ENDBRANCH  12  14
ENDBRANCH   4  12
TORSDOF 4
ENDMDL
MODEL 2
REMARK VINA RESULT:    -6.374      3.092      6.146
REMARK INTER + INTRA:          -8.254
REMARK INTER:                  -8.086
REMARK INTRA:                  -0.169
REMARK UNBOUND:                -0.390
REMARK  Name = 
REMARK  4 active torsions:
REMARK  status: ('A' for Active; 'I' for Inactive)
REMARK    1  A    between atoms: C_2  and  C_4
REMARK    2  A    between atoms: C_7  and  N_8
REMARK    3  A    between atoms: N_8  and  C_9
REMARK    4  A    between atoms: C_9  and  C_10
REMARK                            x       y       z     vdW  Elec       q    Type
REMARK                         _______ _______ _______ _____ _____    ______ ____
ROOT
ATOM      1  C   UNL     1      47.884   5.896  14.337  0.00  0.00    +0.000 A 
ATOM      2  C   UNL     1      47.287   6.187  13.122  0.00  0.00    +0.000 A 
ATOM      3  N   UNL     1      46.478   5.300  12.480  0.00  0.00    +0.000 NA
ATOM      4  C   UNL     1      46.299   4.096  13.071  0.00  0.00    +0.000 A 
ATOM      5  C   UNL     1      46.935   3.821  14.291  0.00  0.00    +0.000 A 
ATOM      6  N   UNL     1      47.720   4.700  14.966  0.00  0.00    +0.000 NA
ENDROOT
BRANCH   1   8
ATOM      7  N   UNL     1      48.123   7.686  15.941  0.00  0.00    +0.000 N 
ATOM      8  C   UNL     1      48.754   6.900  15.016  0.00  0.00    +0.000 C 
ATOM      9  O   UNL     1      49.950   7.007  14.766  0.00  0.00    +0.000 OA
ATOM     10  H   UNL     1      48.649   8.378  16.454  0.00  0.00    +0.000 HD
ATOM     11  H   UNL     1      47.134   7.552  16.128  0.00  0.00    +0.000 HD
ENDBRANCH   1   8
BRANCH   4  12
ATOM     12  N   UNL     1      45.564   3.069  12.446  0.00  0.00    +0.000 N 
ATOM     13  H   UNL     1      45.359   2.288  13.052  0.00  0.00    +0.000 HD
BRANCH  12  14
ATOM     14  C   UNL     1      44.504   3.409  11.464  0.00  0.00    +0.000 C 
ATOM     15  C   UNL     1      43.404   4.353  11.912  0.00  0.00    +0.000 C 
ATOM     16  C   UNL     1      43.087   2.904  11.730  0.00  0.00    +0.000 C 
BRANCH  14  17
ATOM     17  C   UNL     1      44.975   3.316  10.010  0.00  0.00    +0.000 A 
ATOM     18  C   UNL     1      45.225   4.461   9.252  0.00  0.00    +0.000 A 
ATOM     19  C   UNL     1      45.842   4.348   8.007  0.00  0.00    +0.000 A 
ATOM     20  C   UNL     1      46.189   3.091   7.535  0.00  0.00    +0.000 A 
ATOM     21  C   UNL     1      45.864   1.994   8.309  0.00  0.00    +0.000 A 
ATOM     22  N   UNL     1      45.261   2.077   9.515  0.00  0.00    +0.000 NA
ENDBRANCH  14  17
ENDBRANCH  12  14
ENDBRANCH   4  12
TORSDOF 4
ENDMDL
MODEL 3
REMARK VINA RESULT:    -5.718      3.288      5.948
REMARK INTER + INTRA:          -7.446
REMARK INTER:                  -7.282
REMARK INTRA:                  -0.163
REMARK UNBOUND:                -0.390
REMARK  Name = 
REMARK  4 active torsions:
REMARK  status: ('A' for Active; 'I' for Inactive)
REMARK    1  A    between atoms: C_2  and  C_4
REMARK    2  A    between atoms: C_7  and  N_8
REMARK    3  A    between atoms: N_8  and  C_9
REMARK    4  A    between atoms: C_9  and  C_10
REMARK                            x       y       z     vdW  Elec       q    Type
REMARK                         _______ _______ _______ _____ _____    ______ ____
ROOT
ATOM      1  C   UNL     1      48.289   7.436  12.987  0.00  0.00    +0.000 A 
ATOM      2  C   UNL     1      47.056   8.037  12.798  0.00  0.00    +0.000 A 
ATOM      3  N   UNL     1      45.899   7.321  12.764  0.00  0.00    +0.000 NA
ATOM      4  C   UNL     1      46.004   5.978  12.897  0.00  0.00    +0.000 A 
ATOM      5  C   UNL     1      47.269   5.396  13.064  0.00  0.00    +0.000 A 
ATOM      6  N   UNL     1      48.434   6.091  13.134  0.00  0.00    +0.000 NA
ENDROOT
BRANCH   1   8
ATOM      7  N   UNL     1      50.702   7.550  12.926  0.00  0.00    +0.000 N 
ATOM      8  C   UNL     1      49.534   8.256  13.033  0.00  0.00    +0.000 C 
ATOM      9  O   UNL     1      49.512   9.477  13.150  0.00  0.00    +0.000 OA
ATOM     10  H   UNL     1      51.586   8.038  12.933  0.00  0.00    +0.000 HD
ATOM     11  H   UNL     1      50.673   6.541  12.815  0.00  0.00    +0.000 HD
ENDBRANCH   1   8
BRANCH   4  12
ATOM     12  N   UNL     1      44.882   5.135  12.775  0.00  0.00    +0.000 N 
ATOM     13  H   UNL     1      44.340   5.053  13.624  0.00  0.00    +0.000 HD
BRANCH  12  14
ATOM     14  C   UNL     1      44.098   5.121  11.516  0.00  0.00    +0.000 C 
ATOM     15  C   UNL     1      43.210   6.316  11.225  0.00  0.00    +0.000 C 
ATOM     16  C   UNL     1      42.577   5.020  11.614  0.00  0.00    +0.000 C 
BRANCH  14  17
ATOM     17  C   UNL     1      44.745   4.281  10.410  0.00  0.00    +0.000 A 
ATOM     18  C   UNL     1      44.577   2.897  10.356  0.00  0.00    +0.000 A 
ATOM     19  C   UNL     1      45.005   2.189   9.234  0.00  0.00    +0.000 A 
ATOM     20  C   UNL     1      45.605   2.876   8.189  0.00  0.00    +0.000 A 
ATOM     21  C   UNL     1      45.792   4.237   8.329  0.00  0.00    +0.000 A 
ATOM     22  N   UNL     1      45.392   4.944   9.408  0.00  0.00    +0.000 NA
ENDBRANCH  14  17
ENDBRANCH  12  14
ENDBRANCH   4  12
TORSDOF 4
ENDMDL
MODEL 4
REMARK VINA RESULT:    -5.686      3.148      5.247
REMARK INTER + INTRA:          -7.406
REMARK INTER:                  -7.171
REMARK INTRA:                  -0.234
REMARK UNBOUND:                -0.390
REMARK  Name = 
REMARK  4 active torsions:
REMARK  status: ('A' for Active; 'I' for Inactive)
REMARK    1  A    between atoms: C_2  and  C_4
REMARK    2  A    between atoms: C_7  and  N_8
REMARK    3  A    between atoms: N_8  and  C_9
REMARK    4  A    between atoms: C_9  and  C_10
REMARK                            x       y       z     vdW  Elec       q    Type
REMARK                         _______ _______ _______ _____ _____    ______ ____
ROOT
ATOM      1  C   UNL     1      44.703   3.968  11.708  0.00  0.00    +0.000 A 
ATOM      2  C   UNL     1      44.928   5.135  10.998  0.00  0.00    +0.000 A 
ATOM      3  N   UNL     1      45.581   6.199  11.541  0.00  0.00    +0.000 NA
ATOM      4  C   UNL     1      45.983   6.080  12.828  0.00  0.00    +0.000 A 
ATOM      5  C   UNL     1      45.720   4.894  13.529  0.00  0.00    +0.000 A 
ATOM      6  N   UNL     1      45.101   3.808  13.000  0.00  0.00    +0.000 NA
ENDROOT
BRANCH   1   8
ATOM      7  N   UNL     1      44.605   2.300   9.963  0.00  0.00    +0.000 N 
ATOM      8  C   UNL     1      43.996   2.818  11.074  0.00  0.00    +0.000 C 
ATOM      9  O   UNL     1      42.948   2.365  11.521  0.00  0.00    +0.000 OA
ATOM     10  H   UNL     1      44.194   1.510   9.488  0.00  0.00    +0.000 HD
ATOM     11  H   UNL     1      45.481   2.696   9.637  0.00  0.00    +0.000 HD
ENDBRANCH   1   8
BRANCH   4  12
ATOM     12  N   UNL     1      46.576   7.156  13.517  0.00  0.00    +0.000 N 
ATOM     13  H   UNL     1      46.473   7.103  14.521  0.00  0.00    +0.000 HD
BRANCH  12  14
ATOM     14  C   UNL     1      47.861   7.725  13.039  0.00  0.00    +0.000 C 
ATOM     15  C   UNL     1      48.955   6.754  12.634  0.00  0.00    +0.000 C 
ATOM     16  C   UNL     1      49.104   7.526  13.905  0.00  0.00    +0.000 C 
BRANCH  14  17
ATOM     17  C   UNL     1      47.711   9.113  12.411  0.00  0.00    +0.000 A 
ATOM     18  C   UNL     1      48.745   9.696  11.678  0.00  0.00    +0.000 A 
ATOM     19  C   UNL     1      48.510  10.864  10.953  0.00  0.00    +0.000 A 
ATOM     20  C   UNL     1      47.247  11.435  10.981  0.00  0.00    +0.000 A 
ATOM     21  C   UNL     1      46.282  10.840  11.770  0.00  0.00    +0.000 A 
ATOM     22  N   UNL     1      46.487   9.712  12.487  0.00  0.00    +0.000 NA
ENDBRANCH  14  17
ENDBRANCH  12  14
ENDBRANCH   4  12
TORSDOF 4
ENDMDL
MODEL 5
REMARK VINA RESULT:    -5.562      4.472      7.444
REMARK INTER + INTRA:          -7.252
REMARK INTER:                  -7.204
REMARK INTRA:                  -0.049
REMARK UNBOUND:                -0.390
REMARK  Name = 
REMARK  4 active torsions:
REMARK  status: ('A' for Active; 'I' for Inactive)
REMARK    1  A    between atoms: C_2  and  C_4
REMARK    2  A    between atoms: C_7  and  N_8
REMARK    3  A    between atoms: N_8  and  C_9
REMARK    4  A    between atoms: C_9  and  C_10
REMARK                            x       y       z     vdW  Elec       q    Type
REMARK                         _______ _______ _______ _____ _____    ______ ____
ROOT
ATOM      1  C   UNL     1      49.770   2.910  16.948  0.00  0.00    +0.000 A 
ATOM      2  C   UNL     1      48.874   2.188  16.177  0.00  0.00    +0.000 A 
ATOM      3  N   UNL     1      47.796   2.769  15.583  0.00  0.00    +0.000 NA
ATOM      4  C   UNL     1      47.616   4.093  15.800  0.00  0.00    +0.000 A 
ATOM      5  C   UNL     1      48.527   4.793  16.605  0.00  0.00    +0.000 A 
ATOM      6  N   UNL     1      49.627   4.243  17.180  0.00  0.00    +0.000 NA
ENDROOT
BRANCH   1   8
ATOM      7  N   UNL     1      51.654   3.007  18.457  0.00  0.00    +0.000 N 
ATOM      8  C   UNL     1      50.948   2.240  17.570  0.00  0.00    +0.000 C 
ATOM      9  O   UNL     1      51.257   1.082  17.310  0.00  0.00    +0.000 OA
ATOM     10  H   UNL     1      52.456   2.617  18.931  0.00  0.00    +0.000 HD
ATOM     11  H   UNL     1      51.353   3.957  18.654  0.00  0.00    +0.000 HD
ENDBRANCH   1   8
BRANCH   4  12
ATOM     12  N   UNL     1      46.479   4.771  15.318  0.00  0.00    +0.000 N 
ATOM     13  H   UNL     1      46.096   5.440  15.971  0.00  0.00    +0.000 HD
BRANCH  12  14
ATOM     14  C   UNL     1      46.400   5.162  13.889  0.00  0.00    +0.000 C 
ATOM     15  C   UNL     1      47.703   5.436  13.160  0.00  0.00    +0.000 C 
ATOM     16  C   UNL     1      46.809   6.583  13.506  0.00  0.00    +0.000 C 
BRANCH  14  17
ATOM     17  C   UNL     1      45.153   4.622  13.182  0.00  0.00    +0.000 A 
ATOM     18  C   UNL     1      44.010   5.407  13.024  0.00  0.00    +0.000 A 
ATOM     19  C   UNL     1      42.971   4.964  12.206  0.00  0.00    +0.000 A 
ATOM     20  C   UNL     1      43.089   3.737  11.568  0.00  0.00    +0.000 A 
ATOM     21  C   UNL     1      44.221   2.985  11.810  0.00  0.00    +0.000 A 
ATOM     22  N   UNL     1      45.238   3.389  12.603  0.00  0.00    +0.000 NA
ENDBRANCH  14  17
ENDBRANCH  12  14
ENDBRANCH   4  12
TORSDOF 4
ENDMDL
MODEL 6
REMARK VINA RESULT:    -5.348      3.130      5.237
REMARK INTER + INTRA:          -6.988
REMARK INTER:                  -7.256
REMARK INTRA:                   0.268
REMARK UNBOUND:                -0.390
REMARK  Name = 
REMARK  4 active torsions:
REMARK  status: ('A' for Active; 'I' for Inactive)
REMARK    1  A    between atoms: C_2  and  C_4
REMARK    2  A    between atoms: C_7  and  N_8
REMARK    3  A    between atoms: N_8  and  C_9
REMARK    4  A    between atoms: C_9  and  C_10
REMARK                            x       y       z     vdW  Elec       q    Type
REMARK                         _______ _______ _______ _____ _____    ______ ____
ROOT
ATOM      1  C   UNL     1      44.736   4.002  11.699  0.00  0.00    +0.000 A 
ATOM      2  C   UNL     1      45.026   5.156  10.992  0.00  0.00    +0.000 A 
ATOM      3  N   UNL     1      45.683   6.206  11.556  0.00  0.00    +0.000 NA
ATOM      4  C   UNL     1      46.025   6.086  12.861  0.00  0.00    +0.000 A 
ATOM      5  C   UNL     1      45.697   4.913  13.557  0.00  0.00    +0.000 A 
ATOM      6  N   UNL     1      45.071   3.841  13.008  0.00  0.00    +0.000 NA
ENDROOT
BRANCH   1   8
ATOM      7  N   UNL     1      44.646   2.352   9.936  0.00  0.00    +0.000 N 
ATOM      8  C   UNL     1      44.025   2.867  11.042  0.00  0.00    +0.000 C 
ATOM      9  O   UNL     1      42.964   2.423  11.467  0.00  0.00    +0.000 OA
ATOM     10  H   UNL     1      44.234   1.572   9.446  0.00  0.00    +0.000 HD
ATOM     11  H   UNL     1      45.533   2.741   9.629  0.00  0.00    +0.000 HD
ENDBRANCH   1   8
BRANCH   4  12
ATOM     12  N   UNL     1      46.617   7.150  13.569  0.00  0.00    +0.000 N 
ATOM     13  H   UNL     1      46.120   7.406  14.411  0.00  0.00    +0.000 HD
BRANCH  12  14
ATOM     14  C   UNL     1      48.095   7.258  13.645  0.00  0.00    +0.000 C 
ATOM     15  C   UNL     1      48.779   8.244  12.718  0.00  0.00    +0.000 C 
ATOM     16  C   UNL     1      48.916   6.780  12.449  0.00  0.00    +0.000 C 
BRANCH  14  17
ATOM     17  C   UNL     1      48.657   6.887  15.021  0.00  0.00    +0.000 A 
ATOM     18  C   UNL     1      49.314   7.827  15.817  0.00  0.00    +0.000 A 
ATOM     19  C   UNL     1      49.634   7.517  17.137  0.00  0.00    +0.000 A 
ATOM     20  C   UNL     1      49.302   6.267  17.639  0.00  0.00    +0.000 A 
ATOM     21  C   UNL     1      48.703   5.363  16.784  0.00  0.00    +0.000 A 
ATOM     22  N   UNL     1      48.388   5.637  15.498  0.00  0.00    +0.000 NA
ENDBRANCH  14  17
ENDBRANCH  12  14
ENDBRANCH   4  12
TORSDOF 4
ENDMDL
MODEL 7
REMARK VINA RESULT:    -5.247      4.304      6.475
REMARK INTER + INTRA:          -6.864
REMARK INTER:                  -6.411
REMARK INTRA:                  -0.453
REMARK UNBOUND:                -0.390
REMARK  Name = 
REMARK  4 active torsions:
REMARK  status: ('A' for Active; 'I' for Inactive)
REMARK    1  A    between atoms: C_2  and  C_4
REMARK    2  A    between atoms: C_7  and  N_8
REMARK    3  A    between atoms: N_8  and  C_9
REMARK    4  A    between atoms: C_9  and  C_10
REMARK                            x       y       z     vdW  Elec       q    Type
REMARK                         _______ _______ _______ _____ _____    ______ ____
ROOT
ATOM      1  C   UNL     1      45.087   5.122  12.988  0.00  0.00    +0.000 A 
ATOM      2  C   UNL     1      46.104   4.632  13.789  0.00  0.00    +0.000 A 
ATOM      3  N   UNL     1      47.370   5.129  13.739  0.00  0.00    +0.000 NA
ATOM      4  C   UNL     1      47.607   6.116  12.843  0.00  0.00    +0.000 A 
ATOM      5  C   UNL     1      46.562   6.576  12.028  0.00  0.00    +0.000 A 
ATOM      6  N   UNL     1      45.284   6.120  12.083  0.00  0.00    +0.000 NA
ENDROOT
BRANCH   1   8
ATOM      7  N   UNL     1      42.703   5.489  13.118  0.00  0.00    +0.000 N 
ATOM      8  C   UNL     1      43.708   4.561  13.083  0.00  0.00    +0.000 C 
ATOM      9  O   UNL     1      43.492   3.355  13.119  0.00  0.00    +0.000 OA
ATOM     10  H   UNL     1      41.741   5.185  13.167  0.00  0.00    +0.000 HD
ATOM     11  H   UNL     1      42.927   6.478  13.070  0.00  0.00    +0.000 HD
ENDBRANCH   1   8
BRANCH   4  12
ATOM     12  N   UNL     1      48.902   6.630  12.637  0.00  0.00    +0.000 N 
ATOM     13  H   UNL     1      49.247   6.500  11.697  0.00  0.00    +0.000 HD
BRANCH  12  14
ATOM     14  C   UNL     1      49.309   7.897  13.294  0.00  0.00    +0.000 C 
ATOM     15  C   UNL     1      48.962   9.198  12.594  0.00  0.00    +0.000 C 
ATOM     16  C   UNL     1      50.386   8.745  12.620  0.00  0.00    +0.000 C 
BRANCH  14  17
ATOM     17  C   UNL     1      49.420   7.779  14.817  0.00  0.00    +0.000 A 
ATOM     18  C   UNL     1      48.718   8.636  15.666  0.00  0.00    +0.000 A 
ATOM     19  C   UNL     1      48.679   8.378  17.036  0.00  0.00    +0.000 A 
ATOM     20  C   UNL     1      49.352   7.273  17.536  0.00  0.00    +0.000 A 
ATOM     21  C   UNL     1      50.074   6.497  16.650  0.00  0.00    +0.000 A 
ATOM     22  N   UNL     1      50.132   6.729  15.320  0.00  0.00    +0.000 NA
ENDBRANCH  14  17
ENDBRANCH  12  14
ENDBRANCH   4  12
TORSDOF 4
ENDMDL
