MODEL 1
REMARK VINA RESULT:    -7.768      0.000      0.000
REMARK INTER + INTRA:          -9.616
REMARK INTER:                  -9.812
REMARK INTRA:                   0.196
REMARK UNBOUND:                 0.196
REMARK  Name = 
REMARK  6 active torsions:
REMARK  status: ('A' for Active; 'I' for Inactive)
REMARK    1  A    between atoms: C_1  and  C_2
REMARK    2  A    between atoms: C_4  and  C_5
REMARK    3  A    between atoms: C_10  and  C_11
REMARK    4  A    between atoms: C_11  and  C_12
REMARK    5  A    between atoms: CA_16  and  C_17
REMARK    6  A    between atoms: C_17  and  O_18
REMARK                            x       y       z     vdW  Elec       q    Type
REMARK                         _______ _______ _______ _____ _____    ______ ____
ROOT
ATOM      1  C   UNL     1      45.058   6.536  11.507  0.00  0.00    +0.000 C 
ATOM      2  C   UNL     1      45.707   5.475  12.348  0.00  0.00    +0.000 A 
ATOM      3  C   UNL     1      46.453   5.847  13.482  0.00  0.00    +0.000 A 
ATOM      4  C   UNL     1      47.006   4.871  14.314  0.00  0.00    +0.000 A 
ATOM      5  C   UNL     1      46.838   3.551  13.941  0.00  0.00    +0.000 A 
ATOM      6  N   UNL     1      46.146   3.158  12.848  0.00  0.00    +0.000 NA
ATOM      7  C   UNL     1      45.530   4.103  12.080  0.00  0.00    +0.000 A 
ENDROOT
BRANCH   4   8
ATOM      8  C   UNL     1      47.721   5.138  15.585  0.00  0.00    +0.000 C 
ATOM      9  N   UNL     1      47.180   4.683  16.752  0.00  0.00    +0.000 N 
ATOM     10  O   UNL     1      48.787   5.744  15.600  0.00  0.00    +0.000 OA
ATOM     11  H   UNL     1      46.303   4.191  16.841  0.00  0.00    +0.000 HD
ATOM     12  H   UNL     1      47.700   4.875  17.600  0.00  0.00    +0.000 HD
ENDBRANCH   4   8
BRANCH   7  13
ATOM     13  C   UNL     1      44.424   3.547  11.160  0.00  0.00    +0.000 C 
ATOM     14  C   UNL     1      43.032   4.112  11.434  0.00  0.00    +0.000 C 
ATOM     15  C   UNL     1      43.296   2.654  11.637  0.00  0.00    +0.000 C 
BRANCH  13  16
ATOM     16  C   UNL     1      44.938   3.386   9.725  0.00  0.00    +0.000 A 
ATOM     17  C   UNL     1      45.262   4.523   8.970  0.00  0.00    +0.000 A 
ATOM     18  C   UNL     1      46.079   4.381   7.858  0.00  0.00    +0.000 A 
ATOM     19  N   UNL     1      46.548   3.196   7.411  0.00  0.00    +0.000 NA
ATOM     20  CA  UNL     1      46.151   2.088   8.080  0.00  0.00    +0.000 A 
ATOM     21  C   UNL     1      45.351   2.145   9.221  0.00  0.00    +0.000 A 
BRANCH  20  22
ATOM     22  C   UNL     1      46.728   0.767   7.637  0.00  0.00    +0.000 C 
BRANCH  22  23
ATOM     23  O   UNL     1      47.967   0.971   6.959  0.00  0.00    +0.000 OA
ATOM     24  H   UNL     1      48.547   1.410   7.608  0.00  0.00    +0.000 HD
ENDBRANCH  22  23
ENDBRANCH  20  22
ENDBRANCH  13  16
ENDBRANCH   7  13
TORSDOF 5
ENDMDL
MODEL 2
REMARK VINA RESULT:    -7.284      1.515      6.072
REMARK INTER + INTRA:          -9.005
REMARK INTER:                  -8.685
REMARK INTRA:                  -0.320
REMARK UNBOUND:                 0.196
REMARK  Name = 
REMARK  6 active torsions:
REMARK  status: ('A' for Active; 'I' for Inactive)
REMARK    1  A    between atoms: C_1  and  C_2
REMARK    2  A    between atoms: C_4  and  C_5
REMARK    3  A    between atoms: C_10  and  C_11
REMARK    4  A    between atoms: C_11  and  C_12
REMARK    5  A    between atoms: CA_16  and  C_17
REMARK    6  A    between atoms: C_17  and  O_18
REMARK                            x       y       z     vdW  Elec       q    Type
REMARK                         _______ _______ _______ _____ _____    ______ ____
ROOT
ATOM      1  C   UNL     1      46.046   5.899   9.138  0.00  0.00    +0.000 C 
ATOM      2  C   UNL     1      45.613   4.462   9.140  0.00  0.00    +0.000 A 
ATOM      3  C   UNL     1      46.259   3.539   8.294  0.00  0.00    +0.000 A 
ATOM      4  C   UNL     1      45.916   2.186   8.332  0.00  0.00    +0.000 A 
ATOM      5  C   UNL     1      44.891   1.816   9.182  0.00  0.00    +0.000 A 
ATOM      6  N   UNL     1      44.235   2.677   9.992  0.00  0.00    +0.000 NA
ATOM      7  C   UNL     1      44.624   3.985  10.023  0.00  0.00    +0.000 A 
ENDROOT
BRANCH   4   8
ATOM      8  C   UNL     1      46.593   1.112   7.566  0.00  0.00    +0.000 C 
ATOM      9  N   UNL     1      47.304   1.447   6.451  0.00  0.00    +0.000 N 
ATOM     10  O   UNL     1      46.534  -0.059   7.926  0.00  0.00    +0.000 OA
ATOM     11  H   UNL     1      47.396   2.377   6.070  0.00  0.00    +0.000 HD
ATOM     12  H   UNL     1      47.761   0.690   5.958  0.00  0.00    +0.000 HD
ENDBRANCH   4   8
BRANCH   7  13
ATOM     13  C   UNL     1      44.145   4.758  11.268  0.00  0.00    +0.000 C 
ATOM     14  C   UNL     1      42.673   4.550  11.612  0.00  0.00    +0.000 C 
ATOM     15  C   UNL     1      43.160   5.909  11.224  0.00  0.00    +0.000 C 
BRANCH  13  16
ATOM     16  C   UNL     1      45.218   4.744  12.364  0.00  0.00    +0.000 A 
ATOM     17  C   UNL     1      45.673   3.520  12.876  0.00  0.00    +0.000 A 
ATOM     18  C   UNL     1      46.885   3.484  13.553  0.00  0.00    +0.000 A 
ATOM     19  N   UNL     1      47.643   4.573  13.803  0.00  0.00    +0.000 NA
ATOM     20  CA  UNL     1      47.153   5.768  13.398  0.00  0.00    +0.000 A 
ATOM     21  C   UNL     1      45.956   5.889  12.692  0.00  0.00    +0.000 A 
BRANCH  20  22
ATOM     22  C   UNL     1      48.025   6.981  13.605  0.00  0.00    +0.000 C 
BRANCH  22  23
ATOM     23  O   UNL     1      49.397   6.645  13.400  0.00  0.00    +0.000 OA
ATOM     24  H   UNL     1      49.426   6.197  12.535  0.00  0.00    +0.000 HD
ENDBRANCH  22  23
ENDBRANCH  20  22
ENDBRANCH  13  16
ENDBRANCH   7  13
TORSDOF 5
ENDMDL
MODEL 3
REMARK VINA RESULT:    -6.996      2.069      2.606
REMARK INTER + INTRA:          -8.641
REMARK INTER:                  -8.553
REMARK INTRA:                  -0.087
REMARK UNBOUND:                 0.196
REMARK  Name = 
REMARK  6 active torsions:
REMARK  status: ('A' for Active; 'I' for Inactive)
REMARK    1  A    between atoms: C_1  and  C_2
REMARK    2  A    between atoms: C_4  and  C_5
REMARK    3  A    between atoms: C_10  and  C_11
REMARK    4  A    between atoms: C_11  and  C_12
REMARK    5  A    between atoms: CA_16  and  C_17
REMARK    6  A    between atoms: C_17  and  O_18
REMARK                            x       y       z     vdW  Elec       q    Type
REMARK                         _______ _______ _______ _____ _____    ______ ____
ROOT
ATOM      1  C   UNL     1      46.653   3.550  13.212  0.00  0.00    +0.000 C 
ATOM      2  C   UNL     1      46.249   4.889  12.667  0.00  0.00    +0.000 A 
ATOM      3  C   UNL     1      47.078   6.007  12.882  0.00  0.00    +0.000 A 
ATOM      4  C   UNL     1      46.753   7.244  12.325  0.00  0.00    +0.000 A 
ATOM      5  C   UNL     1      45.569   7.329  11.617  0.00  0.00    +0.000 A 
ATOM      6  N   UNL     1      44.738   6.283  11.409  0.00  0.00    +0.000 NA
ATOM      7  C   UNL     1      45.095   5.051  11.877  0.00  0.00    +0.000 A 
ENDROOT
BRANCH   4   8
ATOM      8  C   UNL     1      47.597   8.462  12.397  0.00  0.00    +0.000 C 
ATOM      9  N   UNL     1      47.307   9.408  13.336  0.00  0.00    +0.000 N 
ATOM     10  O   UNL     1      48.549   8.621  11.640  0.00  0.00    +0.000 OA
ATOM     11  H   UNL     1      46.538   9.373  13.988  0.00  0.00    +0.000 HD
ATOM     12  H   UNL     1      47.910  10.221  13.363  0.00  0.00    +0.000 HD
ENDBRANCH   4   8
BRANCH   7  13
ATOM     13  C   UNL     1      44.340   3.881  11.214  0.00  0.00    +0.000 C 
ATOM     14  C   UNL     1      42.838   3.865  11.484  0.00  0.00    +0.000 C 
ATOM     15  C   UNL     1      43.694   2.745  11.982  0.00  0.00    +0.000 C 
BRANCH  13  16
ATOM     16  C   UNL     1      44.889   3.605   9.809  0.00  0.00    +0.000 A 
ATOM     17  C   UNL     1      45.357   4.669   9.023  0.00  0.00    +0.000 A 
ATOM     18  C   UNL     1      46.196   4.396   7.953  0.00  0.00    +0.000 A 
ATOM     19  N   UNL     1      46.557   3.150   7.574  0.00  0.00    +0.000 NA
ATOM     20  CA  UNL     1      46.023   2.120   8.270  0.00  0.00    +0.000 A 
ATOM     21  C   UNL     1      45.191   2.308   9.374  0.00  0.00    +0.000 A 
BRANCH  20  22
ATOM     22  C   UNL     1      46.478   0.728   7.906  0.00  0.00    +0.000 C 
BRANCH  22  23
ATOM     23  O   UNL     1      47.230   0.755   6.693  0.00  0.00    +0.000 OA
ATOM     24  H   UNL     1      47.188   1.678   6.385  0.00  0.00    +0.000 HD
ENDBRANCH  22  23
ENDBRANCH  20  22
ENDBRANCH  13  16
ENDBRANCH   7  13
TORSDOF 5
ENDMDL
MODEL 4
REMARK VINA RESULT:    -6.119      3.866      6.441
REMARK INTER + INTRA:          -7.532
REMARK INTER:                  -7.949
REMARK INTRA:                   0.417
REMARK UNBOUND:                 0.196
REMARK  Name = 
REMARK  6 active torsions:
REMARK  status: ('A' for Active; 'I' for Inactive)
REMARK    1  A    between atoms: C_1  and  C_2
REMARK    2  A    between atoms: C_4  and  C_5
REMARK    3  A    between atoms: C_10  and  C_11
REMARK    4  A    between atoms: C_11  and  C_12
REMARK    5  A    between atoms: CA_16  and  C_17
REMARK    6  A    between atoms: C_17  and  O_18
REMARK                            x       y       z     vdW  Elec       q    Type
REMARK                         _______ _______ _______ _____ _____    ______ ____
ROOT
ATOM      1  C   UNL     1      47.457   5.700  14.512  0.00  0.00    +0.000 C 
ATOM      2  C   UNL     1      46.716   5.509  13.221  0.00  0.00    +0.000 A 
ATOM      3  C   UNL     1      45.723   4.513  13.129  0.00  0.00    +0.000 A 
ATOM      4  C   UNL     1      44.977   4.367  11.959  0.00  0.00    +0.000 A 
ATOM      5  C   UNL     1      45.296   5.190  10.896  0.00  0.00    +0.000 A 
ATOM      6  N   UNL     1      46.255   6.141  10.941  0.00  0.00    +0.000 NA
ATOM      7  C   UNL     1      46.929   6.348  12.110  0.00  0.00    +0.000 A 
ENDROOT
BRANCH   4   8
ATOM      8  C   UNL     1      43.843   3.428  11.781  0.00  0.00    +0.000 C 
ATOM      9  N   UNL     1      43.774   2.322  12.578  0.00  0.00    +0.000 N 
ATOM     10  O   UNL     1      42.969   3.636  10.947  0.00  0.00    +0.000 OA
ATOM     11  H   UNL     1      44.451   2.059  13.278  0.00  0.00    +0.000 HD
ATOM     12  H   UNL     1      42.981   1.708  12.436  0.00  0.00    +0.000 HD
ENDBRANCH   4   8
BRANCH   7  13
ATOM     13  C   UNL     1      47.647   7.710  12.193  0.00  0.00    +0.000 C 
ATOM     14  C   UNL     1      48.945   7.789  11.392  0.00  0.00    +0.000 C 
ATOM     15  C   UNL     1      48.981   7.924  12.880  0.00  0.00    +0.000 C 
BRANCH  13  16
ATOM     16  C   UNL     1      46.636   8.862  12.166  0.00  0.00    +0.000 A 
ATOM     17  C   UNL     1      47.089  10.188  12.242  0.00  0.00    +0.000 A 
ATOM     18  C   UNL     1      46.247  11.210  11.827  0.00  0.00    +0.000 A 
ATOM     19  N   UNL     1      44.980  11.020  11.399  0.00  0.00    +0.000 NA
ATOM     20  CA  UNL     1      44.510   9.751  11.423  0.00  0.00    +0.000 A 
ATOM     21  C   UNL     1      45.297   8.663  11.802  0.00  0.00    +0.000 A 
BRANCH  20  22
ATOM     22  C   UNL     1      43.124   9.515  10.875  0.00  0.00    +0.000 C 
BRANCH  22  23
ATOM     23  O   UNL     1      42.814   8.123  10.895  0.00  0.00    +0.000 OA
ATOM     24  H   UNL     1      42.159   8.015  11.609  0.00  0.00    +0.000 HD
ENDBRANCH  22  23
ENDBRANCH  20  22
ENDBRANCH  13  16
ENDBRANCH   7  13
TORSDOF 5
ENDMDL
MODEL 5
REMARK VINA RESULT:    -6.088      1.666      2.312
REMARK INTER + INTRA:          -7.493
REMARK INTER:                  -7.780
REMARK INTRA:                   0.287
REMARK UNBOUND:                 0.196
REMARK  Name = 
REMARK  6 active torsions:
REMARK  status: ('A' for Active; 'I' for Inactive)
REMARK    1  A    between atoms: C_1  and  C_2
REMARK    2  A    between atoms: C_4  and  C_5
REMARK    3  A    between atoms: C_10  and  C_11
REMARK    4  A    between atoms: C_11  and  C_12
REMARK    5  A    between atoms: CA_16  and  C_17
REMARK    6  A    between atoms: C_17  and  O_18
REMARK                            x       y       z     vdW  Elec       q    Type
REMARK                         _______ _______ _______ _____ _____    ______ ____
ROOT
ATOM      1  C   UNL     1      47.205   7.110  11.738  0.00  0.00    +0.000 C 
ATOM      2  C   UNL     1      47.113   6.183  12.915  0.00  0.00    +0.000 A 
ATOM      3  C   UNL     1      47.991   6.350  14.004  0.00  0.00    +0.000 A 
ATOM      4  C   UNL     1      47.875   5.542  15.135  0.00  0.00    +0.000 A 
ATOM      5  C   UNL     1      46.914   4.548  15.109  0.00  0.00    +0.000 A 
ATOM      6  N   UNL     1      46.069   4.345  14.074  0.00  0.00    +0.000 NA
ATOM      7  C   UNL     1      46.120   5.188  13.001  0.00  0.00    +0.000 A 
ENDROOT
BRANCH   4   8
ATOM      8  C   UNL     1      48.671   5.691  16.377  0.00  0.00    +0.000 C 
ATOM      9  N   UNL     1      48.026   5.998  17.539  0.00  0.00    +0.000 N 
ATOM     10  O   UNL     1      49.887   5.531  16.376  0.00  0.00    +0.000 OA
ATOM     11  H   UNL     1      47.035   6.164  17.635  0.00  0.00    +0.000 HD
ATOM     12  H   UNL     1      48.599   6.083  18.370  0.00  0.00    +0.000 HD
ENDBRANCH   4   8
BRANCH   7  13
ATOM     13  C   UNL     1      44.857   5.162  12.116  0.00  0.00    +0.000 C 
ATOM     14  C   UNL     1      44.292   6.540  11.781  0.00  0.00    +0.000 C 
ATOM     15  C   UNL     1      43.480   5.582  12.592  0.00  0.00    +0.000 C 
BRANCH  13  16
ATOM     16  C   UNL     1      44.968   4.075  11.041  0.00  0.00    +0.000 A 
ATOM     17  C   UNL     1      44.241   2.884  11.177  0.00  0.00    +0.000 A 
ATOM     18  C   UNL     1      44.028   2.094  10.056  0.00  0.00    +0.000 A 
ATOM     19  N   UNL     1      44.525   2.370   8.831  0.00  0.00    +0.000 NA
ATOM     20  CA  UNL     1      45.312   3.466   8.723  0.00  0.00    +0.000 A 
ATOM     21  C   UNL     1      45.557   4.326   9.794  0.00  0.00    +0.000 A 
BRANCH  20  22
ATOM     22  C   UNL     1      45.811   3.827   7.345  0.00  0.00    +0.000 C 
BRANCH  22  23
ATOM     23  O   UNL     1      47.023   4.575   7.438  0.00  0.00    +0.000 OA
ATOM     24  H   UNL     1      46.746   5.499   7.575  0.00  0.00    +0.000 HD
ENDBRANCH  22  23
ENDBRANCH  20  22
ENDBRANCH  13  16
ENDBRANCH   7  13
TORSDOF 5
ENDMDL
MODEL 6
REMARK VINA RESULT:    -6.036      1.735      6.710
REMARK INTER + INTRA:          -7.428
REMARK INTER:                  -7.619
REMARK INTRA:                   0.192
REMARK UNBOUND:                 0.196
REMARK  Name = 
REMARK  6 active torsions:
REMARK  status: ('A' for Active; 'I' for Inactive)
REMARK    1  A    between atoms: C_1  and  C_2
REMARK    2  A    between atoms: C_4  and  C_5
REMARK    3  A    between atoms: C_10  and  C_11
REMARK    4  A    between atoms: C_11  and  C_12
REMARK    5  A    between atoms: CA_16  and  C_17
REMARK    6  A    between atoms: C_17  and  O_18
REMARK                            x       y       z     vdW  Elec       q    Type
REMARK                         _______ _______ _______ _____ _____    ______ ____
ROOT
ATOM      1  C   UNL     1      44.080   2.283  10.731  0.00  0.00    +0.000 C 
ATOM      2  C   UNL     1      44.926   3.124   9.819  0.00  0.00    +0.000 A 
ATOM      3  C   UNL     1      45.369   2.592   8.593  0.00  0.00    +0.000 A 
ATOM      4  C   UNL     1      46.098   3.382   7.703  0.00  0.00    +0.000 A 
ATOM      5  C   UNL     1      46.409   4.668   8.104  0.00  0.00    +0.000 A 
ATOM      6  N   UNL     1      46.018   5.205   9.281  0.00  0.00    +0.000 NA
ATOM      7  C   UNL     1      45.231   4.467  10.118  0.00  0.00    +0.000 A 
ENDROOT
BRANCH   4   8
ATOM      8  C   UNL     1      46.529   2.965   6.346  0.00  0.00    +0.000 C 
ATOM      9  N   UNL     1      46.843   3.927   5.432  0.00  0.00    +0.000 N 
ATOM     10  O   UNL     1      46.617   1.780   6.044  0.00  0.00    +0.000 OA
ATOM     11  H   UNL     1      46.786   4.924   5.583  0.00  0.00    +0.000 HD
ATOM     12  H   UNL     1      47.142   3.607   4.519  0.00  0.00    +0.000 HD
ENDBRANCH   4   8
BRANCH   7  13
ATOM     13  C   UNL     1      44.483   5.298  11.179  0.00  0.00    +0.000 C 
ATOM     14  C   UNL     1      43.002   4.956  11.320  0.00  0.00    +0.000 C 
ATOM     15  C   UNL     1      43.409   6.318  10.855  0.00  0.00    +0.000 C 
BRANCH  13  16
ATOM     16  C   UNL     1      45.360   5.517  12.417  0.00  0.00    +0.000 A 
ATOM     17  C   UNL     1      45.772   4.416  13.183  0.00  0.00    +0.000 A 
ATOM     18  C   UNL     1      46.856   4.559  14.037  0.00  0.00    +0.000 A 
ATOM     19  N   UNL     1      47.520   5.719  14.228  0.00  0.00    +0.000 NA
ATOM     20  CA  UNL     1      47.058   6.806  13.566  0.00  0.00    +0.000 A 
ATOM     21  C   UNL     1      45.990   6.744  12.671  0.00  0.00    +0.000 A 
BRANCH  20  22
ATOM     22  C   UNL     1      47.838   8.089  13.712  0.00  0.00    +0.000 C 
BRANCH  22  23
ATOM     23  O   UNL     1      47.204   8.949  14.658  0.00  0.00    +0.000 OA
ATOM     24  H   UNL     1      47.229   8.465  15.503  0.00  0.00    +0.000 HD
ENDBRANCH  22  23
ENDBRANCH  20  22
ENDBRANCH  13  16
ENDBRANCH   7  13
TORSDOF 5
ENDMDL
MODEL 7
REMARK VINA RESULT:    -5.942      2.075      2.365
REMARK INTER + INTRA:          -7.309
REMARK INTER:                  -7.397
REMARK INTRA:                   0.088
REMARK UNBOUND:                 0.196
REMARK  Name = 
REMARK  6 active torsions:
REMARK  status: ('A' for Active; 'I' for Inactive)
REMARK    1  A    between atoms: C_1  and  C_2
REMARK    2  A    between atoms: C_4  and  C_5
REMARK    3  A    between atoms: C_10  and  C_11
REMARK    4  A    between atoms: C_11  and  C_12
REMARK    5  A    between atoms: CA_16  and  C_17
REMARK    6  A    between atoms: C_17  and  O_18
REMARK                            x       y       z     vdW  Elec       q    Type
REMARK                         _______ _______ _______ _____ _____    ______ ____
ROOT
ATOM      1  C   UNL     1      44.330   8.027  11.391  0.00  0.00    +0.000 C 
ATOM      2  C   UNL     1      45.473   7.450  12.175  0.00  0.00    +0.000 A 
ATOM      3  C   UNL     1      46.315   8.306  12.910  0.00  0.00    +0.000 A 
ATOM      4  C   UNL     1      47.340   7.781  13.699  0.00  0.00    +0.000 A 
ATOM      5  C   UNL     1      47.521   6.410  13.675  0.00  0.00    +0.000 A 
ATOM      6  N   UNL     1      46.745   5.561  12.964  0.00  0.00    +0.000 NA
ATOM      7  C   UNL     1      45.688   6.060  12.260  0.00  0.00    +0.000 A 
ENDROOT
BRANCH   4   8
ATOM      8  C   UNL     1      48.220   8.572  14.593  0.00  0.00    +0.000 C 
ATOM      9  N   UNL     1      48.255   9.928  14.449  0.00  0.00    +0.000 N 
ATOM     10  O   UNL     1      48.900   8.030  15.458  0.00  0.00    +0.000 OA
ATOM     11  H   UNL     1      47.746  10.459  13.758  0.00  0.00    +0.000 HD
ATOM     12  H   UNL     1      48.860  10.437  15.082  0.00  0.00    +0.000 HD
ENDBRANCH   4   8
BRANCH   7  13
ATOM     13  C   UNL     1      44.630   5.005  11.876  0.00  0.00    +0.000 C 
ATOM     14  C   UNL     1      43.221   5.314  12.376  0.00  0.00    +0.000 C 
ATOM     15  C   UNL     1      43.936   4.099  12.874  0.00  0.00    +0.000 C 
BRANCH  13  16
ATOM     16  C   UNL     1      44.863   4.494  10.450  0.00  0.00    +0.000 A 
ATOM     17  C   UNL     1      45.523   5.308   9.518  0.00  0.00    +0.000 A 
ATOM     18  C   UNL     1      46.077   4.723   8.388  0.00  0.00    +0.000 A 
ATOM     19  N   UNL     1      45.976   3.409   8.090  0.00  0.00    +0.000 NA
ATOM     20  CA  UNL     1      45.252   2.643   8.939  0.00  0.00    +0.000 A 
ATOM     21  C   UNL     1      44.682   3.147  10.108  0.00  0.00    +0.000 A 
BRANCH  20  22
ATOM     22  C   UNL     1      45.196   1.162   8.658  0.00  0.00    +0.000 C 
BRANCH  22  23
ATOM     23  O   UNL     1      46.410   0.727   8.047  0.00  0.00    +0.000 OA
ATOM     24  H   UNL     1      47.109   0.925   8.696  0.00  0.00    +0.000 HD
ENDBRANCH  22  23
ENDBRANCH  20  22
ENDBRANCH  13  16
ENDBRANCH   7  13
TORSDOF 5
ENDMDL
MODEL 8
REMARK VINA RESULT:    -5.938      2.459      3.898
REMARK INTER + INTRA:          -7.304
REMARK INTER:                  -7.957
REMARK INTRA:                   0.653
REMARK UNBOUND:                 0.196
REMARK  Name = 
REMARK  6 active torsions:
REMARK  status: ('A' for Active; 'I' for Inactive)
REMARK    1  A    between atoms: C_1  and  C_2
REMARK    2  A    between atoms: C_4  and  C_5
REMARK    3  A    between atoms: C_10  and  C_11
REMARK    4  A    between atoms: C_11  and  C_12
REMARK    5  A    between atoms: CA_16  and  C_17
REMARK    6  A    between atoms: C_17  and  O_18
REMARK                            x       y       z     vdW  Elec       q    Type
REMARK                         _______ _______ _______ _____ _____    ______ ____
ROOT
ATOM      1  C   UNL     1      48.494   7.766  14.736  0.00  0.00    +0.000 C 
ATOM      2  C   UNL     1      48.057   6.330  14.779  0.00  0.00    +0.000 A 
ATOM      3  C   UNL     1      48.177   5.601  15.978  0.00  0.00    +0.000 A 
ATOM      4  C   UNL     1      47.714   4.287  16.055  0.00  0.00    +0.000 A 
ATOM      5  C   UNL     1      47.197   3.728  14.901  0.00  0.00    +0.000 A 
ATOM      6  N   UNL     1      47.086   4.390  13.728  0.00  0.00    +0.000 NA
ATOM      7  C   UNL     1      47.457   5.703  13.669  0.00  0.00    +0.000 A 
ENDROOT
BRANCH   4   8
ATOM      8  C   UNL     1      47.693   3.459  17.285  0.00  0.00    +0.000 C 
ATOM      9  N   UNL     1      48.746   3.540  18.149  0.00  0.00    +0.000 N 
ATOM     10  O   UNL     1      46.747   2.722  17.539  0.00  0.00    +0.000 OA
ATOM     11  H   UNL     1      49.573   4.104  18.018  0.00  0.00    +0.000 HD
ATOM     12  H   UNL     1      48.694   2.968  18.984  0.00  0.00    +0.000 HD
ENDBRANCH   4   8
BRANCH   7  13
ATOM     13  C   UNL     1      46.881   6.469  12.462  0.00  0.00    +0.000 C 
ATOM     14  C   UNL     1      47.934   7.037  11.514  0.00  0.00    +0.000 C 
ATOM     15  C   UNL     1      47.028   7.964  12.258  0.00  0.00    +0.000 C 
BRANCH  13  16
ATOM     16  C   UNL     1      45.630   5.768  11.918  0.00  0.00    +0.000 A 
ATOM     17  C   UNL     1      44.374   6.057  12.472  0.00  0.00    +0.000 A 
ATOM     18  C   UNL     1      43.233   5.745  11.747  0.00  0.00    +0.000 A 
ATOM     19  N   UNL     1      43.245   5.123  10.548  0.00  0.00    +0.000 NA
ATOM     20  CA  UNL     1      44.452   4.753  10.062  0.00  0.00    +0.000 A 
ATOM     21  C   UNL     1      45.649   5.049  10.715  0.00  0.00    +0.000 A 
BRANCH  20  22
ATOM     22  C   UNL     1      44.485   4.125   8.690  0.00  0.00    +0.000 C 
BRANCH  22  23
ATOM     23  O   UNL     1      45.656   4.536   7.986  0.00  0.00    +0.000 OA
ATOM     24  H   UNL     1      46.339   4.657   8.670  0.00  0.00    +0.000 HD
ENDBRANCH  22  23
ENDBRANCH  20  22
ENDBRANCH  13  16
ENDBRANCH   7  13
TORSDOF 5
ENDMDL
MODEL 9
REMARK VINA RESULT:    -5.808      3.522      6.686
REMARK INTER + INTRA:          -7.139
REMARK INTER:                  -7.264
REMARK INTRA:                   0.124
REMARK UNBOUND:                 0.196
REMARK  Name = 
REMARK  6 active torsions:
REMARK  status: ('A' for Active; 'I' for Inactive)
REMARK    1  A    between atoms: C_1  and  C_2
REMARK    2  A    between atoms: C_4  and  C_5
REMARK    3  A    between atoms: C_10  and  C_11
REMARK    4  A    between atoms: C_11  and  C_12
REMARK    5  A    between atoms: CA_16  and  C_17
REMARK    6  A    between atoms: C_17  and  O_18
REMARK                            x       y       z     vdW  Elec       q    Type
REMARK                         _______ _______ _______ _____ _____    ______ ____
ROOT
ATOM      1  C   UNL     1      46.932   5.162  14.285  0.00  0.00    +0.000 C 
ATOM      2  C   UNL     1      46.353   5.089  12.902  0.00  0.00    +0.000 A 
ATOM      3  C   UNL     1      45.549   3.990  12.542  0.00  0.00    +0.000 A 
ATOM      4  C   UNL     1      44.947   3.939  11.283  0.00  0.00    +0.000 A 
ATOM      5  C   UNL     1      45.224   4.970  10.405  0.00  0.00    +0.000 A 
ATOM      6  N   UNL     1      46.008   6.029  10.710  0.00  0.00    +0.000 NA
ATOM      7  C   UNL     1      46.528   6.128  11.968  0.00  0.00    +0.000 A 
ENDROOT
BRANCH   4   8
ATOM      8  C   UNL     1      44.002   2.890  10.831  0.00  0.00    +0.000 C 
ATOM      9  N   UNL     1      44.353   2.100   9.776  0.00  0.00    +0.000 N 
ATOM     10  O   UNL     1      42.927   2.717  11.394  0.00  0.00    +0.000 OA
ATOM     11  H   UNL     1      45.206   2.177   9.241  0.00  0.00    +0.000 HD
ATOM     12  H   UNL     1      43.689   1.387   9.499  0.00  0.00    +0.000 HD
ENDBRANCH   4   8
BRANCH   7  13
ATOM     13  C   UNL     1      47.005   7.546  12.344  0.00  0.00    +0.000 C 
ATOM     14  C   UNL     1      46.135   8.249  13.382  0.00  0.00    +0.000 C 
ATOM     15  C   UNL     1      46.248   8.813  12.002  0.00  0.00    +0.000 C 
BRANCH  13  16
ATOM     16  C   UNL     1      48.534   7.600  12.435  0.00  0.00    +0.000 A 
ATOM     17  C   UNL     1      49.289   7.918  11.296  0.00  0.00    +0.000 A 
ATOM     18  C   UNL     1      50.598   8.350  11.455  0.00  0.00    +0.000 A 
ATOM     19  N   UNL     1      51.225   8.435  12.648  0.00  0.00    +0.000 NA
ATOM     20  CA  UNL     1      50.530   8.030  13.737  0.00  0.00    +0.000 A 
ATOM     21  C   UNL     1      49.203   7.605  13.667  0.00  0.00    +0.000 A 
BRANCH  20  22
ATOM     22  C   UNL     1      51.194   8.191  15.082  0.00  0.00    +0.000 C 
BRANCH  22  23
ATOM     23  O   UNL     1      52.037   7.074  15.355  0.00  0.00    +0.000 OA
ATOM     24  H   UNL     1      52.473   6.867  14.508  0.00  0.00    +0.000 HD
ENDBRANCH  22  23
ENDBRANCH  20  22
ENDBRANCH  13  16
ENDBRANCH   7  13
TORSDOF 5
ENDMDL
