MODEL 1
REMARK VINA RESULT:    -8.330      0.000      0.000
REMARK INTER + INTRA:         -13.382
REMARK INTER:                 -12.226
REMARK INTRA:                  -1.156
REMARK UNBOUND:                -1.156
REMARK  Name = 
REMARK  9 active torsions:
REMARK  status: ('A' for Active; 'I' for Inactive)
REMARK    1  A    between atoms: C_1  and  O_2
REMARK    2  A    between atoms: O_2  and  C_3
REMARK    3  A    between atoms: C_10  and  C_11
REMARK    4  A    between atoms: N_13  and  C_14
REMARK    5  A    between atoms: C_14  and  C_15
REMARK    6  A    between atoms: C_18  and  C_19
REMARK    7  A    between atoms: C_19  and  C_20
REMARK    8  A    between atoms: C_20  and  N_21
REMARK    9  A    between atoms: N_21  and  C_22
REMARK                            x       y       z     vdW  Elec       q    Type
REMARK                         _______ _______ _______ _____ _____    ______ ____
ROOT
ATOM      1  C   UNL     1      46.805   6.668  12.825  0.00  0.00    +0.000 A 
ATOM      2  C   UNL     1      46.684   5.388  13.375  0.00  0.00    +0.000 A 
ATOM      3  C   UNL     1      45.699   4.508  12.918  0.00  0.00    +0.000 A 
ATOM      4  C   UNL     1      44.811   4.879  11.895  0.00  0.00    +0.000 A 
ATOM      5  C   UNL     1      44.971   6.146  11.315  0.00  0.00    +0.000 A 
ATOM      6  C   UNL     1      45.962   7.026  11.767  0.00  0.00    +0.000 A 
ENDROOT
BRANCH   1   7
ATOM      7  C   UNL     1      47.825   7.634  13.365  0.00  0.00    +0.000 C 
BRANCH   7  10
ATOM      8  C   UNL     1      48.973   7.149  15.472  0.00  0.00    +0.000 C 
ATOM      9  O   UNL     1      49.958   6.728  14.864  0.00  0.00    +0.000 OA
ATOM     10  N   UNL     1      47.874   7.613  14.803  0.00  0.00    +0.000 N 
ATOM     11  H   UNL     1      47.048   7.903  15.312  0.00  0.00    +0.000 HD
BRANCH   8  19
ATOM     12  C   UNL     1      48.869   4.698  17.902  0.00  0.00    +0.000 A 
ATOM     13  N   UNL     1      48.759   3.977  19.040  0.00  0.00    +0.000 NA
ATOM     14  C   UNL     1      48.688   4.630  20.199  0.00  0.00    +0.000 A 
ATOM     15  N   UNL     1      48.716   5.946  20.377  0.00  0.00    +0.000 NA
ATOM     16  C   UNL     1      48.810   6.632  19.224  0.00  0.00    +0.000 A 
ATOM     17  S   UNL     1      48.866   8.326  19.269  0.00  0.00    +0.000 S 
ATOM     18  C   UNL     1      48.953   8.415  17.576  0.00  0.00    +0.000 A 
ATOM     19  C   UNL     1      48.941   7.177  16.944  0.00  0.00    +0.000 A 
ATOM     20  C   UNL     1      48.880   6.105  17.937  0.00  0.00    +0.000 A 
BRANCH  12  22
ATOM     21  C   UNL     1      47.799   3.369  16.289  0.00  0.00    +0.000 C 
ATOM     22  O   UNL     1      49.002   4.015  16.708  0.00  0.00    +0.000 OA
ENDBRANCH  12  22
ENDBRANCH   8  19
ENDBRANCH   7  10
ENDBRANCH   1   7
BRANCH   4  23
ATOM     23  C   UNL     1      43.680   3.988  11.411  0.00  0.00    +0.000 C 
BRANCH  23  24
ATOM     24  C   UNL     1      44.098   2.906  10.407  0.00  0.00    +0.000 C 
BRANCH  24  25
ATOM     25  N   UNL     1      44.204   3.420   9.038  0.00  0.00    +0.000 N 
ATOM     26  H   UNL     1      44.161   4.434   8.985  0.00  0.00    +0.000 HD
BRANCH  25  27
ATOM     27  C   UNL     1      45.257   2.889   8.265  0.00  0.00    +0.000 A 
ATOM     28  C   UNL     1      46.075   3.689   7.450  0.00  0.00    +0.000 A 
ATOM     29  C   UNL     1      47.177   3.162   6.768  0.00  0.00    +0.000 A 
ATOM     30  C   UNL     1      47.490   1.816   6.904  0.00  0.00    +0.000 A 
ATOM     31  C   UNL     1      46.696   1.016   7.714  0.00  0.00    +0.000 A 
ATOM     32  F   UNL     1      46.997  -0.284   7.846  0.00  0.00    +0.000 F 
ATOM     33  C   UNL     1      45.599   1.539   8.400  0.00  0.00    +0.000 A 
ENDBRANCH  25  27
ENDBRANCH  24  25
ENDBRANCH  23  24
ENDBRANCH   4  23
TORSDOF 8
ENDMDL
MODEL 2
REMARK VINA RESULT:    -7.639      1.588      2.496
REMARK INTER + INTRA:         -12.367
REMARK INTER:                 -11.293
REMARK INTRA:                  -1.074
REMARK UNBOUND:                -1.156
REMARK  Name = 
REMARK  9 active torsions:
REMARK  status: ('A' for Active; 'I' for Inactive)
REMARK    1  A    between atoms: C_1  and  O_2
REMARK    2  A    between atoms: O_2  and  C_3
REMARK    3  A    between atoms: C_10  and  C_11
REMARK    4  A    between atoms: N_13  and  C_14
REMARK    5  A    between atoms: C_14  and  C_15
REMARK    6  A    between atoms: C_18  and  C_19
REMARK    7  A    between atoms: C_19  and  C_20
REMARK    8  A    between atoms: C_20  and  N_21
REMARK    9  A    between atoms: N_21  and  C_22
REMARK                            x       y       z     vdW  Elec       q    Type
REMARK                         _______ _______ _______ _____ _____    ______ ____
ROOT
ATOM      1  C   UNL     1      46.831   6.857  12.983  0.00  0.00    +0.000 A 
ATOM      2  C   UNL     1      46.588   5.483  13.070  0.00  0.00    +0.000 A 
ATOM      3  C   UNL     1      45.563   4.893  12.326  0.00  0.00    +0.000 A 
ATOM      4  C   UNL     1      44.755   5.657  11.469  0.00  0.00    +0.000 A 
ATOM      5  C   UNL     1      45.037   7.026  11.348  0.00  0.00    +0.000 A 
ATOM      6  C   UNL     1      46.069   7.616  12.088  0.00  0.00    +0.000 A 
ENDROOT
BRANCH   1   7
ATOM      7  C   UNL     1      47.895   7.497  13.834  0.00  0.00    +0.000 C 
BRANCH   7  10
ATOM      8  C   UNL     1      49.072   6.564  15.767  0.00  0.00    +0.000 C 
ATOM      9  O   UNL     1      50.152   6.653  15.179  0.00  0.00    +0.000 OA
ATOM     10  N   UNL     1      47.907   6.958  15.168  0.00  0.00    +0.000 N 
ATOM     11  H   UNL     1      47.020   6.828  15.639  0.00  0.00    +0.000 HD
BRANCH   8  19
ATOM     12  C   UNL     1      49.216   8.025  18.892  0.00  0.00    +0.000 A 
ATOM     13  N   UNL     1      49.307   8.303  20.211  0.00  0.00    +0.000 NA
ATOM     14  C   UNL     1      49.234   7.294  21.078  0.00  0.00    +0.000 A 
ATOM     15  N   UNL     1      49.076   6.007  20.793  0.00  0.00    +0.000 NA
ATOM     16  C   UNL     1      49.005   5.765  19.472  0.00  0.00    +0.000 A 
ATOM     17  S   UNL     1      48.796   4.171  18.931  0.00  0.00    +0.000 S 
ATOM     18  C   UNL     1      48.826   4.668  17.308  0.00  0.00    +0.000 A 
ATOM     19  C   UNL     1      48.994   6.037  17.140  0.00  0.00    +0.000 A 
ATOM     20  C   UNL     1      49.077   6.699  18.441  0.00  0.00    +0.000 A 
BRANCH  12  22
ATOM     21  C   UNL     1      47.937   9.620  17.737  0.00  0.00    +0.000 C 
ATOM     22  O   UNL     1      49.233   9.080  18.000  0.00  0.00    +0.000 OA
ENDBRANCH  12  22
ENDBRANCH   8  19
ENDBRANCH   7  10
ENDBRANCH   1   7
BRANCH   4  23
ATOM     23  C   UNL     1      43.584   5.079  10.692  0.00  0.00    +0.000 C 
BRANCH  23  24
ATOM     24  C   UNL     1      43.943   3.916   9.759  0.00  0.00    +0.000 C 
BRANCH  24  25
ATOM     25  N   UNL     1      44.806   4.331   8.649  0.00  0.00    +0.000 N 
ATOM     26  H   UNL     1      45.321   5.187   8.837  0.00  0.00    +0.000 HD
BRANCH  25  27
ATOM     27  C   UNL     1      45.629   3.324   8.104  0.00  0.00    +0.000 A 
ATOM     28  C   UNL     1      45.670   2.018   8.619  0.00  0.00    +0.000 A 
ATOM     29  C   UNL     1      46.416   1.006   8.004  0.00  0.00    +0.000 A 
ATOM     30  C   UNL     1      47.129   1.284   6.845  0.00  0.00    +0.000 A 
ATOM     31  C   UNL     1      47.090   2.568   6.320  0.00  0.00    +0.000 A 
ATOM     32  F   UNL     1      47.776   2.839   5.201  0.00  0.00    +0.000 F 
ATOM     33  C   UNL     1      46.343   3.579   6.927  0.00  0.00    +0.000 A 
ENDBRANCH  25  27
ENDBRANCH  24  25
ENDBRANCH  23  24
ENDBRANCH   4  23
TORSDOF 8
ENDMDL
MODEL 3
REMARK VINA RESULT:    -7.391      2.010      2.365
REMARK INTER + INTRA:         -12.003
REMARK INTER:                 -10.599
REMARK INTRA:                  -1.404
REMARK UNBOUND:                -1.156
REMARK  Name = 
REMARK  9 active torsions:
REMARK  status: ('A' for Active; 'I' for Inactive)
REMARK    1  A    between atoms: C_1  and  O_2
REMARK    2  A    between atoms: O_2  and  C_3
REMARK    3  A    between atoms: C_10  and  C_11
REMARK    4  A    between atoms: N_13  and  C_14
REMARK    5  A    between atoms: C_14  and  C_15
REMARK    6  A    between atoms: C_18  and  C_19
REMARK    7  A    between atoms: C_19  and  C_20
REMARK    8  A    between atoms: C_20  and  N_21
REMARK    9  A    between atoms: N_21  and  C_22
REMARK                            x       y       z     vdW  Elec       q    Type
REMARK                         _______ _______ _______ _____ _____    ______ ____
ROOT
ATOM      1  C   UNL     1      46.956   6.893  12.876  0.00  0.00    +0.000 A 
ATOM      2  C   UNL     1      47.002   5.544  13.241  0.00  0.00    +0.000 A 
ATOM      3  C   UNL     1      45.866   4.738  13.131  0.00  0.00    +0.000 A 
ATOM      4  C   UNL     1      44.653   5.254  12.648  0.00  0.00    +0.000 A 
ATOM      5  C   UNL     1      44.627   6.595  12.237  0.00  0.00    +0.000 A 
ATOM      6  C   UNL     1      45.767   7.401  12.340  0.00  0.00    +0.000 A 
ENDROOT
BRANCH   1   7
ATOM      7  C   UNL     1      48.164   7.771  13.056  0.00  0.00    +0.000 C 
BRANCH   7  10
ATOM      8  C   UNL     1      49.729   7.794  14.939  0.00  0.00    +0.000 C 
ATOM      9  O   UNL     1      49.400   8.946  15.226  0.00  0.00    +0.000 OA
ATOM     10  N   UNL     1      49.165   7.142  13.877  0.00  0.00    +0.000 N 
ATOM     11  H   UNL     1      49.483   6.216  13.616  0.00  0.00    +0.000 HD
BRANCH   8  19
ATOM     12  C   UNL     1      49.569   5.122  17.119  0.00  0.00    +0.000 A 
ATOM     13  N   UNL     1      49.795   4.165  18.047  0.00  0.00    +0.000 NA
ATOM     14  C   UNL     1      51.037   4.002  18.499  0.00  0.00    +0.000 A 
ATOM     15  N   UNL     1      52.116   4.686  18.135  0.00  0.00    +0.000 NA
ATOM     16  C   UNL     1      51.852   5.639  17.223  0.00  0.00    +0.000 A 
ATOM     17  S   UNL     1      53.120   6.603  16.641  0.00  0.00    +0.000 S 
ATOM     18  C   UNL     1      52.059   7.481  15.648  0.00  0.00    +0.000 A 
ATOM     19  C   UNL     1      50.734   7.068  15.733  0.00  0.00    +0.000 A 
ATOM     20  C   UNL     1      50.615   5.945  16.662  0.00  0.00    +0.000 A 
BRANCH  12  22
ATOM     21  C   UNL     1      47.564   4.018  16.595  0.00  0.00    +0.000 C 
ATOM     22  O   UNL     1      48.290   5.248  16.611  0.00  0.00    +0.000 OA
ENDBRANCH  12  22
ENDBRANCH   8  19
ENDBRANCH   7  10
ENDBRANCH   1   7
BRANCH   4  23
ATOM     23  C   UNL     1      43.371   4.441  12.575  0.00  0.00    +0.000 C 
BRANCH  23  24
ATOM     24  C   UNL     1      43.340   3.390  11.458  0.00  0.00    +0.000 C 
BRANCH  24  25
ATOM     25  N   UNL     1      43.539   3.975  10.129  0.00  0.00    +0.000 N 
ATOM     26  H   UNL     1      43.597   4.990  10.141  0.00  0.00    +0.000 HD
BRANCH  25  27
ATOM     27  C   UNL     1      44.560   3.393   9.350  0.00  0.00    +0.000 A 
ATOM     28  C   UNL     1      44.772   2.006   9.295  0.00  0.00    +0.000 A 
ATOM     29  C   UNL     1      45.724   1.439   8.440  0.00  0.00    +0.000 A 
ATOM     30  C   UNL     1      46.477   2.258   7.609  0.00  0.00    +0.000 A 
ATOM     31  C   UNL     1      46.271   3.630   7.647  0.00  0.00    +0.000 A 
ATOM     32  F   UNL     1      46.996   4.423   6.845  0.00  0.00    +0.000 F 
ATOM     33  C   UNL     1      45.319   4.199   8.494  0.00  0.00    +0.000 A 
ENDBRANCH  25  27
ENDBRANCH  24  25
ENDBRANCH  23  24
ENDBRANCH   4  23
TORSDOF 8
ENDMDL
MODEL 4
REMARK VINA RESULT:    -7.007      2.615      3.644
REMARK INTER + INTRA:         -11.440
REMARK INTER:                 -10.392
REMARK INTRA:                  -1.048
REMARK UNBOUND:                -1.156
REMARK  Name = 
REMARK  9 active torsions:
REMARK  status: ('A' for Active; 'I' for Inactive)
REMARK    1  A    between atoms: C_1  and  O_2
REMARK    2  A    between atoms: O_2  and  C_3
REMARK    3  A    between atoms: C_10  and  C_11
REMARK    4  A    between atoms: N_13  and  C_14
REMARK    5  A    between atoms: C_14  and  C_15
REMARK    6  A    between atoms: C_18  and  C_19
REMARK    7  A    between atoms: C_19  and  C_20
REMARK    8  A    between atoms: C_20  and  N_21
REMARK    9  A    between atoms: N_21  and  C_22
REMARK                            x       y       z     vdW  Elec       q    Type
REMARK                         _______ _______ _______ _____ _____    ______ ____
ROOT
ATOM      1  C   UNL     1      48.611   7.666  15.250  0.00  0.00    +0.000 A 
ATOM      2  C   UNL     1      48.307   6.354  14.875  0.00  0.00    +0.000 A 
ATOM      3  C   UNL     1      47.557   6.099  13.724  0.00  0.00    +0.000 A 
ATOM      4  C   UNL     1      47.095   7.146  12.911  0.00  0.00    +0.000 A 
ATOM      5  C   UNL     1      47.446   8.457  13.265  0.00  0.00    +0.000 A 
ATOM      6  C   UNL     1      48.204   8.713  14.415  0.00  0.00    +0.000 A 
ENDROOT
BRANCH   1   7
ATOM      7  C   UNL     1      49.364   7.938  16.524  0.00  0.00    +0.000 C 
BRANCH   7  10
ATOM      8  C   UNL     1      50.229   6.122  17.919  0.00  0.00    +0.000 C 
ATOM      9  O   UNL     1      49.309   6.273  18.724  0.00  0.00    +0.000 OA
ATOM     10  N   UNL     1      50.330   6.909  16.805  0.00  0.00    +0.000 N 
ATOM     11  H   UNL     1      51.121   6.814  16.179  0.00  0.00    +0.000 HD
BRANCH   8  19
ATOM     12  C   UNL     1      50.364   2.743  17.226  0.00  0.00    +0.000 A 
ATOM     13  N   UNL     1      50.666   1.428  17.140  0.00  0.00    +0.000 NA
ATOM     14  C   UNL     1      51.844   1.017  17.608  0.00  0.00    +0.000 A 
ATOM     15  N   UNL     1      52.787   1.767  18.166  0.00  0.00    +0.000 NA
ATOM     16  C   UNL     1      52.447   3.065  18.250  0.00  0.00    +0.000 A 
ATOM     17  S   UNL     1      53.542   4.167  18.930  0.00  0.00    +0.000 S 
ATOM     18  C   UNL     1      52.457   5.455  18.707  0.00  0.00    +0.000 A 
ATOM     19  C   UNL     1      51.254   5.083  18.119  0.00  0.00    +0.000 A 
ATOM     20  C   UNL     1      51.258   3.651  17.822  0.00  0.00    +0.000 A 
BRANCH  12  22
ATOM     21  C   UNL     1      48.059   3.026  17.575  0.00  0.00    +0.000 C 
ATOM     22  O   UNL     1      49.168   3.173  16.686  0.00  0.00    +0.000 OA
ENDBRANCH  12  22
ENDBRANCH   8  19
ENDBRANCH   7  10
ENDBRANCH   1   7
BRANCH   4  23
ATOM     23  C   UNL     1      46.218   6.928  11.689  0.00  0.00    +0.000 C 
BRANCH  23  24
ATOM     24  C   UNL     1      45.337   5.673  11.746  0.00  0.00    +0.000 C 
BRANCH  24  25
ATOM     25  N   UNL     1      44.574   5.465  10.512  0.00  0.00    +0.000 N 
ATOM     26  H   UNL     1      44.439   6.316   9.974  0.00  0.00    +0.000 HD
BRANCH  25  27
ATOM     27  C   UNL     1      44.995   4.387   9.707  0.00  0.00    +0.000 A 
ATOM     28  C   UNL     1      44.603   3.061   9.951  0.00  0.00    +0.000 A 
ATOM     29  C   UNL     1      44.948   2.019   9.083  0.00  0.00    +0.000 A 
ATOM     30  C   UNL     1      45.686   2.291   7.939  0.00  0.00    +0.000 A 
ATOM     31  C   UNL     1      46.073   3.599   7.681  0.00  0.00    +0.000 A 
ATOM     32  F   UNL     1      46.784   3.865   6.577  0.00  0.00    +0.000 F 
ATOM     33  C   UNL     1      45.726   4.643   8.540  0.00  0.00    +0.000 A 
ENDBRANCH  25  27
ENDBRANCH  24  25
ENDBRANCH  23  24
ENDBRANCH   4  23
TORSDOF 8
ENDMDL
MODEL 5
REMARK VINA RESULT:    -6.950      3.704      5.506
REMARK INTER + INTRA:         -11.356
REMARK INTER:                 -10.114
REMARK INTRA:                  -1.242
REMARK UNBOUND:                -1.156
REMARK  Name = 
REMARK  9 active torsions:
REMARK  status: ('A' for Active; 'I' for Inactive)
REMARK    1  A    between atoms: C_1  and  O_2
REMARK    2  A    between atoms: O_2  and  C_3
REMARK    3  A    between atoms: C_10  and  C_11
REMARK    4  A    between atoms: N_13  and  C_14
REMARK    5  A    between atoms: C_14  and  C_15
REMARK    6  A    between atoms: C_18  and  C_19
REMARK    7  A    between atoms: C_19  and  C_20
REMARK    8  A    between atoms: C_20  and  N_21
REMARK    9  A    between atoms: N_21  and  C_22
REMARK                            x       y       z     vdW  Elec       q    Type
REMARK                         _______ _______ _______ _____ _____    ______ ____
ROOT
ATOM      1  C   UNL     1      47.974   6.613  13.863  0.00  0.00    +0.000 A 
ATOM      2  C   UNL     1      47.624   7.353  12.729  0.00  0.00    +0.000 A 
ATOM      3  C   UNL     1      46.647   6.884  11.847  0.00  0.00    +0.000 A 
ATOM      4  C   UNL     1      45.986   5.666  12.076  0.00  0.00    +0.000 A 
ATOM      5  C   UNL     1      46.306   4.954  13.242  0.00  0.00    +0.000 A 
ATOM      6  C   UNL     1      47.280   5.428  14.129  0.00  0.00    +0.000 A 
ENDROOT
BRANCH   1   7
ATOM      7  C   UNL     1      49.071   7.092  14.775  0.00  0.00    +0.000 C 
BRANCH   7  10
ATOM      8  C   UNL     1      51.184   8.283  14.441  0.00  0.00    +0.000 C 
ATOM      9  O   UNL     1      50.951   9.012  15.407  0.00  0.00    +0.000 OA
ATOM     10  N   UNL     1      50.302   7.309  14.061  0.00  0.00    +0.000 N 
ATOM     11  H   UNL     1      50.478   6.754  13.233  0.00  0.00    +0.000 HD
BRANCH   8  19
ATOM     12  C   UNL     1      51.861   8.594  11.070  0.00  0.00    +0.000 A 
ATOM     13  N   UNL     1      52.418   8.656   9.840  0.00  0.00    +0.000 NA
ATOM     14  C   UNL     1      53.746   8.690   9.747  0.00  0.00    +0.000 A 
ATOM     15  N   UNL     1      54.618   8.671  10.749  0.00  0.00    +0.000 NA
ATOM     16  C   UNL     1      54.030   8.593  11.956  0.00  0.00    +0.000 A 
ATOM     17  S   UNL     1      54.998   8.567  13.349  0.00  0.00    +0.000 S 
ATOM     18  C   UNL     1      53.633   8.447  14.352  0.00  0.00    +0.000 A 
ATOM     19  C   UNL     1      52.426   8.425  13.663  0.00  0.00    +0.000 A 
ATOM     20  C   UNL     1      52.665   8.537  12.224  0.00  0.00    +0.000 A 
BRANCH  12  22
ATOM     21  C   UNL     1      49.949   9.936  11.309  0.00  0.00    +0.000 C 
ATOM     22  O   UNL     1      50.483   8.619  11.164  0.00  0.00    +0.000 OA
ENDBRANCH  12  22
ENDBRANCH   8  19
ENDBRANCH   7  10
ENDBRANCH   1   7
BRANCH   4  23
ATOM     23  C   UNL     1      44.968   5.077  11.114  0.00  0.00    +0.000 C 
BRANCH  23  24
ATOM     24  C   UNL     1      45.417   5.038   9.647  0.00  0.00    +0.000 C 
BRANCH  24  25
ATOM     25  N   UNL     1      44.791   3.945   8.897  0.00  0.00    +0.000 N 
ATOM     26  H   UNL     1      43.983   4.240   8.356  0.00  0.00    +0.000 HD
BRANCH  25  27
ATOM     27  C   UNL     1      45.669   3.139   8.144  0.00  0.00    +0.000 A 
ATOM     28  C   UNL     1      46.597   3.673   7.235  0.00  0.00    +0.000 A 
ATOM     29  C   UNL     1      47.528   2.865   6.573  0.00  0.00    +0.000 A 
ATOM     30  C   UNL     1      47.555   1.499   6.821  0.00  0.00    +0.000 A 
ATOM     31  C   UNL     1      46.649   0.959   7.723  0.00  0.00    +0.000 A 
ATOM     32  F   UNL     1      46.673  -0.359   7.965  0.00  0.00    +0.000 F 
ATOM     33  C   UNL     1      45.723   1.762   8.391  0.00  0.00    +0.000 A 
ENDBRANCH  25  27
ENDBRANCH  24  25
ENDBRANCH  23  24
ENDBRANCH   4  23
TORSDOF 8
ENDMDL
MODEL 6
REMARK VINA RESULT:    -6.831      3.667      8.398
REMARK INTER + INTRA:         -11.181
REMARK INTER:                  -8.900
REMARK INTRA:                  -2.281
REMARK UNBOUND:                -1.156
REMARK  Name = 
REMARK  9 active torsions:
REMARK  status: ('A' for Active; 'I' for Inactive)
REMARK    1  A    between atoms: C_1  and  O_2
REMARK    2  A    between atoms: O_2  and  C_3
REMARK    3  A    between atoms: C_10  and  C_11
REMARK    4  A    between atoms: N_13  and  C_14
REMARK    5  A    between atoms: C_14  and  C_15
REMARK    6  A    between atoms: C_18  and  C_19
REMARK    7  A    between atoms: C_19  and  C_20
REMARK    8  A    between atoms: C_20  and  N_21
REMARK    9  A    between atoms: N_21  and  C_22
REMARK                            x       y       z     vdW  Elec       q    Type
REMARK                         _______ _______ _______ _____ _____    ______ ____
ROOT
ATOM      1  C   UNL     1      49.241   7.836  16.100  0.00  0.00    +0.000 A 
ATOM      2  C   UNL     1      48.617   8.360  17.236  0.00  0.00    +0.000 A 
ATOM      3  C   UNL     1      49.003   7.947  18.514  0.00  0.00    +0.000 A 
ATOM      4  C   UNL     1      50.027   7.004  18.694  0.00  0.00    +0.000 A 
ATOM      5  C   UNL     1      50.682   6.520  17.552  0.00  0.00    +0.000 A 
ATOM      6  C   UNL     1      50.301   6.939  16.272  0.00  0.00    +0.000 A 
ENDROOT
BRANCH   1   7
ATOM      7  C   UNL     1      48.779   8.237  14.725  0.00  0.00    +0.000 C 
BRANCH   7  10
ATOM      8  C   UNL     1      47.909   6.418  13.336  0.00  0.00    +0.000 C 
ATOM      9  O   UNL     1      49.029   6.212  12.866  0.00  0.00    +0.000 OA
ATOM     10  N   UNL     1      47.700   7.405  14.260  0.00  0.00    +0.000 N 
ATOM     11  H   UNL     1      46.766   7.602  14.597  0.00  0.00    +0.000 HD
BRANCH   8  19
ATOM     12  C   UNL     1      44.927   7.141  11.754  0.00  0.00    +0.000 A 
ATOM     13  N   UNL     1      43.680   7.140  11.231  0.00  0.00    +0.000 NA
ATOM     14  C   UNL     1      43.012   5.988  11.191  0.00  0.00    +0.000 A 
ATOM     15  N   UNL     1      43.436   4.803  11.616  0.00  0.00    +0.000 NA
ATOM     16  C   UNL     1      44.672   4.845  12.144  0.00  0.00    +0.000 A 
ATOM     17  S   UNL     1      45.373   3.416  12.729  0.00  0.00    +0.000 S 
ATOM     18  C   UNL     1      46.779   4.242  13.200  0.00  0.00    +0.000 A 
ATOM     19  C   UNL     1      46.751   5.605  12.929  0.00  0.00    +0.000 A 
ATOM     20  C   UNL     1      45.494   5.962  12.272  0.00  0.00    +0.000 A 
BRANCH  12  22
ATOM     21  C   UNL     1      45.093   9.324  12.604  0.00  0.00    +0.000 C 
ATOM     22  O   UNL     1      45.638   8.326  11.740  0.00  0.00    +0.000 OA
ENDBRANCH  12  22
ENDBRANCH   8  19
ENDBRANCH   7  10
ENDBRANCH   1   7
BRANCH   4  23
ATOM     23  C   UNL     1      50.437   6.469  20.056  0.00  0.00    +0.000 C 
BRANCH  23  24
ATOM     24  C   UNL     1      50.381   4.942  20.191  0.00  0.00    +0.000 C 
BRANCH  24  25
ATOM     25  N   UNL     1      49.011   4.423  20.153  0.00  0.00    +0.000 N 
ATOM     26  H   UNL     1      48.338   5.029  20.614  0.00  0.00    +0.000 HD
BRANCH  25  27
ATOM     27  C   UNL     1      48.556   3.988  18.891  0.00  0.00    +0.000 A 
ATOM     28  C   UNL     1      47.467   4.582  18.233  0.00  0.00    +0.000 A 
ATOM     29  C   UNL     1      47.093   4.203  16.938  0.00  0.00    +0.000 A 
ATOM     30  C   UNL     1      47.817   3.225  16.271  0.00  0.00    +0.000 A 
ATOM     31  C   UNL     1      48.902   2.636  16.906  0.00  0.00    +0.000 A 
ATOM     32  F   UNL     1      49.603   1.691  16.264  0.00  0.00    +0.000 F 
ATOM     33  C   UNL     1      49.282   3.014  18.195  0.00  0.00    +0.000 A 
ENDBRANCH  25  27
ENDBRANCH  24  25
ENDBRANCH  23  24
ENDBRANCH   4  23
TORSDOF 8
ENDMDL
MODEL 7
REMARK VINA RESULT:    -6.550      3.745      8.267
REMARK INTER + INTRA:         -10.770
REMARK INTER:                  -9.018
REMARK INTRA:                  -1.752
REMARK UNBOUND:                -1.156
REMARK  Name = 
REMARK  9 active torsions:
REMARK  status: ('A' for Active; 'I' for Inactive)
REMARK    1  A    between atoms: C_1  and  O_2
REMARK    2  A    between atoms: O_2  and  C_3
REMARK    3  A    between atoms: C_10  and  C_11
REMARK    4  A    between atoms: N_13  and  C_14
REMARK    5  A    between atoms: C_14  and  C_15
REMARK    6  A    between atoms: C_18  and  C_19
REMARK    7  A    between atoms: C_19  and  C_20
REMARK    8  A    between atoms: C_20  and  N_21
REMARK    9  A    between atoms: N_21  and  C_22
REMARK                            x       y       z     vdW  Elec       q    Type
REMARK                         _______ _______ _______ _____ _____    ______ ____
ROOT
ATOM      1  C   UNL     1      48.404   8.862  15.587  0.00  0.00    +0.000 A 
ATOM      2  C   UNL     1      47.942   9.681  16.622  0.00  0.00    +0.000 A 
ATOM      3  C   UNL     1      48.219   9.367  17.955  0.00  0.00    +0.000 A 
ATOM      4  C   UNL     1      48.970   8.229  18.292  0.00  0.00    +0.000 A 
ATOM      5  C   UNL     1      49.473   7.440  17.247  0.00  0.00    +0.000 A 
ATOM      6  C   UNL     1      49.201   7.759  15.911  0.00  0.00    +0.000 A 
ENDROOT
BRANCH   1   7
ATOM      7  C   UNL     1      48.049   9.170  14.157  0.00  0.00    +0.000 C 
BRANCH   7  10
ATOM      8  C   UNL     1      46.983   7.492  12.728  0.00  0.00    +0.000 C 
ATOM      9  O   UNL     1      48.055   7.255  12.169  0.00  0.00    +0.000 OA
ATOM     10  N   UNL     1      46.895   8.428  13.721  0.00  0.00    +0.000 N 
ATOM     11  H   UNL     1      45.998   8.655  14.134  0.00  0.00    +0.000 HD
BRANCH   8  19
ATOM     12  C   UNL     1      45.994   4.192  12.960  0.00  0.00    +0.000 A 
ATOM     13  N   UNL     1      45.380   2.992  12.860  0.00  0.00    +0.000 NA
ATOM     14  C   UNL     1      44.172   2.944  12.300  0.00  0.00    +0.000 A 
ATOM     15  N   UNL     1      43.476   3.965  11.814  0.00  0.00    +0.000 NA
ATOM     16  C   UNL     1      44.123   5.140  11.917  0.00  0.00    +0.000 A 
ATOM     17  S   UNL     1      43.372   6.552  11.351  0.00  0.00    +0.000 S 
ATOM     18  C   UNL     1      44.717   7.495  11.781  0.00  0.00    +0.000 A 
ATOM     19  C   UNL     1      45.755   6.770  12.356  0.00  0.00    +0.000 A 
ATOM     20  C   UNL     1      45.387   5.358  12.459  0.00  0.00    +0.000 A 
BRANCH  12  22
ATOM     21  C   UNL     1      47.130   4.606  14.973  0.00  0.00    +0.000 C 
ATOM     22  O   UNL     1      47.220   4.245  13.594  0.00  0.00    +0.000 OA
ENDBRANCH  12  22
ENDBRANCH   8  19
ENDBRANCH   7  10
ENDBRANCH   1   7
BRANCH   4  23
ATOM     23  C   UNL     1      49.240   7.805  19.726  0.00  0.00    +0.000 C 
BRANCH  23  24
ATOM     24  C   UNL     1      48.598   6.472  20.134  0.00  0.00    +0.000 C 
BRANCH  24  25
ATOM     25  N   UNL     1      49.569   5.377  20.201  0.00  0.00    +0.000 N 
ATOM     26  H   UNL     1      49.588   4.910  21.103  0.00  0.00    +0.000 HD
BRANCH  25  27
ATOM     27  C   UNL     1      49.535   4.462  19.129  0.00  0.00    +0.000 A 
ATOM     28  C   UNL     1      50.694   4.033  18.461  0.00  0.00    +0.000 A 
ATOM     29  C   UNL     1      50.651   3.049  17.467  0.00  0.00    +0.000 A 
ATOM     30  C   UNL     1      49.438   2.463  17.131  0.00  0.00    +0.000 A 
ATOM     31  C   UNL     1      48.286   2.870  17.790  0.00  0.00    +0.000 A 
ATOM     32  F   UNL     1      47.114   2.305  17.468  0.00  0.00    +0.000 F 
ATOM     33  C   UNL     1      48.325   3.847  18.786  0.00  0.00    +0.000 A 
ENDBRANCH  25  27
ENDBRANCH  24  25
ENDBRANCH  23  24
ENDBRANCH   4  23
TORSDOF 8
ENDMDL
MODEL 8
REMARK VINA RESULT:    -6.429      3.162      4.867
REMARK INTER + INTRA:         -10.592
REMARK INTER:                  -9.229
REMARK INTRA:                  -1.364
REMARK UNBOUND:                -1.156
REMARK  Name = 
REMARK  9 active torsions:
REMARK  status: ('A' for Active; 'I' for Inactive)
REMARK    1  A    between atoms: C_1  and  O_2
REMARK    2  A    between atoms: O_2  and  C_3
REMARK    3  A    between atoms: C_10  and  C_11
REMARK    4  A    between atoms: N_13  and  C_14
REMARK    5  A    between atoms: C_14  and  C_15
REMARK    6  A    between atoms: C_18  and  C_19
REMARK    7  A    between atoms: C_19  and  C_20
REMARK    8  A    between atoms: C_20  and  N_21
REMARK    9  A    between atoms: N_21  and  C_22
REMARK                            x       y       z     vdW  Elec       q    Type
REMARK                         _______ _______ _______ _____ _____    ______ ____
ROOT
ATOM      1  C   UNL     1      48.840   7.147  16.302  0.00  0.00    +0.000 A 
ATOM      2  C   UNL     1      48.389   5.977  15.683  0.00  0.00    +0.000 A 
ATOM      3  C   UNL     1      47.861   6.015  14.390  0.00  0.00    +0.000 A 
ATOM      4  C   UNL     1      47.774   7.220  13.675  0.00  0.00    +0.000 A 
ATOM      5  C   UNL     1      48.275   8.381  14.283  0.00  0.00    +0.000 A 
ATOM      6  C   UNL     1      48.810   8.343  15.576  0.00  0.00    +0.000 A 
ENDROOT
BRANCH   1   7
ATOM      7  C   UNL     1      49.349   7.111  17.718  0.00  0.00    +0.000 C 
BRANCH   7  10
ATOM      8  C   UNL     1      51.539   6.017  17.709  0.00  0.00    +0.000 C 
ATOM      9  O   UNL     1      52.072   7.039  17.273  0.00  0.00    +0.000 OA
ATOM     10  N   UNL     1      50.194   5.970  17.954  0.00  0.00    +0.000 N 
ATOM     11  H   UNL     1      49.759   5.108  18.258  0.00  0.00    +0.000 HD
BRANCH   8  19
ATOM     12  C   UNL     1      50.956   2.639  17.305  0.00  0.00    +0.000 A 
ATOM     13  N   UNL     1      50.978   1.288  17.330  0.00  0.00    +0.000 NA
ATOM     14  C   UNL     1      52.054   0.680  17.827  0.00  0.00    +0.000 A 
ATOM     15  N   UNL     1      53.144   1.261  18.316  0.00  0.00    +0.000 NA
ATOM     16  C   UNL     1      53.082   2.604  18.290  0.00  0.00    +0.000 A 
ATOM     17  S   UNL     1      54.396   3.506  18.870  0.00  0.00    +0.000 S 
ATOM     18  C   UNL     1      53.597   4.968  18.543  0.00  0.00    +0.000 A 
ATOM     19  C   UNL     1      52.330   4.809  17.993  0.00  0.00    +0.000 A 
ATOM     20  C   UNL     1      52.032   3.388  17.819  0.00  0.00    +0.000 A 
BRANCH  12  22
ATOM     21  C   UNL     1      48.613   2.755  17.203  0.00  0.00    +0.000 C 
ATOM     22  O   UNL     1      49.864   3.263  16.734  0.00  0.00    +0.000 OA
ENDBRANCH  12  22
ENDBRANCH   8  19
ENDBRANCH   7  10
ENDBRANCH   1   7
BRANCH   4  23
ATOM     23  C   UNL     1      47.146   7.328  12.296  0.00  0.00    +0.000 C 
BRANCH  23  24
ATOM     24  C   UNL     1      45.693   7.821  12.288  0.00  0.00    +0.000 C 
BRANCH  24  25
ATOM     25  N   UNL     1      44.789   6.920  13.009  0.00  0.00    +0.000 N 
ATOM     26  H   UNL     1      43.947   7.379  13.344  0.00  0.00    +0.000 HD
BRANCH  25  27
ATOM     27  C   UNL     1      44.509   5.695  12.370  0.00  0.00    +0.000 A 
ATOM     28  C   UNL     1      44.281   4.505  13.082  0.00  0.00    +0.000 A 
ATOM     29  C   UNL     1      43.906   3.321  12.437  0.00  0.00    +0.000 A 
ATOM     30  C   UNL     1      43.738   3.311  11.058  0.00  0.00    +0.000 A 
ATOM     31  C   UNL     1      43.952   4.482  10.344  0.00  0.00    +0.000 A 
ATOM     32  F   UNL     1      43.791   4.475   9.013  0.00  0.00    +0.000 F 
ATOM     33  C   UNL     1      44.321   5.667  10.983  0.00  0.00    +0.000 A 
ENDBRANCH  25  27
ENDBRANCH  24  25
ENDBRANCH  23  24
ENDBRANCH   4  23
TORSDOF 8
ENDMDL
MODEL 9
REMARK VINA RESULT:    -6.368      4.349      6.547
REMARK INTER + INTRA:         -10.503
REMARK INTER:                  -9.440
REMARK INTRA:                  -1.063
REMARK UNBOUND:                -1.156
REMARK  Name = 
REMARK  9 active torsions:
REMARK  status: ('A' for Active; 'I' for Inactive)
REMARK    1  A    between atoms: C_1  and  O_2
REMARK    2  A    between atoms: O_2  and  C_3
REMARK    3  A    between atoms: C_10  and  C_11
REMARK    4  A    between atoms: N_13  and  C_14
REMARK    5  A    between atoms: C_14  and  C_15
REMARK    6  A    between atoms: C_18  and  C_19
REMARK    7  A    between atoms: C_19  and  C_20
REMARK    8  A    between atoms: C_20  and  N_21
REMARK    9  A    between atoms: N_21  and  C_22
REMARK                            x       y       z     vdW  Elec       q    Type
REMARK                         _______ _______ _______ _____ _____    ______ ____
ROOT
ATOM      1  C   UNL     1      47.847   6.634  13.102  0.00  0.00    +0.000 A 
ATOM      2  C   UNL     1      47.209   7.226  12.007  0.00  0.00    +0.000 A 
ATOM      3  C   UNL     1      46.035   6.678  11.486  0.00  0.00    +0.000 A 
ATOM      4  C   UNL     1      45.459   5.526  12.047  0.00  0.00    +0.000 A 
ATOM      5  C   UNL     1      46.076   4.967  13.175  0.00  0.00    +0.000 A 
ATOM      6  C   UNL     1      47.250   5.520  13.702  0.00  0.00    +0.000 A 
ENDROOT
BRANCH   1   7
ATOM      7  C   UNL     1      49.145   7.192  13.619  0.00  0.00    +0.000 C 
BRANCH   7  10
ATOM      8  C   UNL     1      51.109   8.342  12.716  0.00  0.00    +0.000 C 
ATOM      9  O   UNL     1      51.281   8.933  13.784  0.00  0.00    +0.000 OA
ATOM     10  N   UNL     1      50.072   7.464  12.553  0.00  0.00    +0.000 N 
ATOM     11  H   UNL     1      49.908   7.027  11.654  0.00  0.00    +0.000 HD
BRANCH   8  19
ATOM     12  C   UNL     1      51.355  10.770  10.275  0.00  0.00    +0.000 A 
ATOM     13  N   UNL     1      51.640  11.515   9.184  0.00  0.00    +0.000 NA
ATOM     14  C   UNL     1      52.637  11.122   8.392  0.00  0.00    +0.000 A 
ATOM     15  N   UNL     1      53.408  10.053   8.550  0.00  0.00    +0.000 NA
ATOM     16  C   UNL     1      53.086   9.327   9.636  0.00  0.00    +0.000 A 
ATOM     17  S   UNL     1      53.978   7.930   9.993  0.00  0.00    +0.000 S 
ATOM     18  C   UNL     1      53.023   7.613  11.361  0.00  0.00    +0.000 A 
ATOM     19  C   UNL     1      52.018   8.549  11.576  0.00  0.00    +0.000 A 
ATOM     20  C   UNL     1      52.072   9.591  10.553  0.00  0.00    +0.000 A 
BRANCH  12  22
ATOM     21  C   UNL     1      49.054  10.780  10.744  0.00  0.00    +0.000 C 
ATOM     22  O   UNL     1      50.360  11.214  11.125  0.00  0.00    +0.000 OA
ENDBRANCH  12  22
ENDBRANCH   8  19
ENDBRANCH   7  10
ENDBRANCH   1   7
BRANCH   4  23
ATOM     23  C   UNL     1      44.224   4.850  11.476  0.00  0.00    +0.000 C 
BRANCH  23  24
ATOM     24  C   UNL     1      44.345   4.424  10.007  0.00  0.00    +0.000 C 
BRANCH  24  25
ATOM     25  N   UNL     1      44.650   2.998   9.858  0.00  0.00    +0.000 N 
ATOM     26  H   UNL     1      43.827   2.404   9.903  0.00  0.00    +0.000 HD
BRANCH  25  27
ATOM     27  C   UNL     1      45.491   2.662   8.778  0.00  0.00    +0.000 A 
ATOM     28  C   UNL     1      45.945   1.352   8.551  0.00  0.00    +0.000 A 
ATOM     29  C   UNL     1      46.696   1.018   7.419  0.00  0.00    +0.000 A 
ATOM     30  C   UNL     1      46.997   1.996   6.479  0.00  0.00    +0.000 A 
ATOM     31  C   UNL     1      46.547   3.292   6.686  0.00  0.00    +0.000 A 
ATOM     32  F   UNL     1      46.835   4.237   5.781  0.00  0.00    +0.000 F 
ATOM     33  C   UNL     1      45.793   3.629   7.812  0.00  0.00    +0.000 A 
ENDBRANCH  25  27
ENDBRANCH  24  25
ENDBRANCH  23  24
ENDBRANCH   4  23
TORSDOF 8
ENDMDL
