MODEL 1
REMARK VINA RESULT:    -8.744      0.000      0.000
REMARK INTER + INTRA:         -12.093
REMARK INTER:                 -11.299
REMARK INTRA:                  -0.793
REMARK UNBOUND:                -0.793
REMARK  Name = 
REMARK  5 active torsions:
REMARK  status: ('A' for Active; 'I' for Inactive)
REMARK    1  A    between atoms: C_2  and  C_4
REMARK    2  A    between atoms: C_7  and  O_8
REMARK    3  A    between atoms: O_8  and  C_9
REMARK    4  A    between atoms: C_9  and  C_10
REMARK    5  A    between atoms: C_14  and  C_15
REMARK                            x       y       z     vdW  Elec       q    Type
REMARK                         _______ _______ _______ _____ _____    ______ ____
ROOT
ATOM      1  C   UNL     1      43.572   4.296  11.159  0.00  0.00    +0.000 C 
ENDROOT
BRANCH   1   2
ATOM      2  C   UNL     1      44.779   4.757  11.946  0.00  0.00    +0.000 A 
ATOM      3  C   UNL     1      45.423   3.851  12.800  0.00  0.00    +0.000 A 
ATOM      4  C   UNL     1      46.591   4.214  13.460  0.00  0.00    +0.000 A 
ATOM      5  C   UNL     1      47.138   5.484  13.263  0.00  0.00    +0.000 A 
ATOM      6  C   UNL     1      46.538   6.413  12.396  0.00  0.00    +0.000 A 
ATOM      7  C   UNL     1      45.347   6.026  11.750  0.00  0.00    +0.000 A 
BRANCH   6   8
ATOM      8  C   UNL     1      47.150   7.731  12.138  0.00  0.00    +0.000 A 
ATOM      9  C   UNL     1      46.429   8.924  12.285  0.00  0.00    +0.000 A 
ATOM     10  N   UNL     1      46.924  10.172  12.082  0.00  0.00    +0.000 NA
ATOM     11  C   UNL     1      48.221  10.247  11.718  0.00  0.00    +0.000 A 
ATOM     12  C   UNL     1      49.027   9.138  11.548  0.00  0.00    +0.000 A 
ATOM     13  F   UNL     1      50.311   9.276  11.194  0.00  0.00    +0.000 F 
ATOM     14  C   UNL     1      48.491   7.873  11.755  0.00  0.00    +0.000 A 
ENDBRANCH   6   8
ENDBRANCH   1   2
BRANCH   1  15
ATOM     15  O   UNL     1      43.637   4.704   9.787  0.00  0.00    +0.000 OA
BRANCH  15  19
ATOM     16  C   UNL     1      46.391   2.434   7.723  0.00  0.00    +0.000 A 
ATOM     17  C   UNL     1      45.515   1.812   8.617  0.00  0.00    +0.000 A 
ATOM     18  C   UNL     1      44.585   2.589   9.313  0.00  0.00    +0.000 A 
ATOM     19  C   UNL     1      44.565   3.956   9.084  0.00  0.00    +0.000 A 
ATOM     20  N   UNL     1      45.401   4.582   8.228  0.00  0.00    +0.000 NA
ATOM     21  C   UNL     1      46.301   3.811   7.574  0.00  0.00    +0.000 A 
BRANCH  16  23
ATOM     22  N   UNL     1      48.497   2.438   6.509  0.00  0.00    +0.000 N 
ATOM     23  C   UNL     1      47.423   1.717   6.948  0.00  0.00    +0.000 C 
ATOM     24  O   UNL     1      47.341   0.515   6.738  0.00  0.00    +0.000 OA
ATOM     25  H   UNL     1      49.245   1.904   6.082  0.00  0.00    +0.000 HD
ATOM     26  H   UNL     1      48.729   3.350   6.875  0.00  0.00    +0.000 HD
ENDBRANCH  16  23
ENDBRANCH  15  19
ENDBRANCH   1  15
TORSDOF 5
ENDMDL
MODEL 2
REMARK VINA RESULT:    -8.716      2.762      3.819
REMARK INTER + INTRA:         -12.057
REMARK INTER:                 -11.339
REMARK INTRA:                  -0.717
REMARK UNBOUND:                -0.793
REMARK  Name = 
REMARK  5 active torsions:
REMARK  status: ('A' for Active; 'I' for Inactive)
REMARK    1  A    between atoms: C_2  and  C_4
REMARK    2  A    between atoms: C_7  and  O_8
REMARK    3  A    between atoms: O_8  and  C_9
REMARK    4  A    between atoms: C_9  and  C_10
REMARK    5  A    between atoms: C_14  and  C_15
REMARK                            x       y       z     vdW  Elec       q    Type
REMARK                         _______ _______ _______ _____ _____    ______ ____
ROOT
ATOM      1  C   UNL     1      43.915   4.572  11.259  0.00  0.00    +0.000 C 
ENDROOT
BRANCH   1   2
ATOM      2  C   UNL     1      45.106   5.329  11.805  0.00  0.00    +0.000 A 
ATOM      3  C   UNL     1      45.471   6.545  11.212  0.00  0.00    +0.000 A 
ATOM      4  C   UNL     1      46.498   7.312  11.752  0.00  0.00    +0.000 A 
ATOM      5  C   UNL     1      47.164   6.877  12.901  0.00  0.00    +0.000 A 
ATOM      6  C   UNL     1      46.811   5.676  13.541  0.00  0.00    +0.000 A 
ATOM      7  C   UNL     1      45.778   4.911  12.965  0.00  0.00    +0.000 A 
BRANCH   6   8
ATOM      8  C   UNL     1      47.470   5.249  14.789  0.00  0.00    +0.000 A 
ATOM      9  C   UNL     1      48.476   6.015  15.395  0.00  0.00    +0.000 A 
ATOM     10  N   UNL     1      49.119   5.698  16.549  0.00  0.00    +0.000 NA
ATOM     11  C   UNL     1      48.735   4.552  17.149  0.00  0.00    +0.000 A 
ATOM     12  C   UNL     1      47.751   3.724  16.646  0.00  0.00    +0.000 A 
ATOM     13  F   UNL     1      47.407   2.603  17.292  0.00  0.00    +0.000 F 
ATOM     14  C   UNL     1      47.117   4.068  15.459  0.00  0.00    +0.000 A 
ENDBRANCH   6   8
ENDBRANCH   1   2
BRANCH   1  15
ATOM     15  O   UNL     1      43.763   4.756   9.847  0.00  0.00    +0.000 OA
BRANCH  15  19
ATOM     16  C   UNL     1      46.331   2.295   7.764  0.00  0.00    +0.000 A 
ATOM     17  C   UNL     1      45.463   1.743   8.710  0.00  0.00    +0.000 A 
ATOM     18  C   UNL     1      44.595   2.585   9.412  0.00  0.00    +0.000 A 
ATOM     19  C   UNL     1      44.629   3.944   9.137  0.00  0.00    +0.000 A 
ATOM     20  N   UNL     1      45.459   4.502   8.230  0.00  0.00    +0.000 NA
ATOM     21  C   UNL     1      46.299   3.668   7.571  0.00  0.00    +0.000 A 
BRANCH  16  23
ATOM     22  N   UNL     1      48.402   2.155   6.499  0.00  0.00    +0.000 N 
ATOM     23  C   UNL     1      47.300   1.506   6.977  0.00  0.00    +0.000 C 
ATOM     24  O   UNL     1      47.144   0.307   6.793  0.00  0.00    +0.000 OA
ATOM     25  H   UNL     1      49.107   1.571   6.063  0.00  0.00    +0.000 HD
ATOM     26  H   UNL     1      48.696   3.058   6.842  0.00  0.00    +0.000 HD
ENDBRANCH  16  23
ENDBRANCH  15  19
ENDBRANCH   1  15
TORSDOF 5
ENDMDL
MODEL 3
REMARK VINA RESULT:    -8.242      2.415      2.949
REMARK INTER + INTRA:         -11.444
REMARK INTER:                 -10.543
REMARK INTRA:                  -0.901
REMARK UNBOUND:                -0.793
REMARK  Name = 
REMARK  5 active torsions:
REMARK  status: ('A' for Active; 'I' for Inactive)
REMARK    1  A    between atoms: C_2  and  C_4
REMARK    2  A    between atoms: C_7  and  O_8
REMARK    3  A    between atoms: O_8  and  C_9
REMARK    4  A    between atoms: C_9  and  C_10
REMARK    5  A    between atoms: C_14  and  C_15
REMARK                            x       y       z     vdW  Elec       q    Type
REMARK                         _______ _______ _______ _____ _____    ______ ____
ROOT
ATOM      1  C   UNL     1      43.915   3.747  11.587  0.00  0.00    +0.000 C 
ENDROOT
BRANCH   1   2
ATOM      2  C   UNL     1      44.708   4.965  12.004  0.00  0.00    +0.000 A 
ATOM      3  C   UNL     1      45.971   4.791  12.587  0.00  0.00    +0.000 A 
ATOM      4  C   UNL     1      46.765   5.891  12.891  0.00  0.00    +0.000 A 
ATOM      5  C   UNL     1      46.311   7.180  12.602  0.00  0.00    +0.000 A 
ATOM      6  C   UNL     1      45.062   7.397  11.994  0.00  0.00    +0.000 A 
ATOM      7  C   UNL     1      44.271   6.267  11.711  0.00  0.00    +0.000 A 
BRANCH   6   8
ATOM      8  C   UNL     1      44.610   8.754  11.631  0.00  0.00    +0.000 A 
ATOM      9  C   UNL     1      45.197   9.902  12.181  0.00  0.00    +0.000 A 
ATOM     10  N   UNL     1      44.849  11.182  11.887  0.00  0.00    +0.000 NA
ATOM     11  C   UNL     1      43.860  11.336  10.982  0.00  0.00    +0.000 A 
ATOM     12  C   UNL     1      43.215  10.278  10.373  0.00  0.00    +0.000 A 
ATOM     13  F   UNL     1      42.246  10.495   9.475  0.00  0.00    +0.000 F 
ATOM     14  C   UNL     1      43.587   8.980  10.699  0.00  0.00    +0.000 A 
ENDBRANCH   6   8
ENDBRANCH   1   2
BRANCH   1  15
ATOM     15  O   UNL     1      43.504   3.818  10.216  0.00  0.00    +0.000 OA
BRANCH  15  19
ATOM     16  C   UNL     1      46.509   2.629   7.658  0.00  0.00    +0.000 A 
ATOM     17  C   UNL     1      46.144   3.977   7.714  0.00  0.00    +0.000 A 
ATOM     18  C   UNL     1      45.124   4.371   8.584  0.00  0.00    +0.000 A 
ATOM     19  C   UNL     1      44.513   3.403   9.366  0.00  0.00    +0.000 A 
ATOM     20  N   UNL     1      44.845   2.095   9.329  0.00  0.00    +0.000 NA
ATOM     21  C   UNL     1      45.828   1.734   8.471  0.00  0.00    +0.000 A 
BRANCH  16  23
ATOM     22  N   UNL     1      47.986   2.898   5.747  0.00  0.00    +0.000 N 
ATOM     23  C   UNL     1      47.560   2.097   6.767  0.00  0.00    +0.000 C 
ATOM     24  O   UNL     1      48.058   0.996   6.956  0.00  0.00    +0.000 OA
ATOM     25  H   UNL     1      48.785   2.560   5.221  0.00  0.00    +0.000 HD
ATOM     26  H   UNL     1      47.797   3.890   5.714  0.00  0.00    +0.000 HD
ENDBRANCH  16  23
ENDBRANCH  15  19
ENDBRANCH   1  15
TORSDOF 5
ENDMDL
MODEL 4
REMARK VINA RESULT:    -7.992      1.551      2.081
REMARK INTER + INTRA:         -11.121
REMARK INTER:                 -10.414
REMARK INTRA:                  -0.707
REMARK UNBOUND:                -0.793
REMARK  Name = 
REMARK  5 active torsions:
REMARK  status: ('A' for Active; 'I' for Inactive)
REMARK    1  A    between atoms: C_2  and  C_4
REMARK    2  A    between atoms: C_7  and  O_8
REMARK    3  A    between atoms: O_8  and  C_9
REMARK    4  A    between atoms: C_9  and  C_10
REMARK    5  A    between atoms: C_14  and  C_15
REMARK                            x       y       z     vdW  Elec       q    Type
REMARK                         _______ _______ _______ _____ _____    ______ ____
ROOT
ATOM      1  C   UNL     1      44.388   3.189  11.385  0.00  0.00    +0.000 C 
ENDROOT
BRANCH   1   2
ATOM      2  C   UNL     1      44.463   4.700  11.392  0.00  0.00    +0.000 A 
ATOM      3  C   UNL     1      43.292   5.441  11.181  0.00  0.00    +0.000 A 
ATOM      4  C   UNL     1      43.310   6.828  11.280  0.00  0.00    +0.000 A 
ATOM      5  C   UNL     1      44.496   7.490  11.606  0.00  0.00    +0.000 A 
ATOM      6  C   UNL     1      45.685   6.782  11.850  0.00  0.00    +0.000 A 
ATOM      7  C   UNL     1      45.645   5.379  11.729  0.00  0.00    +0.000 A 
BRANCH   6   8
ATOM      8  C   UNL     1      46.922   7.476  12.257  0.00  0.00    +0.000 A 
ATOM      9  C   UNL     1      46.941   8.398  13.312  0.00  0.00    +0.000 A 
ATOM     10  N   UNL     1      48.038   9.065  13.755  0.00  0.00    +0.000 NA
ATOM     11  C   UNL     1      49.196   8.795  13.118  0.00  0.00    +0.000 A 
ATOM     12  C   UNL     1      49.296   7.901  12.070  0.00  0.00    +0.000 A 
ATOM     13  F   UNL     1      50.476   7.668  11.483  0.00  0.00    +0.000 F 
ATOM     14  C   UNL     1      48.156   7.240  11.633  0.00  0.00    +0.000 A 
ENDBRANCH   6   8
ENDBRANCH   1   2
BRANCH   1  15
ATOM     15  O   UNL     1      43.809   2.686  10.175  0.00  0.00    +0.000 OA
BRANCH  15  19
ATOM     16  C   UNL     1      46.592   2.477   7.141  0.00  0.00    +0.000 A 
ATOM     17  C   UNL     1      45.816   3.631   7.288  0.00  0.00    +0.000 A 
ATOM     18  C   UNL     1      44.875   3.693   8.319  0.00  0.00    +0.000 A 
ATOM     19  C   UNL     1      44.750   2.601   9.164  0.00  0.00    +0.000 A 
ATOM     20  N   UNL     1      45.485   1.475   9.043  0.00  0.00    +0.000 NA
ATOM     21  C   UNL     1      46.382   1.433   8.030  0.00  0.00    +0.000 A 
BRANCH  16  23
ATOM     22  N   UNL     1      47.628   3.211   5.068  0.00  0.00    +0.000 N 
ATOM     23  C   UNL     1      47.603   2.294   6.080  0.00  0.00    +0.000 C 
ATOM     24  O   UNL     1      48.413   1.380   6.125  0.00  0.00    +0.000 OA
ATOM     25  H   UNL     1      48.401   3.131   4.417  0.00  0.00    +0.000 HD
ATOM     26  H   UNL     1      47.164   4.106   5.130  0.00  0.00    +0.000 HD
ENDBRANCH  16  23
ENDBRANCH  15  19
ENDBRANCH   1  15
TORSDOF 5
ENDMDL
MODEL 5
REMARK VINA RESULT:    -7.935      1.970      2.549
REMARK INTER + INTRA:         -11.048
REMARK INTER:                 -10.338
REMARK INTRA:                  -0.709
REMARK UNBOUND:                -0.793
REMARK  Name = 
REMARK  5 active torsions:
REMARK  status: ('A' for Active; 'I' for Inactive)
REMARK    1  A    between atoms: C_2  and  C_4
REMARK    2  A    between atoms: C_7  and  O_8
REMARK    3  A    between atoms: O_8  and  C_9
REMARK    4  A    between atoms: C_9  and  C_10
REMARK    5  A    between atoms: C_14  and  C_15
REMARK                            x       y       z     vdW  Elec       q    Type
REMARK                         _______ _______ _______ _____ _____    ______ ____
ROOT
ATOM      1  C   UNL     1      44.536   4.380  11.497  0.00  0.00    +0.000 C 
ENDROOT
BRANCH   1   2
ATOM      2  C   UNL     1      45.192   5.709  11.797  0.00  0.00    +0.000 A 
ATOM      3  C   UNL     1      44.534   6.892  11.433  0.00  0.00    +0.000 A 
ATOM      4  C   UNL     1      45.063   8.129  11.783  0.00  0.00    +0.000 A 
ATOM      5  C   UNL     1      46.252   8.198  12.514  0.00  0.00    +0.000 A 
ATOM      6  C   UNL     1      46.930   7.035  12.920  0.00  0.00    +0.000 A 
ATOM      7  C   UNL     1      46.380   5.795  12.540  0.00  0.00    +0.000 A 
BRANCH   6   8
ATOM      8  C   UNL     1      48.150   7.107  13.746  0.00  0.00    +0.000 A 
ATOM      9  C   UNL     1      48.303   6.339  14.909  0.00  0.00    +0.000 A 
ATOM     10  N   UNL     1      49.398   6.337  15.713  0.00  0.00    +0.000 NA
ATOM     11  C   UNL     1      50.413   7.142  15.337  0.00  0.00    +0.000 A 
ATOM     12  C   UNL     1      50.374   7.938  14.209  0.00  0.00    +0.000 A 
ATOM     13  F   UNL     1      51.418   8.710  13.882  0.00  0.00    +0.000 F 
ATOM     14  C   UNL     1      49.238   7.925  13.410  0.00  0.00    +0.000 A 
ENDBRANCH   6   8
ENDBRANCH   1   2
BRANCH   1  15
ATOM     15  O   UNL     1      43.978   4.341  10.178  0.00  0.00    +0.000 OA
BRANCH  15  19
ATOM     16  C   UNL     1      46.639   2.695   7.495  0.00  0.00    +0.000 A 
ATOM     17  C   UNL     1      45.960   1.864   8.390  0.00  0.00    +0.000 A 
ATOM     18  C   UNL     1      45.059   2.431   9.296  0.00  0.00    +0.000 A 
ATOM     19  C   UNL     1      44.872   3.804   9.269  0.00  0.00    +0.000 A 
ATOM     20  N   UNL     1      45.517   4.628   8.415  0.00  0.00    +0.000 NA
ATOM     21  C   UNL     1      46.393   4.059   7.554  0.00  0.00    +0.000 A 
BRANCH  16  23
ATOM     22  N   UNL     1      47.820   2.968   5.388  0.00  0.00    +0.000 N 
ATOM     23  C   UNL     1      47.623   2.209   6.506  0.00  0.00    +0.000 C 
ATOM     24  O   UNL     1      48.267   1.187   6.698  0.00  0.00    +0.000 OA
ATOM     25  H   UNL     1      48.580   2.677   4.783  0.00  0.00    +0.000 HD
ATOM     26  H   UNL     1      47.513   3.927   5.317  0.00  0.00    +0.000 HD
ENDBRANCH  16  23
ENDBRANCH  15  19
ENDBRANCH   1  15
TORSDOF 5
ENDMDL
MODEL 6
REMARK VINA RESULT:    -7.510      4.975      8.248
REMARK INTER + INTRA:         -10.498
REMARK INTER:                  -9.964
REMARK INTRA:                  -0.535
REMARK UNBOUND:                -0.793
REMARK  Name = 
REMARK  5 active torsions:
REMARK  status: ('A' for Active; 'I' for Inactive)
REMARK    1  A    between atoms: C_2  and  C_4
REMARK    2  A    between atoms: C_7  and  O_8
REMARK    3  A    between atoms: O_8  and  C_9
REMARK    4  A    between atoms: C_9  and  C_10
REMARK    5  A    between atoms: C_14  and  C_15
REMARK                            x       y       z     vdW  Elec       q    Type
REMARK                         _______ _______ _______ _____ _____    ______ ____
ROOT
ATOM      1  C   UNL     1      45.927   5.149  14.029  0.00  0.00    +0.000 C 
ENDROOT
BRANCH   1   2
ATOM      2  C   UNL     1      45.058   4.898  12.817  0.00  0.00    +0.000 A 
ATOM      3  C   UNL     1      43.750   5.402  12.799  0.00  0.00    +0.000 A 
ATOM      4  C   UNL     1      42.961   5.274  11.661  0.00  0.00    +0.000 A 
ATOM      5  C   UNL     1      43.476   4.651  10.522  0.00  0.00    +0.000 A 
ATOM      6  C   UNL     1      44.791   4.154  10.490  0.00  0.00    +0.000 A 
ATOM      7  C   UNL     1      45.564   4.284  11.660  0.00  0.00    +0.000 A 
BRANCH   6   8
ATOM      8  C   UNL     1      45.355   3.555   9.266  0.00  0.00    +0.000 A 
ATOM      9  C   UNL     1      45.764   4.339   8.178  0.00  0.00    +0.000 A 
ATOM     10  N   UNL     1      46.306   3.865   7.026  0.00  0.00    +0.000 NA
ATOM     11  C   UNL     1      46.462   2.527   6.948  0.00  0.00    +0.000 A 
ATOM     12  C   UNL     1      46.100   1.659   7.960  0.00  0.00    +0.000 A 
ATOM     13  F   UNL     1      46.288   0.340   7.828  0.00  0.00    +0.000 F 
ATOM     14  C   UNL     1      45.540   2.172   9.124  0.00  0.00    +0.000 A 
ENDBRANCH   6   8
ENDBRANCH   1   2
BRANCH   1  15
ATOM     15  O   UNL     1      46.533   3.944  14.514  0.00  0.00    +0.000 OA
BRANCH  15  19
ATOM     16  C   UNL     1      48.348   4.568  18.162  0.00  0.00    +0.000 A 
ATOM     17  C   UNL     1      48.653   5.408  17.087  0.00  0.00    +0.000 A 
ATOM     18  C   UNL     1      48.033   5.189  15.854  0.00  0.00    +0.000 A 
ATOM     19  C   UNL     1      47.131   4.142  15.746  0.00  0.00    +0.000 A 
ATOM     20  N   UNL     1      46.821   3.315  16.767  0.00  0.00    +0.000 NA
ATOM     21  C   UNL     1      47.442   3.539  17.949  0.00  0.00    +0.000 A 
BRANCH  16  23
ATOM     22  N   UNL     1      48.586   3.780  20.449  0.00  0.00    +0.000 N 
ATOM     23  C   UNL     1      48.953   4.694  19.503  0.00  0.00    +0.000 C 
ATOM     24  O   UNL     1      49.781   5.560  19.749  0.00  0.00    +0.000 OA
ATOM     25  H   UNL     1      49.099   3.817  21.323  0.00  0.00    +0.000 HD
ATOM     26  H   UNL     1      48.121   2.914  20.221  0.00  0.00    +0.000 HD
ENDBRANCH  16  23
ENDBRANCH  15  19
ENDBRANCH   1  15
TORSDOF 5
ENDMDL
MODEL 7
REMARK VINA RESULT:    -7.446      3.188      6.849
REMARK INTER + INTRA:         -10.415
REMARK INTER:                  -9.616
REMARK INTRA:                  -0.799
REMARK UNBOUND:                -0.793
REMARK  Name = 
REMARK  5 active torsions:
REMARK  status: ('A' for Active; 'I' for Inactive)
REMARK    1  A    between atoms: C_2  and  C_4
REMARK    2  A    between atoms: C_7  and  O_8
REMARK    3  A    between atoms: O_8  and  C_9
REMARK    4  A    between atoms: C_9  and  C_10
REMARK    5  A    between atoms: C_14  and  C_15
REMARK                            x       y       z     vdW  Elec       q    Type
REMARK                         _______ _______ _______ _____ _____    ______ ____
ROOT
ATOM      1  C   UNL     1      44.238   6.479  11.394  0.00  0.00    +0.000 C 
ENDROOT
BRANCH   1   2
ATOM      2  C   UNL     1      44.279   5.009  11.043  0.00  0.00    +0.000 A 
ATOM      3  C   UNL     1      43.446   4.118  11.735  0.00  0.00    +0.000 A 
ATOM      4  C   UNL     1      43.389   2.778  11.368  0.00  0.00    +0.000 A 
ATOM      5  C   UNL     1      44.152   2.315  10.295  0.00  0.00    +0.000 A 
ATOM      6  C   UNL     1      44.981   3.180   9.558  0.00  0.00    +0.000 A 
ATOM      7  C   UNL     1      45.033   4.529   9.959  0.00  0.00    +0.000 A 
BRANCH   6   8
ATOM      8  C   UNL     1      45.738   2.704   8.385  0.00  0.00    +0.000 A 
ATOM      9  C   UNL     1      46.231   1.394   8.303  0.00  0.00    +0.000 A 
ATOM     10  N   UNL     1      46.922   0.878   7.254  0.00  0.00    +0.000 NA
ATOM     11  C   UNL     1      47.131   1.709   6.212  0.00  0.00    +0.000 A 
ATOM     12  C   UNL     1      46.686   3.016   6.181  0.00  0.00    +0.000 A 
ATOM     13  F   UNL     1      46.917   3.791   5.114  0.00  0.00    +0.000 F 
ATOM     14  C   UNL     1      45.989   3.520   7.273  0.00  0.00    +0.000 A 
ENDBRANCH   6   8
ENDBRANCH   1   2
BRANCH   1  15
ATOM     15  O   UNL     1      44.756   6.732  12.706  0.00  0.00    +0.000 OA
BRANCH  15  19
ATOM     16  C   UNL     1      48.783   7.598  12.561  0.00  0.00    +0.000 A 
ATOM     17  C   UNL     1      47.862   8.510  12.039  0.00  0.00    +0.000 A 
ATOM     18  C   UNL     1      46.499   8.209  12.092  0.00  0.00    +0.000 A 
ATOM     19  C   UNL     1      46.111   7.009  12.669  0.00  0.00    +0.000 A 
ATOM     20  N   UNL     1      46.980   6.110  13.178  0.00  0.00    +0.000 NA
ATOM     21  C   UNL     1      48.296   6.418  13.105  0.00  0.00    +0.000 A 
BRANCH  16  23
ATOM     22  N   UNL     1      50.917   7.465  11.405  0.00  0.00    +0.000 N 
ATOM     23  C   UNL     1      50.246   7.803  12.545  0.00  0.00    +0.000 C 
ATOM     24  O   UNL     1      50.830   8.293  13.501  0.00  0.00    +0.000 OA
ATOM     25  H   UNL     1      51.898   7.722  11.376  0.00  0.00    +0.000 HD
ATOM     26  H   UNL     1      50.452   7.309  10.522  0.00  0.00    +0.000 HD
ENDBRANCH  16  23
ENDBRANCH  15  19
ENDBRANCH   1  15
TORSDOF 5
ENDMDL
MODEL 8
REMARK VINA RESULT:    -6.969      5.708      8.084
REMARK INTER + INTRA:          -9.799
REMARK INTER:                  -9.107
REMARK INTRA:                  -0.692
REMARK UNBOUND:                -0.793
REMARK  Name = 
REMARK  5 active torsions:
REMARK  status: ('A' for Active; 'I' for Inactive)
REMARK    1  A    between atoms: C_2  and  C_4
REMARK    2  A    between atoms: C_7  and  O_8
REMARK    3  A    between atoms: O_8  and  C_9
REMARK    4  A    between atoms: C_9  and  C_10
REMARK    5  A    between atoms: C_14  and  C_15
REMARK                            x       y       z     vdW  Elec       q    Type
REMARK                         _______ _______ _______ _____ _____    ______ ____
ROOT
ATOM      1  C   UNL     1      48.782   6.334  15.652  0.00  0.00    +0.000 C 
ENDROOT
BRANCH   1   2
ATOM      2  C   UNL     1      48.066   6.492  14.329  0.00  0.00    +0.000 A 
ATOM      3  C   UNL     1      48.524   7.450  13.414  0.00  0.00    +0.000 A 
ATOM      4  C   UNL     1      47.949   7.551  12.152  0.00  0.00    +0.000 A 
ATOM      5  C   UNL     1      46.917   6.684  11.784  0.00  0.00    +0.000 A 
ATOM      6  C   UNL     1      46.445   5.693  12.662  0.00  0.00    +0.000 A 
ATOM      7  C   UNL     1      47.035   5.621  13.940  0.00  0.00    +0.000 A 
BRANCH   6   8
ATOM      8  C   UNL     1      45.400   4.737  12.251  0.00  0.00    +0.000 A 
ATOM      9  C   UNL     1      44.483   4.203  13.166  0.00  0.00    +0.000 A 
ATOM     10  N   UNL     1      43.486   3.332  12.864  0.00  0.00    +0.000 NA
ATOM     11  C   UNL     1      43.383   2.970  11.568  0.00  0.00    +0.000 A 
ATOM     12  C   UNL     1      44.228   3.437  10.580  0.00  0.00    +0.000 A 
ATOM     13  F   UNL     1      44.071   3.049   9.309  0.00  0.00    +0.000 F 
ATOM     14  C   UNL     1      45.245   4.321  10.920  0.00  0.00    +0.000 A 
ENDBRANCH   6   8
ENDBRANCH   1   2
BRANCH   1  15
ATOM     15  O   UNL     1      48.220   5.283  16.445  0.00  0.00    +0.000 OA
BRANCH  15  19
ATOM     16  C   UNL     1      51.093   2.497  17.429  0.00  0.00    +0.000 A 
ATOM     17  C   UNL     1      51.349   3.854  17.640  0.00  0.00    +0.000 A 
ATOM     18  C   UNL     1      50.369   4.792  17.304  0.00  0.00    +0.000 A 
ATOM     19  C   UNL     1      49.172   4.335  16.773  0.00  0.00    +0.000 A 
ATOM     20  N   UNL     1      48.902   3.030  16.558  0.00  0.00    +0.000 NA
ATOM     21  C   UNL     1      49.870   2.140  16.881  0.00  0.00    +0.000 A 
BRANCH  16  23
ATOM     22  N   UNL     1      51.556   0.213  18.124  0.00  0.00    +0.000 N 
ATOM     23  C   UNL     1      52.059   1.421  17.731  0.00  0.00    +0.000 C 
ATOM     24  O   UNL     1      53.263   1.590  17.599  0.00  0.00    +0.000 OA
ATOM     25  H   UNL     1      52.229  -0.540  18.213  0.00  0.00    +0.000 HD
ATOM     26  H   UNL     1      50.587  -0.043  17.995  0.00  0.00    +0.000 HD
ENDBRANCH  16  23
ENDBRANCH  15  19
ENDBRANCH   1  15
TORSDOF 5
ENDMDL
MODEL 9
REMARK VINA RESULT:    -6.919      4.864      8.292
REMARK INTER + INTRA:          -9.735
REMARK INTER:                  -9.110
REMARK INTRA:                  -0.625
REMARK UNBOUND:                -0.793
REMARK  Name = 
REMARK  5 active torsions:
REMARK  status: ('A' for Active; 'I' for Inactive)
REMARK    1  A    between atoms: C_2  and  C_4
REMARK    2  A    between atoms: C_7  and  O_8
REMARK    3  A    between atoms: O_8  and  C_9
REMARK    4  A    between atoms: C_9  and  C_10
REMARK    5  A    between atoms: C_14  and  C_15
REMARK                            x       y       z     vdW  Elec       q    Type
REMARK                         _______ _______ _______ _____ _____    ______ ____
ROOT
ATOM      1  C   UNL     1      47.928   6.914  13.998  0.00  0.00    +0.000 C 
ENDROOT
BRANCH   1   2
ATOM      2  C   UNL     1      46.752   6.946  13.047  0.00  0.00    +0.000 A 
ATOM      3  C   UNL     1      46.026   8.135  12.899  0.00  0.00    +0.000 A 
ATOM      4  C   UNL     1      45.003   8.224  11.961  0.00  0.00    +0.000 A 
ATOM      5  C   UNL     1      44.703   7.127  11.149  0.00  0.00    +0.000 A 
ATOM      6  C   UNL     1      45.424   5.924  11.249  0.00  0.00    +0.000 A 
ATOM      7  C   UNL     1      46.445   5.855  12.217  0.00  0.00    +0.000 A 
BRANCH   6   8
ATOM      8  C   UNL     1      45.150   4.788  10.349  0.00  0.00    +0.000 A 
ATOM      9  C   UNL     1      44.421   3.668  10.771  0.00  0.00    +0.000 A 
ATOM     10  N   UNL     1      44.115   2.592  10.000  0.00  0.00    +0.000 NA
ATOM     11  C   UNL     1      44.552   2.630   8.724  0.00  0.00    +0.000 A 
ATOM     12  C   UNL     1      45.274   3.684   8.199  0.00  0.00    +0.000 A 
ATOM     13  F   UNL     1      45.672   3.669   6.921  0.00  0.00    +0.000 F 
ATOM     14  C   UNL     1      45.579   4.768   9.013  0.00  0.00    +0.000 A 
ENDBRANCH   6   8
ENDBRANCH   1   2
BRANCH   1  15
ATOM     15  O   UNL     1      48.251   5.580  14.409  0.00  0.00    +0.000 OA
BRANCH  15  19
ATOM     16  C   UNL     1      48.200   5.195  18.513  0.00  0.00    +0.000 A 
ATOM     17  C   UNL     1      47.510   4.270  17.725  0.00  0.00    +0.000 A 
ATOM     18  C   UNL     1      47.532   4.408  16.334  0.00  0.00    +0.000 A 
ATOM     19  C   UNL     1      48.247   5.464  15.788  0.00  0.00    +0.000 A 
ATOM     20  N   UNL     1      48.920   6.371  16.527  0.00  0.00    +0.000 NA
ATOM     21  C   UNL     1      48.874   6.225  17.872  0.00  0.00    +0.000 A 
BRANCH  16  23
ATOM     22  N   UNL     1      48.540   3.967  20.583  0.00  0.00    +0.000 N 
ATOM     23  C   UNL     1      48.232   5.157  19.989  0.00  0.00    +0.000 C 
ATOM     24  O   UNL     1      48.030   6.162  20.656  0.00  0.00    +0.000 OA
ATOM     25  H   UNL     1      48.669   3.993  21.588  0.00  0.00    +0.000 HD
ATOM     26  H   UNL     1      48.961   3.198  20.081  0.00  0.00    +0.000 HD
ENDBRANCH  16  23
ENDBRANCH  15  19
ENDBRANCH   1  15
TORSDOF 5
ENDMDL
