MODEL 1
REMARK VINA RESULT:    -8.397      0.000      0.000
REMARK INTER + INTRA:         -11.245
REMARK INTER:                 -10.606
REMARK INTRA:                  -0.639
REMARK UNBOUND:                -0.639
REMARK  Name = 
REMARK  6 active torsions:
REMARK  status: ('A' for Active; 'I' for Inactive)
REMARK    1  A    between atoms: C_1  and  C_2
REMARK    2  A    between atoms: C_2  and  C_3
REMARK    3  A    between atoms: C_2  and  C_15
REMARK    4  A    between atoms: C_3  and  N_4
REMARK    5  A    between atoms: C_8  and  C_9
REMARK    6  A    between atoms: C_12  and  N_13
REMARK                            x       y       z     vdW  Elec       q    Type
REMARK                         _______ _______ _______ _____ _____    ______ ____
ROOT
ATOM      1  N   UNL     1      43.715   4.915   9.607  0.00  0.00    +0.000 N 
ATOM      2  C   UNL     1      44.576   3.940   9.130  0.00  0.00    +0.000 A 
ATOM      3  N   UNL     1      44.480   2.680   9.570  0.00  0.00    +0.000 NA
ATOM      4  C   UNL     1      45.307   1.777   9.008  0.00  0.00    +0.000 A 
ATOM      5  C   UNL     1      46.228   2.074   8.028  0.00  0.00    +0.000 A 
ATOM      6  C   UNL     1      46.285   3.415   7.675  0.00  0.00    +0.000 A 
ATOM      7  N   UNL     1      45.466   4.341   8.216  0.00  0.00    +0.000 NA
ATOM      8  H   UNL     1      44.173   5.803   9.427  0.00  0.00    +0.000 HD
ENDROOT
BRANCH   5   9
ATOM      9  C   UNL     1      47.037   1.039   7.337  0.00  0.00    +0.000 C 
ATOM     10  N   UNL     1      46.802  -0.283   7.607  0.00  0.00    +0.000 N 
ATOM     11  O   UNL     1      47.872   1.330   6.486  0.00  0.00    +0.000 OA
ATOM     12  H   UNL     1      46.074  -0.657   8.194  0.00  0.00    +0.000 HD
ATOM     13  H   UNL     1      47.337  -0.949   7.061  0.00  0.00    +0.000 HD
ENDBRANCH   5   9
BRANCH   6  14
ATOM     14  N   UNL     1      47.273   3.928   6.838  0.00  0.00    +0.000 N 
ATOM     15  H   UNL     1      48.097   3.331   6.767  0.00  0.00    +0.000 HD
ATOM     16  H   UNL     1      46.884   4.248   5.959  0.00  0.00    +0.000 HD
ENDBRANCH   6  14
BRANCH   1  17
ATOM     17  C   UNL     1      43.238   4.722  10.971  0.00  0.00    +0.000 C 
BRANCH  17  19
ATOM     18  C   UNL     1      43.042   7.249  11.207  0.00  0.00    +0.000 C 
ATOM     19  C   UNL     1      43.547   5.952  11.857  0.00  0.00    +0.000 C 
BRANCH  19  20
ATOM     20  C   UNL     1      45.012   5.996  12.276  0.00  0.00    +0.000 A 
ATOM     21  C   UNL     1      45.515   5.206  13.329  0.00  0.00    +0.000 A 
ATOM     22  C   UNL     1      46.855   5.298  13.716  0.00  0.00    +0.000 A 
ATOM     23  C   UNL     1      47.701   6.182  13.061  0.00  0.00    +0.000 A 
ATOM     24  F   UNL     1      48.983   6.273  13.444  0.00  0.00    +0.000 F 
ATOM     25  C   UNL     1      47.223   6.969  12.023  0.00  0.00    +0.000 A 
ATOM     26  F   UNL     1      48.038   7.826  11.394  0.00  0.00    +0.000 F 
ATOM     27  C   UNL     1      45.890   6.882  11.628  0.00  0.00    +0.000 A 
ENDBRANCH  19  20
ENDBRANCH  17  19
ENDBRANCH   1  17
TORSDOF 5
ENDMDL
MODEL 2
REMARK VINA RESULT:    -8.380      1.180      2.392
REMARK INTER + INTRA:         -11.224
REMARK INTER:                 -10.401
REMARK INTRA:                  -0.824
REMARK UNBOUND:                -0.639
REMARK  Name = 
REMARK  6 active torsions:
REMARK  status: ('A' for Active; 'I' for Inactive)
REMARK    1  A    between atoms: C_1  and  C_2
REMARK    2  A    between atoms: C_2  and  C_3
REMARK    3  A    between atoms: C_2  and  C_15
REMARK    4  A    between atoms: C_3  and  N_4
REMARK    5  A    between atoms: C_8  and  C_9
REMARK    6  A    between atoms: C_12  and  N_13
REMARK                            x       y       z     vdW  Elec       q    Type
REMARK                         _______ _______ _______ _____ _____    ______ ____
ROOT
ATOM      1  N   UNL     1      44.440   2.744  10.634  0.00  0.00    +0.000 N 
ATOM      2  C   UNL     1      45.142   2.672   9.442  0.00  0.00    +0.000 A 
ATOM      3  N   UNL     1      45.338   3.772   8.707  0.00  0.00    +0.000 NA
ATOM      4  C   UNL     1      46.088   3.632   7.596  0.00  0.00    +0.000 A 
ATOM      5  C   UNL     1      46.649   2.445   7.184  0.00  0.00    +0.000 A 
ATOM      6  C   UNL     1      46.348   1.353   7.986  0.00  0.00    +0.000 A 
ATOM      7  N   UNL     1      45.605   1.462   9.108  0.00  0.00    +0.000 NA
ATOM      8  H   UNL     1      44.119   1.800  10.826  0.00  0.00    +0.000 HD
ENDROOT
BRANCH   5   9
ATOM      9  C   UNL     1      47.575   2.345   6.028  0.00  0.00    +0.000 C 
ATOM     10  N   UNL     1      47.453   3.235   4.995  0.00  0.00    +0.000 N 
ATOM     11  O   UNL     1      48.486   1.522   5.996  0.00  0.00    +0.000 OA
ATOM     12  H   UNL     1      46.827   4.024   4.952  0.00  0.00    +0.000 HD
ATOM     13  H   UNL     1      48.150   3.163   4.262  0.00  0.00    +0.000 HD
ENDBRANCH   5   9
BRANCH   6  14
ATOM     14  N   UNL     1      46.675   0.047   7.630  0.00  0.00    +0.000 N 
ATOM     15  H   UNL     1      47.677  -0.102   7.508  0.00  0.00    +0.000 HD
ATOM     16  H   UNL     1      46.197  -0.628   8.215  0.00  0.00    +0.000 HD
ENDBRANCH   6  14
BRANCH   1  17
ATOM     17  C   UNL     1      43.417   3.780  10.702  0.00  0.00    +0.000 C 
BRANCH  17  19
ATOM     18  C   UNL     1      42.366   5.604  12.132  0.00  0.00    +0.000 C 
ATOM     19  C   UNL     1      43.480   4.551  12.042  0.00  0.00    +0.000 C 
BRANCH  19  20
ATOM     20  C   UNL     1      44.877   5.097  12.316  0.00  0.00    +0.000 A 
ATOM     21  C   UNL     1      45.500   6.027  11.461  0.00  0.00    +0.000 A 
ATOM     22  C   UNL     1      46.798   6.479  11.718  0.00  0.00    +0.000 A 
ATOM     23  C   UNL     1      47.486   6.001  12.824  0.00  0.00    +0.000 A 
ATOM     24  F   UNL     1      48.734   6.431  13.059  0.00  0.00    +0.000 F 
ATOM     25  C   UNL     1      46.888   5.084  13.678  0.00  0.00    +0.000 A 
ATOM     26  F   UNL     1      47.555   4.619  14.742  0.00  0.00    +0.000 F 
ATOM     27  C   UNL     1      45.594   4.630  13.431  0.00  0.00    +0.000 A 
ENDBRANCH  19  20
ENDBRANCH  17  19
ENDBRANCH   1  17
TORSDOF 5
ENDMDL
MODEL 3
REMARK VINA RESULT:    -8.130      4.533      7.093
REMARK INTER + INTRA:         -10.907
REMARK INTER:                 -10.269
REMARK INTRA:                  -0.638
REMARK UNBOUND:                -0.639
REMARK  Name = 
REMARK  6 active torsions:
REMARK  status: ('A' for Active; 'I' for Inactive)
REMARK    1  A    between atoms: C_1  and  C_2
REMARK    2  A    between atoms: C_2  and  C_3
REMARK    3  A    between atoms: C_2  and  C_15
REMARK    4  A    between atoms: C_3  and  N_4
REMARK    5  A    between atoms: C_8  and  C_9
REMARK    6  A    between atoms: C_12  and  N_13
REMARK                            x       y       z     vdW  Elec       q    Type
REMARK                         _______ _______ _______ _____ _____    ______ ____
ROOT
ATOM      1  N   UNL     1      44.728   4.595  12.062  0.00  0.00    +0.000 N 
ATOM      2  C   UNL     1      45.773   5.022  12.864  0.00  0.00    +0.000 A 
ATOM      3  N   UNL     1      46.526   6.064  12.495  0.00  0.00    +0.000 NA
ATOM      4  C   UNL     1      47.479   6.461  13.362  0.00  0.00    +0.000 A 
ATOM      5  C   UNL     1      47.716   5.863  14.579  0.00  0.00    +0.000 A 
ATOM      6  C   UNL     1      46.916   4.762  14.849  0.00  0.00    +0.000 A 
ATOM      7  N   UNL     1      45.950   4.345  14.005  0.00  0.00    +0.000 NA
ATOM      8  H   UNL     1      44.540   3.635  12.336  0.00  0.00    +0.000 HD
ENDROOT
BRANCH   5   9
ATOM      9  C   UNL     1      48.685   6.399  15.568  0.00  0.00    +0.000 C 
ATOM     10  N   UNL     1      48.436   7.608  16.161  0.00  0.00    +0.000 N 
ATOM     11  O   UNL     1      49.677   5.763  15.914  0.00  0.00    +0.000 OA
ATOM     12  H   UNL     1      47.609   8.172  16.051  0.00  0.00    +0.000 HD
ATOM     13  H   UNL     1      49.096   7.896  16.875  0.00  0.00    +0.000 HD
ENDBRANCH   5   9
BRANCH   6  14
ATOM     14  N   UNL     1      47.133   3.929  15.944  0.00  0.00    +0.000 N 
ATOM     15  H   UNL     1      46.488   3.139  15.989  0.00  0.00    +0.000 HD
ATOM     16  H   UNL     1      48.115   3.701  16.048  0.00  0.00    +0.000 HD
ENDBRANCH   6  14
BRANCH   1  17
ATOM     17  C   UNL     1      44.901   4.815  10.632  0.00  0.00    +0.000 C 
BRANCH  17  19
ATOM     18  C   UNL     1      43.782   2.531  10.719  0.00  0.00    +0.000 C 
ATOM     19  C   UNL     1      44.344   3.631   9.806  0.00  0.00    +0.000 C 
BRANCH  19  20
ATOM     20  C   UNL     1      45.354   3.132   8.778  0.00  0.00    +0.000 A 
ATOM     21  C   UNL     1      45.959   3.993   7.842  0.00  0.00    +0.000 A 
ATOM     22  C   UNL     1      46.850   3.498   6.885  0.00  0.00    +0.000 A 
ATOM     23  C   UNL     1      47.141   2.141   6.852  0.00  0.00    +0.000 A 
ATOM     24  F   UNL     1      47.989   1.672   5.926  0.00  0.00    +0.000 F 
ATOM     25  C   UNL     1      46.554   1.278   7.767  0.00  0.00    +0.000 A 
ATOM     26  F   UNL     1      46.830  -0.032   7.732  0.00  0.00    +0.000 F 
ATOM     27  C   UNL     1      45.666   1.762   8.725  0.00  0.00    +0.000 A 
ENDBRANCH  19  20
ENDBRANCH  17  19
ENDBRANCH   1  17
TORSDOF 5
ENDMDL
MODEL 4
REMARK VINA RESULT:    -7.679      5.499      7.549
REMARK INTER + INTRA:         -10.339
REMARK INTER:                  -9.717
REMARK INTRA:                  -0.622
REMARK UNBOUND:                -0.639
REMARK  Name = 
REMARK  6 active torsions:
REMARK  status: ('A' for Active; 'I' for Inactive)
REMARK    1  A    between atoms: C_1  and  C_2
REMARK    2  A    between atoms: C_2  and  C_3
REMARK    3  A    between atoms: C_2  and  C_15
REMARK    4  A    between atoms: C_3  and  N_4
REMARK    5  A    between atoms: C_8  and  C_9
REMARK    6  A    between atoms: C_12  and  N_13
REMARK                            x       y       z     vdW  Elec       q    Type
REMARK                         _______ _______ _______ _____ _____    ______ ____
ROOT
ATOM      1  N   UNL     1      46.349   3.700  13.671  0.00  0.00    +0.000 N 
ATOM      2  C   UNL     1      47.110   3.768  14.826  0.00  0.00    +0.000 A 
ATOM      3  N   UNL     1      47.034   4.840  15.622  0.00  0.00    +0.000 NA
ATOM      4  C   UNL     1      47.754   4.801  16.761  0.00  0.00    +0.000 A 
ATOM      5  C   UNL     1      48.548   3.742  17.140  0.00  0.00    +0.000 A 
ATOM      6  C   UNL     1      48.599   2.700  16.224  0.00  0.00    +0.000 A 
ATOM      7  N   UNL     1      47.886   2.708  15.079  0.00  0.00    +0.000 NA
ATOM      8  H   UNL     1      46.806   3.016  13.075  0.00  0.00    +0.000 HD
ENDROOT
BRANCH   5   9
ATOM      9  C   UNL     1      49.228   3.671  18.457  0.00  0.00    +0.000 C 
ATOM     10  N   UNL     1      48.495   3.369  19.573  0.00  0.00    +0.000 N 
ATOM     11  O   UNL     1      50.442   3.820  18.569  0.00  0.00    +0.000 OA
ATOM     12  H   UNL     1      47.521   3.114  19.601  0.00  0.00    +0.000 HD
ATOM     13  H   UNL     1      49.019   3.270  20.436  0.00  0.00    +0.000 HD
ENDBRANCH   5   9
BRANCH   6  14
ATOM     14  N   UNL     1      49.485   1.633  16.352  0.00  0.00    +0.000 N 
ATOM     15  H   UNL     1      49.601   1.095  15.493  0.00  0.00    +0.000 HD
ATOM     16  H   UNL     1      50.342   1.915  16.814  0.00  0.00    +0.000 HD
ENDBRANCH   6  14
BRANCH   1  17
ATOM     17  C   UNL     1      46.047   4.978  13.038  0.00  0.00    +0.000 C 
BRANCH  17  19
ATOM     18  C   UNL     1      43.647   4.140  12.915  0.00  0.00    +0.000 C 
ATOM     19  C   UNL     1      44.764   4.894  12.178  0.00  0.00    +0.000 C 
BRANCH  19  20
ATOM     20  C   UNL     1      45.053   4.365  10.777  0.00  0.00    +0.000 A 
ATOM     21  C   UNL     1      45.588   5.182   9.763  0.00  0.00    +0.000 A 
ATOM     22  C   UNL     1      45.804   4.679   8.477  0.00  0.00    +0.000 A 
ATOM     23  C   UNL     1      45.483   3.359   8.192  0.00  0.00    +0.000 A 
ATOM     24  F   UNL     1      45.683   2.885   6.954  0.00  0.00    +0.000 F 
ATOM     25  C   UNL     1      44.954   2.539   9.179  0.00  0.00    +0.000 A 
ATOM     26  F   UNL     1      44.638   1.267   8.903  0.00  0.00    +0.000 F 
ATOM     27  C   UNL     1      44.737   3.032  10.464  0.00  0.00    +0.000 A 
ENDBRANCH  19  20
ENDBRANCH  17  19
ENDBRANCH   1  17
TORSDOF 5
ENDMDL
MODEL 5
REMARK VINA RESULT:    -7.216      4.554      7.005
REMARK INTER + INTRA:          -9.753
REMARK INTER:                  -9.044
REMARK INTRA:                  -0.709
REMARK UNBOUND:                -0.639
REMARK  Name = 
REMARK  6 active torsions:
REMARK  status: ('A' for Active; 'I' for Inactive)
REMARK    1  A    between atoms: C_1  and  C_2
REMARK    2  A    between atoms: C_2  and  C_3
REMARK    3  A    between atoms: C_2  and  C_15
REMARK    4  A    between atoms: C_3  and  N_4
REMARK    5  A    between atoms: C_8  and  C_9
REMARK    6  A    between atoms: C_12  and  N_13
REMARK                            x       y       z     vdW  Elec       q    Type
REMARK                         _______ _______ _______ _____ _____    ______ ____
ROOT
ATOM      1  N   UNL     1      45.748   5.256  11.596  0.00  0.00    +0.000 N 
ATOM      2  C   UNL     1      46.326   6.318  12.272  0.00  0.00    +0.000 A 
ATOM      3  N   UNL     1      45.597   7.395  12.587  0.00  0.00    +0.000 NA
ATOM      4  C   UNL     1      46.213   8.356  13.304  0.00  0.00    +0.000 A 
ATOM      5  C   UNL     1      47.524   8.292  13.719  0.00  0.00    +0.000 A 
ATOM      6  C   UNL     1      48.209   7.160  13.301  0.00  0.00    +0.000 A 
ATOM      7  N   UNL     1      47.618   6.178  12.588  0.00  0.00    +0.000 NA
ATOM      8  H   UNL     1      46.516   4.747  11.170  0.00  0.00    +0.000 HD
ENDROOT
BRANCH   5   9
ATOM      9  C   UNL     1      48.139   9.304  14.615  0.00  0.00    +0.000 C 
ATOM     10  N   UNL     1      47.708   9.399  15.910  0.00  0.00    +0.000 N 
ATOM     11  O   UNL     1      49.065  10.020  14.244  0.00  0.00    +0.000 OA
ATOM     12  H   UNL     1      47.042   8.799  16.368  0.00  0.00    +0.000 HD
ATOM     13  H   UNL     1      48.206  10.061  16.496  0.00  0.00    +0.000 HD
ENDBRANCH   5   9
BRANCH   6  14
ATOM     14  N   UNL     1      49.584   7.010  13.472  0.00  0.00    +0.000 N 
ATOM     15  H   UNL     1      49.882   6.036  13.534  0.00  0.00    +0.000 HD
ATOM     16  H   UNL     1      50.103   7.588  12.822  0.00  0.00    +0.000 HD
ENDBRANCH   6  14
BRANCH   1  17
ATOM     17  C   UNL     1      44.651   5.600  10.701  0.00  0.00    +0.000 C 
BRANCH  17  19
ATOM     18  C   UNL     1      43.349   3.522  11.381  0.00  0.00    +0.000 C 
ATOM     19  C   UNL     1      43.908   4.336  10.205  0.00  0.00    +0.000 C 
BRANCH  19  20
ATOM     20  C   UNL     1      44.757   3.525   9.233  0.00  0.00    +0.000 A 
ATOM     21  C   UNL     1      44.977   2.144   9.402  0.00  0.00    +0.000 A 
ATOM     22  C   UNL     1      45.794   1.435   8.515  0.00  0.00    +0.000 A 
ATOM     23  C   UNL     1      46.400   2.099   7.458  0.00  0.00    +0.000 A 
ATOM     24  F   UNL     1      47.190   1.416   6.618  0.00  0.00    +0.000 F 
ATOM     25  C   UNL     1      46.194   3.460   7.276  0.00  0.00    +0.000 A 
ATOM     26  F   UNL     1      46.784   4.102   6.259  0.00  0.00    +0.000 F 
ATOM     27  C   UNL     1      45.381   4.174   8.153  0.00  0.00    +0.000 A 
ENDBRANCH  19  20
ENDBRANCH  17  19
ENDBRANCH   1  17
TORSDOF 5
ENDMDL
MODEL 6
REMARK VINA RESULT:    -7.033      5.639      7.665
REMARK INTER + INTRA:          -9.522
REMARK INTER:                  -9.162
REMARK INTRA:                  -0.360
REMARK UNBOUND:                -0.639
REMARK  Name = 
REMARK  6 active torsions:
REMARK  status: ('A' for Active; 'I' for Inactive)
REMARK    1  A    between atoms: C_1  and  C_2
REMARK    2  A    between atoms: C_2  and  C_3
REMARK    3  A    between atoms: C_2  and  C_15
REMARK    4  A    between atoms: C_3  and  N_4
REMARK    5  A    between atoms: C_8  and  C_9
REMARK    6  A    between atoms: C_12  and  N_13
REMARK                            x       y       z     vdW  Elec       q    Type
REMARK                         _______ _______ _______ _____ _____    ______ ____
ROOT
ATOM      1  N   UNL     1      46.363   5.257  14.062  0.00  0.00    +0.000 N 
ATOM      2  C   UNL     1      47.148   4.969  15.166  0.00  0.00    +0.000 A 
ATOM      3  N   UNL     1      48.265   5.666  15.400  0.00  0.00    +0.000 NA
ATOM      4  C   UNL     1      48.938   5.372  16.531  0.00  0.00    +0.000 A 
ATOM      5  C   UNL     1      48.548   4.411  17.436  0.00  0.00    +0.000 A 
ATOM      6  C   UNL     1      47.405   3.709  17.079  0.00  0.00    +0.000 A 
ATOM      7  N   UNL     1      46.707   3.985  15.958  0.00  0.00    +0.000 NA
ATOM      8  H   UNL     1      45.806   4.425  13.891  0.00  0.00    +0.000 HD
ENDROOT
BRANCH   5   9
ATOM      9  C   UNL     1      49.236   4.195  18.734  0.00  0.00    +0.000 C 
ATOM     10  N   UNL     1      50.551   3.814  18.738  0.00  0.00    +0.000 N 
ATOM     11  O   UNL     1      48.677   4.405  19.807  0.00  0.00    +0.000 OA
ATOM     12  H   UNL     1      51.152   3.721  17.935  0.00  0.00    +0.000 HD
ATOM     13  H   UNL     1      50.990   3.744  19.649  0.00  0.00    +0.000 HD
ENDBRANCH   5   9
BRANCH   6  14
ATOM     14  N   UNL     1      46.966   2.587  17.778  0.00  0.00    +0.000 N 
ATOM     15  H   UNL     1      46.755   2.774  18.758  0.00  0.00    +0.000 HD
ATOM     16  H   UNL     1      46.252   2.086  17.262  0.00  0.00    +0.000 HD
ENDBRANCH   6  14
BRANCH   1  17
ATOM     17  C   UNL     1      47.072   5.783  12.903  0.00  0.00    +0.000 C 
BRANCH  17  19
ATOM     18  C   UNL     1      45.037   7.238  12.436  0.00  0.00    +0.000 C 
ATOM     19  C   UNL     1      46.090   6.302  11.825  0.00  0.00    +0.000 C 
BRANCH  19  20
ATOM     20  C   UNL     1      45.506   5.163  10.996  0.00  0.00    +0.000 A 
ATOM     21  C   UNL     1      44.791   4.100  11.581  0.00  0.00    +0.000 A 
ATOM     22  C   UNL     1      44.303   3.049  10.798  0.00  0.00    +0.000 A 
ATOM     23  C   UNL     1      44.528   3.049   9.429  0.00  0.00    +0.000 A 
ATOM     24  F   UNL     1      44.066   2.034   8.686  0.00  0.00    +0.000 F 
ATOM     25  C   UNL     1      45.231   4.089   8.836  0.00  0.00    +0.000 A 
ATOM     26  F   UNL     1      45.453   4.086   7.515  0.00  0.00    +0.000 F 
ATOM     27  C   UNL     1      45.719   5.141   9.607  0.00  0.00    +0.000 A 
ENDBRANCH  19  20
ENDBRANCH  17  19
ENDBRANCH   1  17
TORSDOF 5
ENDMDL
MODEL 7
REMARK VINA RESULT:    -6.968      5.075      7.040
REMARK INTER + INTRA:          -9.440
REMARK INTER:                  -8.798
REMARK INTRA:                  -0.642
REMARK UNBOUND:                -0.639
REMARK  Name = 
REMARK  6 active torsions:
REMARK  status: ('A' for Active; 'I' for Inactive)
REMARK    1  A    between atoms: C_1  and  C_2
REMARK    2  A    between atoms: C_2  and  C_3
REMARK    3  A    between atoms: C_2  and  C_15
REMARK    4  A    between atoms: C_3  and  N_4
REMARK    5  A    between atoms: C_8  and  C_9
REMARK    6  A    between atoms: C_12  and  N_13
REMARK                            x       y       z     vdW  Elec       q    Type
REMARK                         _______ _______ _______ _____ _____    ______ ____
ROOT
ATOM      1  N   UNL     1      46.380   5.259  12.744  0.00  0.00    +0.000 N 
ATOM      2  C   UNL     1      46.937   5.106  14.003  0.00  0.00    +0.000 A 
ATOM      3  N   UNL     1      46.528   4.118  14.807  0.00  0.00    +0.000 NA
ATOM      4  C   UNL     1      47.167   3.993  15.987  0.00  0.00    +0.000 A 
ATOM      5  C   UNL     1      48.193   4.811  16.403  0.00  0.00    +0.000 A 
ATOM      6  C   UNL     1      48.511   5.834  15.521  0.00  0.00    +0.000 A 
ATOM      7  N   UNL     1      47.895   5.981  14.330  0.00  0.00    +0.000 NA
ATOM      8  H   UNL     1      46.563   6.221  12.473  0.00  0.00    +0.000 HD
ENDROOT
BRANCH   5   9
ATOM      9  C   UNL     1      48.963   4.573  17.649  0.00  0.00    +0.000 C 
ATOM     10  N   UNL     1      49.606   3.376  17.820  0.00  0.00    +0.000 N 
ATOM     11  O   UNL     1      49.090   5.440  18.509  0.00  0.00    +0.000 OA
ATOM     12  H   UNL     1      49.676   2.630  17.147  0.00  0.00    +0.000 HD
ATOM     13  H   UNL     1      50.169   3.291  18.659  0.00  0.00    +0.000 HD
ENDBRANCH   5   9
BRANCH   6  14
ATOM     14  N   UNL     1      49.395   6.860  15.850  0.00  0.00    +0.000 N 
ATOM     15  H   UNL     1      50.084   7.053  15.123  0.00  0.00    +0.000 HD
ATOM     16  H   UNL     1      48.905   7.667  16.218  0.00  0.00    +0.000 HD
ENDBRANCH   6  14
BRANCH   1  17
ATOM     17  C   UNL     1      44.995   4.825  12.611  0.00  0.00    +0.000 C 
BRANCH  17  19
ATOM     18  C   UNL     1      42.884   5.406  11.313  0.00  0.00    +0.000 C 
ATOM     19  C   UNL     1      44.407   5.223  11.236  0.00  0.00    +0.000 C 
BRANCH  19  20
ATOM     20  C   UNL     1      44.866   4.281  10.129  0.00  0.00    +0.000 A 
ATOM     21  C   UNL     1      44.584   2.902  10.153  0.00  0.00    +0.000 A 
ATOM     22  C   UNL     1      45.054   2.057   9.143  0.00  0.00    +0.000 A 
ATOM     23  C   UNL     1      45.813   2.580   8.106  0.00  0.00    +0.000 A 
ATOM     24  F   UNL     1      46.269   1.763   7.146  0.00  0.00    +0.000 F 
ATOM     25  C   UNL     1      46.101   3.937   8.066  0.00  0.00    +0.000 A 
ATOM     26  F   UNL     1      46.839   4.442   7.068  0.00  0.00    +0.000 F 
ATOM     27  C   UNL     1      45.636   4.788   9.067  0.00  0.00    +0.000 A 
ENDBRANCH  19  20
ENDBRANCH  17  19
ENDBRANCH   1  17
TORSDOF 5
ENDMDL
MODEL 8
REMARK VINA RESULT:    -6.856      4.653      6.753
REMARK INTER + INTRA:          -9.299
REMARK INTER:                  -8.703
REMARK INTRA:                  -0.595
REMARK UNBOUND:                -0.639
REMARK  Name = 
REMARK  6 active torsions:
REMARK  status: ('A' for Active; 'I' for Inactive)
REMARK    1  A    between atoms: C_1  and  C_2
REMARK    2  A    between atoms: C_2  and  C_3
REMARK    3  A    between atoms: C_2  and  C_15
REMARK    4  A    between atoms: C_3  and  N_4
REMARK    5  A    between atoms: C_8  and  C_9
REMARK    6  A    between atoms: C_12  and  N_13
REMARK                            x       y       z     vdW  Elec       q    Type
REMARK                         _______ _______ _______ _____ _____    ______ ____
ROOT
ATOM      1  N   UNL     1      47.317   3.837  14.652  0.00  0.00    +0.000 N 
ATOM      2  C   UNL     1      46.316   4.257  13.792  0.00  0.00    +0.000 A 
ATOM      3  N   UNL     1      46.106   5.562  13.587  0.00  0.00    +0.000 NA
ATOM      4  C   UNL     1      45.159   5.890  12.685  0.00  0.00    +0.000 A 
ATOM      5  C   UNL     1      44.411   4.974  11.981  0.00  0.00    +0.000 A 
ATOM      6  C   UNL     1      44.668   3.648  12.300  0.00  0.00    +0.000 A 
ATOM      7  N   UNL     1      45.613   3.289  13.193  0.00  0.00    +0.000 NA
ATOM      8  H   UNL     1      47.074   2.888  14.920  0.00  0.00    +0.000 HD
ENDROOT
BRANCH   5   9
ATOM      9  C   UNL     1      43.466   5.360  10.902  0.00  0.00    +0.000 C 
ATOM     10  N   UNL     1      42.670   6.460  11.073  0.00  0.00    +0.000 N 
ATOM     11  O   UNL     1      43.417   4.753   9.836  0.00  0.00    +0.000 OA
ATOM     12  H   UNL     1      42.694   7.106  11.846  0.00  0.00    +0.000 HD
ATOM     13  H   UNL     1      42.091   6.716  10.281  0.00  0.00    +0.000 HD
ENDBRANCH   5   9
BRANCH   6  14
ATOM     14  N   UNL     1      43.887   2.597  11.824  0.00  0.00    +0.000 N 
ATOM     15  H   UNL     1      43.935   1.759  12.403  0.00  0.00    +0.000 HD
ATOM     16  H   UNL     1      42.955   2.910  11.579  0.00  0.00    +0.000 HD
ENDBRANCH   6  14
BRANCH   1  17
ATOM     17  C   UNL     1      47.622   4.740  15.754  0.00  0.00    +0.000 C 
BRANCH  17  19
ATOM     18  C   UNL     1      47.262   4.774  18.274  0.00  0.00    +0.000 C 
ATOM     19  C   UNL     1      47.804   3.968  17.084  0.00  0.00    +0.000 C 
BRANCH  19  20
ATOM     20  C   UNL     1      49.236   3.478  17.264  0.00  0.00    +0.000 A 
ATOM     21  C   UNL     1      49.611   2.146  17.004  0.00  0.00    +0.000 A 
ATOM     22  C   UNL     1      50.925   1.717  17.218  0.00  0.00    +0.000 A 
ATOM     23  C   UNL     1      51.871   2.612  17.697  0.00  0.00    +0.000 A 
ATOM     24  F   UNL     1      53.126   2.192  17.909  0.00  0.00    +0.000 F 
ATOM     25  C   UNL     1      51.520   3.929  17.958  0.00  0.00    +0.000 A 
ATOM     26  F   UNL     1      52.432   4.791  18.426  0.00  0.00    +0.000 F 
ATOM     27  C   UNL     1      50.214   4.366  17.746  0.00  0.00    +0.000 A 
ENDBRANCH  19  20
ENDBRANCH  17  19
ENDBRANCH   1  17
TORSDOF 5
ENDMDL
MODEL 9
REMARK VINA RESULT:    -6.764      5.531      7.446
REMARK INTER + INTRA:          -9.183
REMARK INTER:                  -8.569
REMARK INTRA:                  -0.615
REMARK UNBOUND:                -0.639
REMARK  Name = 
REMARK  6 active torsions:
REMARK  status: ('A' for Active; 'I' for Inactive)
REMARK    1  A    between atoms: C_1  and  C_2
REMARK    2  A    between atoms: C_2  and  C_3
REMARK    3  A    between atoms: C_2  and  C_15
REMARK    4  A    between atoms: C_3  and  N_4
REMARK    5  A    between atoms: C_8  and  C_9
REMARK    6  A    between atoms: C_12  and  N_13
REMARK                            x       y       z     vdW  Elec       q    Type
REMARK                         _______ _______ _______ _____ _____    ______ ____
ROOT
ATOM      1  N   UNL     1      47.226   6.274  13.648  0.00  0.00    +0.000 N 
ATOM      2  C   UNL     1      47.586   5.587  14.795  0.00  0.00    +0.000 A 
ATOM      3  N   UNL     1      46.991   4.429  15.104  0.00  0.00    +0.000 NA
ATOM      4  C   UNL     1      47.445   3.788  16.199  0.00  0.00    +0.000 A 
ATOM      5  C   UNL     1      48.462   4.251  17.002  0.00  0.00    +0.000 A 
ATOM      6  C   UNL     1      48.981   5.482  16.628  0.00  0.00    +0.000 A 
ATOM      7  N   UNL     1      48.552   6.145  15.533  0.00  0.00    +0.000 NA
ATOM      8  H   UNL     1      47.521   7.235  13.794  0.00  0.00    +0.000 HD
ENDROOT
BRANCH   5   9
ATOM      9  C   UNL     1      49.026   3.464  18.128  0.00  0.00    +0.000 C 
ATOM     10  N   UNL     1      48.200   3.061  19.142  0.00  0.00    +0.000 N 
ATOM     11  O   UNL     1      50.203   3.114  18.148  0.00  0.00    +0.000 OA
ATOM     12  H   UNL     1      47.201   3.182  19.188  0.00  0.00    +0.000 HD
ATOM     13  H   UNL     1      48.623   2.472  19.851  0.00  0.00    +0.000 HD
ENDBRANCH   5   9
BRANCH   6  14
ATOM     14  N   UNL     1      49.885   6.187  17.419  0.00  0.00    +0.000 N 
ATOM     15  H   UNL     1      49.441   6.731  18.159  0.00  0.00    +0.000 HD
ATOM     16  H   UNL     1      50.660   5.601  17.708  0.00  0.00    +0.000 HD
ENDBRANCH   6  14
BRANCH   1  17
ATOM     17  C   UNL     1      45.845   6.102  13.217  0.00  0.00    +0.000 C 
BRANCH  17  19
ATOM     18  C   UNL     1      44.734   7.669  11.547  0.00  0.00    +0.000 C 
ATOM     19  C   UNL     1      45.669   6.463  11.722  0.00  0.00    +0.000 C 
BRANCH  19  20
ATOM     20  C   UNL     1      45.283   5.248  10.886  0.00  0.00    +0.000 A 
ATOM     21  C   UNL     1      45.657   5.118   9.535  0.00  0.00    +0.000 A 
ATOM     22  C   UNL     1      45.253   4.011   8.783  0.00  0.00    +0.000 A 
ATOM     23  C   UNL     1      44.468   3.029   9.372  0.00  0.00    +0.000 A 
ATOM     24  F   UNL     1      44.076   1.975   8.643  0.00  0.00    +0.000 F 
ATOM     25  C   UNL     1      44.090   3.141  10.703  0.00  0.00    +0.000 A 
ATOM     26  F   UNL     1      43.327   2.196  11.269  0.00  0.00    +0.000 F 
ATOM     27  C   UNL     1      44.490   4.240  11.460  0.00  0.00    +0.000 A 
ENDBRANCH  19  20
ENDBRANCH  17  19
ENDBRANCH   1  17
TORSDOF 5
ENDMDL
