MODEL 1
REMARK VINA RESULT:    -6.300      0.000      0.000
REMARK INTER + INTRA:          -8.151
REMARK INTER:                  -7.589
REMARK INTRA:                  -0.562
REMARK UNBOUND:                -0.562
REMARK  Name = 
REMARK  4 active torsions:
REMARK  status: ('A' for Active; 'I' for Inactive)
REMARK    1  A    between atoms: N_1  and  C_2
REMARK    2  A    between atoms: C_2  and  C_3
REMARK    3  A    between atoms: C_6  and  C_7
REMARK    4  A    between atoms: C_7  and  N_8
REMARK                            x       y       z     vdW  Elec       q    Type
REMARK                         _______ _______ _______ _____ _____    ______ ____
ROOT
ATOM      1  C   UNL     1      48.100   7.998  12.397  0.00  0.00    +0.000 C 
ATOM      2  C   UNL     1      47.812   6.544  11.986  0.00  0.00    +0.000 C 
ATOM      3  C   UNL     1      46.642   5.942  12.765  0.00  0.00    +0.000 C 
ATOM      4  C   UNL     1      45.349   6.768  12.645  0.00  0.00    +0.000 C 
ATOM      5  C   UNL     1      45.615   8.251  12.963  0.00  0.00    +0.000 C 
ATOM      6  C   UNL     1      46.819   8.833  12.221  0.00  0.00    +0.000 C 
ENDROOT
BRANCH   1   7
ATOM      7  C   UNL     1      48.712   8.041  13.815  0.00  0.00    +0.000 C 
BRANCH   7   8
ATOM      8  N   UNL     1      49.805   7.093  14.007  0.00  0.00    +0.000 NA
ATOM      9  H   UNL     1      49.603   6.519  14.825  0.00  0.00    +0.000 HD
ATOM     10  H   UNL     1      50.660   7.599  14.231  0.00  0.00    +0.000 HD
ENDBRANCH   7   8
ENDBRANCH   1   7
BRANCH   4  11
ATOM     11  C   UNL     1      44.647   6.589  11.274  0.00  0.00    +0.000 C 
BRANCH  11  12
ATOM     12  N   UNL     1      44.332   5.203  10.964  0.00  0.00    +0.000 N 
ATOM     13  C   UNL     1      43.498   4.397  11.705  0.00  0.00    +0.000 A 
ATOM     14  C   UNL     1      43.594   3.115  11.209  0.00  0.00    +0.000 A 
ATOM     15  C   UNL     1      44.438   3.159  10.068  0.00  0.00    +0.000 A 
ATOM     16  C   UNL     1      44.898   2.221   9.130  0.00  0.00    +0.000 A 
ATOM     17  C   UNL     1      45.695   2.686   8.085  0.00  0.00    +0.000 A 
ATOM     18  C   UNL     1      46.010   4.037   8.031  0.00  0.00    +0.000 A 
ATOM     19  N   UNL     1      45.632   4.975   8.931  0.00  0.00    +0.000 NA
ATOM     20  C   UNL     1      44.851   4.481   9.915  0.00  0.00    +0.000 A 
ENDBRANCH  11  12
ENDBRANCH   4  11
TORSDOF 4
ENDMDL
MODEL 2
REMARK VINA RESULT:    -6.153      1.666      5.935
REMARK INTER + INTRA:          -7.974
REMARK INTER:                  -7.524
REMARK INTRA:                  -0.451
REMARK UNBOUND:                -0.562
REMARK  Name = 
REMARK  4 active torsions:
REMARK  status: ('A' for Active; 'I' for Inactive)
REMARK    1  A    between atoms: N_1  and  C_2
REMARK    2  A    between atoms: C_2  and  C_3
REMARK    3  A    between atoms: C_6  and  C_7
REMARK    4  A    between atoms: C_7  and  N_8
REMARK                            x       y       z     vdW  Elec       q    Type
REMARK                         _______ _______ _______ _____ _____    ______ ____
ROOT
ATOM      1  C   UNL     1      46.830   2.701   7.434  0.00  0.00    +0.000 C 
ATOM      2  C   UNL     1      46.370   4.040   8.035  0.00  0.00    +0.000 C 
ATOM      3  C   UNL     1      44.859   4.083   8.268  0.00  0.00    +0.000 C 
ATOM      4  C   UNL     1      44.353   2.929   9.152  0.00  0.00    +0.000 C 
ATOM      5  C   UNL     1      44.868   1.574   8.632  0.00  0.00    +0.000 C 
ATOM      6  C   UNL     1      46.371   1.554   8.351  0.00  0.00    +0.000 C 
ENDROOT
BRANCH   1   7
ATOM      7  C   UNL     1      46.361   2.586   5.966  0.00  0.00    +0.000 C 
BRANCH   7   8
ATOM      8  N   UNL     1      47.375   2.987   4.997  0.00  0.00    +0.000 NA
ATOM      9  H   UNL     1      47.016   3.767   4.447  0.00  0.00    +0.000 HD
ATOM     10  H   UNL     1      47.528   2.231   4.331  0.00  0.00    +0.000 HD
ENDBRANCH   7   8
ENDBRANCH   1   7
BRANCH   4  11
ATOM     11  C   UNL     1      44.682   3.133  10.653  0.00  0.00    +0.000 C 
BRANCH  11  12
ATOM     12  N   UNL     1      44.305   4.447  11.152  0.00  0.00    +0.000 N 
ATOM     13  C   UNL     1      43.050   5.002  11.051  0.00  0.00    +0.000 A 
ATOM     14  C   UNL     1      43.129   6.313  11.467  0.00  0.00    +0.000 A 
ATOM     15  C   UNL     1      44.452   6.537  11.929  0.00  0.00    +0.000 A 
ATOM     16  C   UNL     1      45.144   7.625  12.487  0.00  0.00    +0.000 A 
ATOM     17  C   UNL     1      46.466   7.420  12.877  0.00  0.00    +0.000 A 
ATOM     18  C   UNL     1      47.039   6.171  12.679  0.00  0.00    +0.000 A 
ATOM     19  N   UNL     1      46.435   5.104  12.106  0.00  0.00    +0.000 NA
ATOM     20  C   UNL     1      45.153   5.344  11.759  0.00  0.00    +0.000 A 
ENDBRANCH  11  12
ENDBRANCH   4  11
TORSDOF 4
ENDMDL
MODEL 3
REMARK VINA RESULT:    -5.803      1.474      2.124
REMARK INTER + INTRA:          -7.552
REMARK INTER:                  -7.152
REMARK INTRA:                  -0.400
REMARK UNBOUND:                -0.562
REMARK  Name = 
REMARK  4 active torsions:
REMARK  status: ('A' for Active; 'I' for Inactive)
REMARK    1  A    between atoms: N_1  and  C_2
REMARK    2  A    between atoms: C_2  and  C_3
REMARK    3  A    between atoms: C_6  and  C_7
REMARK    4  A    between atoms: C_7  and  N_8
REMARK                            x       y       z     vdW  Elec       q    Type
REMARK                         _______ _______ _______ _____ _____    ______ ____
ROOT
ATOM      1  C   UNL     1      46.399   8.270  12.063  0.00  0.00    +0.000 C 
ATOM      2  C   UNL     1      47.179   7.019  11.622  0.00  0.00    +0.000 C 
ATOM      3  C   UNL     1      46.407   5.728  11.893  0.00  0.00    +0.000 C 
ATOM      4  C   UNL     1      45.012   5.711  11.243  0.00  0.00    +0.000 C 
ATOM      5  C   UNL     1      44.231   6.992  11.589  0.00  0.00    +0.000 C 
ATOM      6  C   UNL     1      45.027   8.278  11.365  0.00  0.00    +0.000 C 
ENDROOT
BRANCH   1   7
ATOM      7  C   UNL     1      46.343   8.347  13.605  0.00  0.00    +0.000 C 
BRANCH   7   8
ATOM      8  N   UNL     1      47.363   9.217  14.182  0.00  0.00    +0.000 NA
ATOM      9  H   UNL     1      47.889   8.689  14.879  0.00  0.00    +0.000 HD
ATOM     10  H   UNL     1      46.915   9.975  14.694  0.00  0.00    +0.000 HD
ENDBRANCH   7   8
ENDBRANCH   1   7
BRANCH   4  11
ATOM     11  C   UNL     1      45.066   5.464   9.714  0.00  0.00    +0.000 C 
BRANCH  11  12
ATOM     12  N   UNL     1      45.063   4.054   9.356  0.00  0.00    +0.000 N 
ATOM     13  C   UNL     1      44.264   3.093   9.934  0.00  0.00    +0.000 A 
ATOM     14  C   UNL     1      44.675   1.863   9.469  0.00  0.00    +0.000 A 
ATOM     15  C   UNL     1      45.691   2.087   8.503  0.00  0.00    +0.000 A 
ATOM     16  C   UNL     1      46.474   1.270   7.670  0.00  0.00    +0.000 A 
ATOM     17  C   UNL     1      47.352   1.897   6.788  0.00  0.00    +0.000 A 
ATOM     18  C   UNL     1      47.427   3.284   6.788  0.00  0.00    +0.000 A 
ATOM     19  N   UNL     1      46.732   4.115   7.599  0.00  0.00    +0.000 NA
ATOM     20  C   UNL     1      45.884   3.464   8.424  0.00  0.00    +0.000 A 
ENDBRANCH  11  12
ENDBRANCH   4  11
TORSDOF 4
ENDMDL
MODEL 4
REMARK VINA RESULT:    -5.340      3.293      6.749
REMARK INTER + INTRA:          -6.995
REMARK INTER:                  -6.793
REMARK INTRA:                  -0.202
REMARK UNBOUND:                -0.562
REMARK  Name = 
REMARK  4 active torsions:
REMARK  status: ('A' for Active; 'I' for Inactive)
REMARK    1  A    between atoms: N_1  and  C_2
REMARK    2  A    between atoms: C_2  and  C_3
REMARK    3  A    between atoms: C_6  and  C_7
REMARK    4  A    between atoms: C_7  and  N_8
REMARK                            x       y       z     vdW  Elec       q    Type
REMARK                         _______ _______ _______ _____ _____    ______ ____
ROOT
ATOM      1  C   UNL     1      44.451   5.399  10.874  0.00  0.00    +0.000 C 
ATOM      2  C   UNL     1      45.330   6.554  11.385  0.00  0.00    +0.000 C 
ATOM      3  C   UNL     1      45.282   6.689  12.907  0.00  0.00    +0.000 C 
ATOM      4  C   UNL     1      45.670   5.393  13.641  0.00  0.00    +0.000 C 
ATOM      5  C   UNL     1      44.873   4.194  13.093  0.00  0.00    +0.000 C 
ATOM      6  C   UNL     1      44.881   4.094  11.567  0.00  0.00    +0.000 C 
ENDROOT
BRANCH   1   7
ATOM      7  C   UNL     1      42.956   5.755  11.032  0.00  0.00    +0.000 C 
BRANCH   7   8
ATOM      8  N   UNL     1      42.697   7.191  11.032  0.00  0.00    +0.000 NA
ATOM      9  H   UNL     1      41.877   7.378  11.610  0.00  0.00    +0.000 HD
ATOM     10  H   UNL     1      42.443   7.492  10.092  0.00  0.00    +0.000 HD
ENDBRANCH   7   8
ENDBRANCH   1   7
BRANCH   4  11
ATOM     11  C   UNL     1      47.197   5.126  13.622  0.00  0.00    +0.000 C 
BRANCH  11  12
ATOM     12  N   UNL     1      47.862   5.493  14.863  0.00  0.00    +0.000 N 
ATOM     13  C   UNL     1      48.597   6.640  15.058  0.00  0.00    +0.000 A 
ATOM     14  C   UNL     1      49.216   6.545  16.285  0.00  0.00    +0.000 A 
ATOM     15  C   UNL     1      48.766   5.348  16.901  0.00  0.00    +0.000 A 
ATOM     16  C   UNL     1      48.996   4.711  18.131  0.00  0.00    +0.000 A 
ATOM     17  C   UNL     1      48.295   3.535  18.393  0.00  0.00    +0.000 A 
ATOM     18  C   UNL     1      47.428   3.041  17.428  0.00  0.00    +0.000 A 
ATOM     19  N   UNL     1      47.203   3.588  16.210  0.00  0.00    +0.000 NA
ATOM     20  C   UNL     1      47.891   4.732  16.009  0.00  0.00    +0.000 A 
ENDBRANCH  11  12
ENDBRANCH   4  11
TORSDOF 4
ENDMDL
MODEL 5
REMARK VINA RESULT:    -5.310      2.077      6.275
REMARK INTER + INTRA:          -6.958
REMARK INTER:                  -6.627
REMARK INTRA:                  -0.331
REMARK UNBOUND:                -0.562
REMARK  Name = 
REMARK  4 active torsions:
REMARK  status: ('A' for Active; 'I' for Inactive)
REMARK    1  A    between atoms: N_1  and  C_2
REMARK    2  A    between atoms: C_2  and  C_3
REMARK    3  A    between atoms: C_6  and  C_7
REMARK    4  A    between atoms: C_7  and  N_8
REMARK                            x       y       z     vdW  Elec       q    Type
REMARK                         _______ _______ _______ _____ _____    ______ ____
ROOT
ATOM      1  C   UNL     1      44.911   3.459  11.173  0.00  0.00    +0.000 C 
ATOM      2  C   UNL     1      45.255   4.712  10.349  0.00  0.00    +0.000 C 
ATOM      3  C   UNL     1      44.947   6.006  11.105  0.00  0.00    +0.000 C 
ATOM      4  C   UNL     1      45.651   6.088  12.472  0.00  0.00    +0.000 C 
ATOM      5  C   UNL     1      45.403   4.808  13.293  0.00  0.00    +0.000 C 
ATOM      6  C   UNL     1      45.662   3.517  12.515  0.00  0.00    +0.000 C 
ENDROOT
BRANCH   1   7
ATOM      7  C   UNL     1      43.379   3.303  11.293  0.00  0.00    +0.000 C 
BRANCH   7   8
ATOM      8  N   UNL     1      42.960   1.975  11.727  0.00  0.00    +0.000 NA
ATOM      9  H   UNL     1      43.339   1.797  12.657  0.00  0.00    +0.000 HD
ATOM     10  H   UNL     1      43.379   1.271  11.122  0.00  0.00    +0.000 HD
ENDBRANCH   7   8
ENDBRANCH   1   7
BRANCH   4  11
ATOM     11  C   UNL     1      47.162   6.411  12.351  0.00  0.00    +0.000 C 
BRANCH  11  12
ATOM     12  N   UNL     1      47.441   7.836  12.259  0.00  0.00    +0.000 N 
ATOM     13  C   UNL     1      46.527   8.838  12.496  0.00  0.00    +0.000 A 
ATOM     14  C   UNL     1      47.104  10.035  12.133  0.00  0.00    +0.000 A 
ATOM     15  C   UNL     1      48.447   9.766  11.755  0.00  0.00    +0.000 A 
ATOM     16  C   UNL     1      49.536  10.541  11.323  0.00  0.00    +0.000 A 
ATOM     17  C   UNL     1      50.747   9.888  11.101  0.00  0.00    +0.000 A 
ATOM     18  C   UNL     1      50.815   8.515  11.294  0.00  0.00    +0.000 A 
ATOM     19  N   UNL     1      49.787   7.715  11.665  0.00  0.00    +0.000 NA
ATOM     20  C   UNL     1      48.641   8.393  11.884  0.00  0.00    +0.000 A 
ENDBRANCH  11  12
ENDBRANCH   4  11
TORSDOF 4
ENDMDL
MODEL 6
REMARK VINA RESULT:    -5.250      2.156      6.853
REMARK INTER + INTRA:          -6.886
REMARK INTER:                  -6.467
REMARK INTRA:                  -0.419
REMARK UNBOUND:                -0.562
REMARK  Name = 
REMARK  4 active torsions:
REMARK  status: ('A' for Active; 'I' for Inactive)
REMARK    1  A    between atoms: N_1  and  C_2
REMARK    2  A    between atoms: C_2  and  C_3
REMARK    3  A    between atoms: C_6  and  C_7
REMARK    4  A    between atoms: C_7  and  N_8
REMARK                            x       y       z     vdW  Elec       q    Type
REMARK                         _______ _______ _______ _____ _____    ______ ____
ROOT
ATOM      1  C   UNL     1      44.934   3.689  11.187  0.00  0.00    +0.000 C 
ATOM      2  C   UNL     1      45.280   5.045  10.547  0.00  0.00    +0.000 C 
ATOM      3  C   UNL     1      45.017   6.217  11.493  0.00  0.00    +0.000 C 
ATOM      4  C   UNL     1      45.757   6.087  12.836  0.00  0.00    +0.000 C 
ATOM      5  C   UNL     1      45.506   4.704  13.467  0.00  0.00    +0.000 C 
ATOM      6  C   UNL     1      45.720   3.538  12.501  0.00  0.00    +0.000 C 
ENDROOT
BRANCH   1   7
ATOM      7  C   UNL     1      43.402   3.541  11.327  0.00  0.00    +0.000 C 
BRANCH   7   8
ATOM      8  N   UNL     1      42.976   2.187  11.666  0.00  0.00    +0.000 NA
ATOM      9  H   UNL     1      43.490   1.877  12.491  0.00  0.00    +0.000 HD
ATOM     10  H   UNL     1      43.245   1.548  10.920  0.00  0.00    +0.000 HD
ENDBRANCH   7   8
ENDBRANCH   1   7
BRANCH   4  11
ATOM     11  C   UNL     1      47.270   6.402  12.720  0.00  0.00    +0.000 C 
BRANCH  11  12
ATOM     12  N   UNL     1      47.750   7.311  13.750  0.00  0.00    +0.000 N 
ATOM     13  C   UNL     1      47.755   8.684  13.653  0.00  0.00    +0.000 A 
ATOM     14  C   UNL     1      48.447   9.184  14.734  0.00  0.00    +0.000 A 
ATOM     15  C   UNL     1      48.792   8.087  15.568  0.00  0.00    +0.000 A 
ATOM     16  C   UNL     1      49.458   7.938  16.795  0.00  0.00    +0.000 A 
ATOM     17  C   UNL     1      49.545   6.654  17.332  0.00  0.00    +0.000 A 
ATOM     18  C   UNL     1      48.995   5.592  16.626  0.00  0.00    +0.000 A 
ATOM     19  N   UNL     1      48.384   5.674  15.422  0.00  0.00    +0.000 NA
ATOM     20  C   UNL     1      48.309   6.936  14.950  0.00  0.00    +0.000 A 
ENDBRANCH  11  12
ENDBRANCH   4  11
TORSDOF 4
ENDMDL
MODEL 7
REMARK VINA RESULT:    -5.163      2.044      6.066
REMARK INTER + INTRA:          -6.781
REMARK INTER:                  -6.281
REMARK INTRA:                  -0.500
REMARK UNBOUND:                -0.562
REMARK  Name = 
REMARK  4 active torsions:
REMARK  status: ('A' for Active; 'I' for Inactive)
REMARK    1  A    between atoms: N_1  and  C_2
REMARK    2  A    between atoms: C_2  and  C_3
REMARK    3  A    between atoms: C_6  and  C_7
REMARK    4  A    between atoms: C_7  and  N_8
REMARK                            x       y       z     vdW  Elec       q    Type
REMARK                         _______ _______ _______ _____ _____    ______ ____
ROOT
ATOM      1  C   UNL     1      43.722   3.661  10.525  0.00  0.00    +0.000 C 
ATOM      2  C   UNL     1      43.917   3.512  12.044  0.00  0.00    +0.000 C 
ATOM      3  C   UNL     1      45.349   3.823  12.479  0.00  0.00    +0.000 C 
ATOM      4  C   UNL     1      45.822   5.221  12.042  0.00  0.00    +0.000 C 
ATOM      5  C   UNL     1      45.561   5.443  10.540  0.00  0.00    +0.000 C 
ATOM      6  C   UNL     1      44.141   5.080  10.101  0.00  0.00    +0.000 C 
ENDROOT
BRANCH   1   7
ATOM      7  C   UNL     1      44.449   2.519   9.780  0.00  0.00    +0.000 C 
BRANCH   7   8
ATOM      8  N   UNL     1      44.406   2.652   8.327  0.00  0.00    +0.000 NA
ATOM      9  H   UNL     1      43.545   2.228   7.983  0.00  0.00    +0.000 HD
ATOM     10  H   UNL     1      45.163   2.110   7.913  0.00  0.00    +0.000 HD
ENDBRANCH   7   8
ENDBRANCH   1   7
BRANCH   4  11
ATOM     11  C   UNL     1      45.216   6.357  12.905  0.00  0.00    +0.000 C 
BRANCH  11  12
ATOM     12  N   UNL     1      45.879   7.639  12.720  0.00  0.00    +0.000 N 
ATOM     13  C   UNL     1      47.092   7.989  13.269  0.00  0.00    +0.000 A 
ATOM     14  C   UNL     1      47.299   9.328  13.024  0.00  0.00    +0.000 A 
ATOM     15  C   UNL     1      46.226   9.788  12.216  0.00  0.00    +0.000 A 
ATOM     16  C   UNL     1      45.876  11.011  11.622  0.00  0.00    +0.000 A 
ATOM     17  C   UNL     1      44.732  11.041  10.826  0.00  0.00    +0.000 A 
ATOM     18  C   UNL     1      43.988   9.879  10.676  0.00  0.00    +0.000 A 
ATOM     19  N   UNL     1      44.253   8.688  11.261  0.00  0.00    +0.000 NA
ATOM     20  C   UNL     1      45.377   8.702  12.008  0.00  0.00    +0.000 A 
ENDBRANCH  11  12
ENDBRANCH   4  11
TORSDOF 4
ENDMDL
MODEL 8
REMARK VINA RESULT:    -5.046      2.181      6.620
REMARK INTER + INTRA:          -6.641
REMARK INTER:                  -6.226
REMARK INTRA:                  -0.415
REMARK UNBOUND:                -0.562
REMARK  Name = 
REMARK  4 active torsions:
REMARK  status: ('A' for Active; 'I' for Inactive)
REMARK    1  A    between atoms: N_1  and  C_2
REMARK    2  A    between atoms: C_2  and  C_3
REMARK    3  A    between atoms: C_6  and  C_7
REMARK    4  A    between atoms: C_7  and  N_8
REMARK                            x       y       z     vdW  Elec       q    Type
REMARK                         _______ _______ _______ _____ _____    ______ ____
ROOT
ATOM      1  C   UNL     1      43.541   4.590  11.856  0.00  0.00    +0.000 C 
ATOM      2  C   UNL     1      44.315   4.431  13.177  0.00  0.00    +0.000 C 
ATOM      3  C   UNL     1      45.827   4.363  12.958  0.00  0.00    +0.000 C 
ATOM      4  C   UNL     1      46.381   5.575  12.188  0.00  0.00    +0.000 C 
ATOM      5  C   UNL     1      45.572   5.822  10.900  0.00  0.00    +0.000 C 
ATOM      6  C   UNL     1      44.058   5.836  11.117  0.00  0.00    +0.000 C 
ENDROOT
BRANCH   1   7
ATOM      7  C   UNL     1      43.603   3.279  11.041  0.00  0.00    +0.000 C 
BRANCH   7   8
ATOM      8  N   UNL     1      43.034   2.131  11.738  0.00  0.00    +0.000 NA
ATOM      9  H   UNL     1      42.018   2.222  11.747  0.00  0.00    +0.000 HD
ATOM     10  H   UNL     1      43.319   2.151  12.716  0.00  0.00    +0.000 HD
ENDBRANCH   7   8
ENDBRANCH   1   7
BRANCH   4  11
ATOM     11  C   UNL     1      46.473   6.851  13.064  0.00  0.00    +0.000 C 
BRANCH  11  12
ATOM     12  N   UNL     1      47.779   7.490  13.015  0.00  0.00    +0.000 N 
ATOM     13  C   UNL     1      48.235   8.281  11.985  0.00  0.00    +0.000 A 
ATOM     14  C   UNL     1      49.568   8.548  12.211  0.00  0.00    +0.000 A 
ATOM     15  C   UNL     1      49.911   7.984  13.468  0.00  0.00    +0.000 A 
ATOM     16  C   UNL     1      51.073   7.933  14.255  0.00  0.00    +0.000 A 
ATOM     17  C   UNL     1      50.985   7.312  15.500  0.00  0.00    +0.000 A 
ATOM     18  C   UNL     1      49.773   6.759  15.890  0.00  0.00    +0.000 A 
ATOM     19  N   UNL     1      48.637   6.740  15.154  0.00  0.00    +0.000 NA
ATOM     20  C   UNL     1      48.765   7.366  13.965  0.00  0.00    +0.000 A 
ENDBRANCH  11  12
ENDBRANCH   4  11
TORSDOF 4
ENDMDL
MODEL 9
REMARK VINA RESULT:    -4.751      3.314      6.929
REMARK INTER + INTRA:          -6.285
REMARK INTER:                  -5.948
REMARK INTRA:                  -0.337
REMARK UNBOUND:                -0.562
REMARK  Name = 
REMARK  4 active torsions:
REMARK  status: ('A' for Active; 'I' for Inactive)
REMARK    1  A    between atoms: N_1  and  C_2
REMARK    2  A    between atoms: C_2  and  C_3
REMARK    3  A    between atoms: C_6  and  C_7
REMARK    4  A    between atoms: C_7  and  N_8
REMARK                            x       y       z     vdW  Elec       q    Type
REMARK                         _______ _______ _______ _____ _____    ______ ____
ROOT
ATOM      1  C   UNL     1      45.187   6.255  11.880  0.00  0.00    +0.000 C 
ATOM      2  C   UNL     1      45.354   5.459  13.186  0.00  0.00    +0.000 C 
ATOM      3  C   UNL     1      46.785   4.956  13.380  0.00  0.00    +0.000 C 
ATOM      4  C   UNL     1      47.832   6.083  13.336  0.00  0.00    +0.000 C 
ATOM      5  C   UNL     1      47.640   6.959  12.083  0.00  0.00    +0.000 C 
ATOM      6  C   UNL     1      46.197   7.416  11.866  0.00  0.00    +0.000 C 
ENDROOT
BRANCH   1   7
ATOM      7  C   UNL     1      45.271   5.307  10.663  0.00  0.00    +0.000 C 
BRANCH   7   8
ATOM      8  N   UNL     1      43.987   5.088  10.005  0.00  0.00    +0.000 NA
ATOM      9  H   UNL     1      43.671   4.139  10.206  0.00  0.00    +0.000 HD
ATOM     10  H   UNL     1      44.111   5.127   8.995  0.00  0.00    +0.000 HD
ENDBRANCH   7   8
ENDBRANCH   1   7
BRANCH   4  11
ATOM     11  C   UNL     1      47.858   6.930  14.633  0.00  0.00    +0.000 C 
BRANCH  11  12
ATOM     12  N   UNL     1      48.820   6.453  15.614  0.00  0.00    +0.000 N 
ATOM     13  C   UNL     1      50.100   6.938  15.768  0.00  0.00    +0.000 A 
ATOM     14  C   UNL     1      50.760   6.122  16.660  0.00  0.00    +0.000 A 
ATOM     15  C   UNL     1      49.825   5.167  17.140  0.00  0.00    +0.000 A 
ATOM     16  C   UNL     1      49.865   4.107  18.061  0.00  0.00    +0.000 A 
ATOM     17  C   UNL     1      48.678   3.418  18.308  0.00  0.00    +0.000 A 
ATOM     18  C   UNL     1      47.530   3.794  17.624  0.00  0.00    +0.000 A 
ATOM     19  N   UNL     1      47.445   4.775  16.695  0.00  0.00    +0.000 NA
ATOM     20  C   UNL     1      48.613   5.423  16.502  0.00  0.00    +0.000 A 
ENDBRANCH  11  12
ENDBRANCH   4  11
TORSDOF 4
ENDMDL
