MODEL 1
REMARK VINA RESULT:    -8.610      0.000      0.000
REMARK INTER + INTRA:         -12.334
REMARK INTER:                 -11.630
REMARK INTRA:                  -0.703
REMARK UNBOUND:                -0.703
REMARK  Name = 
REMARK  6 active torsions:
REMARK  status: ('A' for Active; 'I' for Inactive)
REMARK    1  A    between atoms: C_2  and  C_4
REMARK    2  A    between atoms: N_8  and  C_9
REMARK    3  A    between atoms: C_9  and  C_10
REMARK    4  A    between atoms: C_15  and  C_16
REMARK    5  A    between atoms: C_20  and  O_21
REMARK    6  A    between atoms: O_21  and  C_22
REMARK                            x       y       z     vdW  Elec       q    Type
REMARK                         _______ _______ _______ _____ _____    ______ ____
ROOT
ATOM      1  C   UNL     1      44.660   5.567  11.780  0.00  0.00    +0.000 A 
ATOM      2  C   UNL     1      45.032   6.889  11.517  0.00  0.00    +0.000 A 
ATOM      3  C   UNL     1      46.047   7.486  12.257  0.00  0.00    +0.000 A 
ATOM      4  C   UNL     1      46.694   6.769  13.264  0.00  0.00    +0.000 A 
ATOM      5  F   UNL     1      47.686   7.385  13.924  0.00  0.00    +0.000 F 
ATOM      6  C   UNL     1      46.342   5.445  13.580  0.00  0.00    +0.000 A 
ATOM      7  C   UNL     1      45.299   4.871  12.825  0.00  0.00    +0.000 A 
ENDROOT
BRANCH   6   8
ATOM      8  C   UNL     1      47.014   4.677  14.654  0.00  0.00    +0.000 A 
ATOM      9  C   UNL     1      47.338   3.325  14.523  0.00  0.00    +0.000 A 
ATOM     10  N   UNL     1      47.969   2.583  15.465  0.00  0.00    +0.000 NA
ATOM     11  C   UNL     1      48.322   3.223  16.599  0.00  0.00    +0.000 A 
ATOM     12  C   UNL     1      48.090   4.568  16.840  0.00  0.00    +0.000 A 
ATOM     13  C   UNL     1      47.384   5.281  15.872  0.00  0.00    +0.000 A 
BRANCH  12  14
ATOM     14  O   UNL     1      48.519   5.053  18.034  0.00  0.00    +0.000 OA
BRANCH  14  15
ATOM     15  C   UNL     1      47.619   5.800  18.842  0.00  0.00    +0.000 C 
ATOM     16  F   UNL     1      46.330   5.413  18.742  0.00  0.00    +0.000 F 
ATOM     17  F   UNL     1      48.001   5.701  20.134  0.00  0.00    +0.000 F 
ATOM     18  F   UNL     1      47.689   7.100  18.479  0.00  0.00    +0.000 F 
ENDBRANCH  14  15
ENDBRANCH  12  14
ENDBRANCH   6   8
BRANCH   1  19
ATOM     19  C   UNL     1      43.570   4.897  10.975  0.00  0.00    +0.000 C 
BRANCH  19  24
ATOM     20  C   UNL     1      46.235   2.052   7.928  0.00  0.00    +0.000 A 
ATOM     21  C   UNL     1      45.678   1.922   9.174  0.00  0.00    +0.000 A 
ATOM     22  N   UNL     1      44.904   2.868   9.754  0.00  0.00    +0.000 NA
ATOM     23  C   UNL     1      44.709   4.005   9.065  0.00  0.00    +0.000 A 
ATOM     24  N   UNL     1      43.879   4.986   9.571  0.00  0.00    +0.000 N 
ATOM     25  N   UNL     1      45.261   4.251   7.872  0.00  0.00    +0.000 NA
ATOM     26  C   UNL     1      46.006   3.264   7.316  0.00  0.00    +0.000 A 
ATOM     27  H   UNL     1      44.166   5.885   9.204  0.00  0.00    +0.000 HD
BRANCH  20  29
ATOM     28  N   UNL     1      46.776  -0.293   7.607  0.00  0.00    +0.000 N 
ATOM     29  C   UNL     1      47.028   1.005   7.269  0.00  0.00    +0.000 C 
ATOM     30  O   UNL     1      47.875   1.293   6.432  0.00  0.00    +0.000 OA
ATOM     31  H   UNL     1      47.271  -0.996   7.068  0.00  0.00    +0.000 HD
ATOM     32  H   UNL     1      45.940  -0.594   8.084  0.00  0.00    +0.000 HD
ENDBRANCH  20  29
ENDBRANCH  19  24
ENDBRANCH   1  19
TORSDOF 6
ENDMDL
MODEL 2
REMARK VINA RESULT:    -8.466      3.055      4.841
REMARK INTER + INTRA:         -12.139
REMARK INTER:                 -11.350
REMARK INTRA:                  -0.790
REMARK UNBOUND:                -0.703
REMARK  Name = 
REMARK  6 active torsions:
REMARK  status: ('A' for Active; 'I' for Inactive)
REMARK    1  A    between atoms: C_2  and  C_4
REMARK    2  A    between atoms: N_8  and  C_9
REMARK    3  A    between atoms: C_9  and  C_10
REMARK    4  A    between atoms: C_15  and  C_16
REMARK    5  A    between atoms: C_20  and  O_21
REMARK    6  A    between atoms: O_21  and  C_22
REMARK                            x       y       z     vdW  Elec       q    Type
REMARK                         _______ _______ _______ _____ _____    ______ ____
ROOT
ATOM      1  C   UNL     1      44.630   4.858  11.876  0.00  0.00    +0.000 A 
ATOM      2  C   UNL     1      45.049   4.017  12.913  0.00  0.00    +0.000 A 
ATOM      3  C   UNL     1      46.094   4.407  13.744  0.00  0.00    +0.000 A 
ATOM      4  C   UNL     1      46.726   5.634  13.544  0.00  0.00    +0.000 A 
ATOM      5  F   UNL     1      47.707   5.971  14.396  0.00  0.00    +0.000 F 
ATOM      6  C   UNL     1      46.355   6.504  12.504  0.00  0.00    +0.000 A 
ATOM      7  C   UNL     1      45.305   6.076  11.667  0.00  0.00    +0.000 A 
ENDROOT
BRANCH   6   8
ATOM      8  C   UNL     1      47.027   7.805  12.277  0.00  0.00    +0.000 A 
ATOM      9  C   UNL     1      46.404   9.028  12.533  0.00  0.00    +0.000 A 
ATOM     10  N   UNL     1      46.978  10.243  12.361  0.00  0.00    +0.000 NA
ATOM     11  C   UNL     1      48.256  10.249  11.929  0.00  0.00    +0.000 A 
ATOM     12  C   UNL     1      48.997   9.106  11.669  0.00  0.00    +0.000 A 
ATOM     13  C   UNL     1      48.349   7.879  11.800  0.00  0.00    +0.000 A 
BRANCH  12  14
ATOM     14  O   UNL     1      50.274   9.295  11.246  0.00  0.00    +0.000 OA
BRANCH  14  15
ATOM     15  C   UNL     1      51.310   8.488  11.792  0.00  0.00    +0.000 C 
ATOM     16  F   UNL     1      51.090   8.083  13.060  0.00  0.00    +0.000 F 
ATOM     17  F   UNL     1      51.475   7.398  11.012  0.00  0.00    +0.000 F 
ATOM     18  F   UNL     1      52.462   9.196  11.778  0.00  0.00    +0.000 F 
ENDBRANCH  14  15
ENDBRANCH  12  14
ENDBRANCH   6   8
BRANCH   1  19
ATOM     19  C   UNL     1      43.486   4.457  10.973  0.00  0.00    +0.000 C 
BRANCH  19  24
ATOM     20  C   UNL     1      46.409   2.271   7.633  0.00  0.00    +0.000 A 
ATOM     21  C   UNL     1      45.840   1.925   8.831  0.00  0.00    +0.000 A 
ATOM     22  N   UNL     1      44.987   2.722   9.516  0.00  0.00    +0.000 NA
ATOM     23  C   UNL     1      44.723   3.929   8.991  0.00  0.00    +0.000 A 
ATOM     24  N   UNL     1      43.814   4.767   9.606  0.00  0.00    +0.000 N 
ATOM     25  N   UNL     1      45.279   4.382   7.861  0.00  0.00    +0.000 NA
ATOM     26  C   UNL     1      46.104   3.539   7.193  0.00  0.00    +0.000 A 
ATOM     27  H   UNL     1      44.041   5.727   9.379  0.00  0.00    +0.000 HD
BRANCH  20  29
ATOM     28  N   UNL     1      48.272   1.966   6.105  0.00  0.00    +0.000 N 
ATOM     29  C   UNL     1      47.289   1.388   6.855  0.00  0.00    +0.000 C 
ATOM     30  O   UNL     1      47.150   0.172   6.895  0.00  0.00    +0.000 OA
ATOM     31  H   UNL     1      48.921   1.328   5.657  0.00  0.00    +0.000 HD
ATOM     32  H   UNL     1      48.586   2.917   6.233  0.00  0.00    +0.000 HD
ENDBRANCH  20  29
ENDBRANCH  19  24
ENDBRANCH   1  19
TORSDOF 6
ENDMDL
MODEL 3
REMARK VINA RESULT:    -8.405      3.635      8.978
REMARK INTER + INTRA:         -12.057
REMARK INTER:                 -11.087
REMARK INTRA:                  -0.969
REMARK UNBOUND:                -0.703
REMARK  Name = 
REMARK  6 active torsions:
REMARK  status: ('A' for Active; 'I' for Inactive)
REMARK    1  A    between atoms: C_2  and  C_4
REMARK    2  A    between atoms: N_8  and  C_9
REMARK    3  A    between atoms: C_9  and  C_10
REMARK    4  A    between atoms: C_15  and  C_16
REMARK    5  A    between atoms: C_20  and  O_21
REMARK    6  A    between atoms: O_21  and  C_22
REMARK                            x       y       z     vdW  Elec       q    Type
REMARK                         _______ _______ _______ _____ _____    ______ ____
ROOT
ATOM      1  C   UNL     1      47.631   7.293  13.259  0.00  0.00    +0.000 A 
ATOM      2  C   UNL     1      46.933   8.499  13.386  0.00  0.00    +0.000 A 
ATOM      3  C   UNL     1      45.707   8.662  12.749  0.00  0.00    +0.000 A 
ATOM      4  C   UNL     1      45.173   7.626  11.983  0.00  0.00    +0.000 A 
ATOM      5  F   UNL     1      43.973   7.828  11.417  0.00  0.00    +0.000 F 
ATOM      6  C   UNL     1      45.846   6.404  11.808  0.00  0.00    +0.000 A 
ATOM      7  C   UNL     1      47.094   6.273  12.451  0.00  0.00    +0.000 A 
ENDROOT
BRANCH   6   8
ATOM      8  C   UNL     1      45.293   5.301  10.988  0.00  0.00    +0.000 A 
ATOM      9  C   UNL     1      44.405   4.353  11.502  0.00  0.00    +0.000 A 
ATOM     10  N   UNL     1      43.856   3.338  10.792  0.00  0.00    +0.000 NA
ATOM     11  C   UNL     1      44.190   3.267   9.487  0.00  0.00    +0.000 A 
ATOM     12  C   UNL     1      45.034   4.163   8.847  0.00  0.00    +0.000 A 
ATOM     13  C   UNL     1      45.625   5.156   9.627  0.00  0.00    +0.000 A 
BRANCH  12  14
ATOM     14  O   UNL     1      45.256   3.948   7.525  0.00  0.00    +0.000 OA
BRANCH  14  15
ATOM     15  C   UNL     1      46.444   3.277   7.122  0.00  0.00    +0.000 C 
ATOM     16  F   UNL     1      46.737   2.180   7.852  0.00  0.00    +0.000 F 
ATOM     17  F   UNL     1      46.327   2.916   5.826  0.00  0.00    +0.000 F 
ATOM     18  F   UNL     1      47.482   4.135   7.231  0.00  0.00    +0.000 F 
ENDBRANCH  14  15
ENDBRANCH  12  14
ENDBRANCH   6   8
BRANCH   1  19
ATOM     19  C   UNL     1      48.957   7.094  13.956  0.00  0.00    +0.000 C 
BRANCH  19  24
ATOM     20  C   UNL     1      48.778   5.218  18.531  0.00  0.00    +0.000 A 
ATOM     21  C   UNL     1      49.077   4.750  17.277  0.00  0.00    +0.000 A 
ATOM     22  N   UNL     1      49.125   5.533  16.175  0.00  0.00    +0.000 NA
ATOM     23  C   UNL     1      48.826   6.833  16.334  0.00  0.00    +0.000 A 
ATOM     24  N   UNL     1      48.915   7.699  15.263  0.00  0.00    +0.000 N 
ATOM     25  N   UNL     1      48.460   7.369  17.504  0.00  0.00    +0.000 NA
ATOM     26  C   UNL     1      48.454   6.555  18.587  0.00  0.00    +0.000 A 
ATOM     27  H   UNL     1      48.278   8.473  15.407  0.00  0.00    +0.000 HD
BRANCH  20  29
ATOM     28  N   UNL     1      48.362   3.091  19.627  0.00  0.00    +0.000 N 
ATOM     29  C   UNL     1      48.782   4.385  19.742  0.00  0.00    +0.000 C 
ATOM     30  O   UNL     1      49.165   4.838  20.813  0.00  0.00    +0.000 OA
ATOM     31  H   UNL     1      48.466   2.516  20.457  0.00  0.00    +0.000 HD
ATOM     32  H   UNL     1      48.282   2.606  18.746  0.00  0.00    +0.000 HD
ENDBRANCH  20  29
ENDBRANCH  19  24
ENDBRANCH   1  19
TORSDOF 6
ENDMDL
MODEL 4
REMARK VINA RESULT:    -8.246      3.776      8.836
REMARK INTER + INTRA:         -11.841
REMARK INTER:                 -10.982
REMARK INTRA:                  -0.859
REMARK UNBOUND:                -0.703
REMARK  Name = 
REMARK  6 active torsions:
REMARK  status: ('A' for Active; 'I' for Inactive)
REMARK    1  A    between atoms: C_2  and  C_4
REMARK    2  A    between atoms: N_8  and  C_9
REMARK    3  A    between atoms: C_9  and  C_10
REMARK    4  A    between atoms: C_15  and  C_16
REMARK    5  A    between atoms: C_20  and  O_21
REMARK    6  A    between atoms: O_21  and  C_22
REMARK                            x       y       z     vdW  Elec       q    Type
REMARK                         _______ _______ _______ _____ _____    ______ ____
ROOT
ATOM      1  C   UNL     1      47.303   7.339  13.629  0.00  0.00    +0.000 A 
ATOM      2  C   UNL     1      46.718   8.601  13.488  0.00  0.00    +0.000 A 
ATOM      3  C   UNL     1      45.657   8.781  12.608  0.00  0.00    +0.000 A 
ATOM      4  C   UNL     1      45.176   7.704  11.862  0.00  0.00    +0.000 A 
ATOM      5  F   UNL     1      44.130   7.929  11.052  0.00  0.00    +0.000 F 
ATOM      6  C   UNL     1      45.744   6.421  11.954  0.00  0.00    +0.000 A 
ATOM      7  C   UNL     1      46.829   6.272  12.842  0.00  0.00    +0.000 A 
ENDROOT
BRANCH   6   8
ATOM      8  C   UNL     1      45.248   5.272  11.160  0.00  0.00    +0.000 A 
ATOM      9  C   UNL     1      44.491   4.242  11.720  0.00  0.00    +0.000 A 
ATOM     10  N   UNL     1      43.998   3.181  11.037  0.00  0.00    +0.000 NA
ATOM     11  C   UNL     1      44.250   3.148   9.712  0.00  0.00    +0.000 A 
ATOM     12  C   UNL     1      44.960   4.123   9.029  0.00  0.00    +0.000 A 
ATOM     13  C   UNL     1      45.502   5.166   9.779  0.00  0.00    +0.000 A 
BRANCH  12  14
ATOM     14  O   UNL     1      45.116   3.935   7.692  0.00  0.00    +0.000 OA
BRANCH  14  15
ATOM     15  C   UNL     1      46.329   3.373   7.209  0.00  0.00    +0.000 C 
ATOM     16  F   UNL     1      46.766   2.307   7.911  0.00  0.00    +0.000 F 
ATOM     17  F   UNL     1      46.160   3.003   5.921  0.00  0.00    +0.000 F 
ATOM     18  F   UNL     1      47.293   4.320   7.253  0.00  0.00    +0.000 F 
ENDBRANCH  14  15
ENDBRANCH  12  14
ENDBRANCH   6   8
BRANCH   1  19
ATOM     19  C   UNL     1      48.447   7.123  14.593  0.00  0.00    +0.000 C 
BRANCH  19  24
ATOM     20  C   UNL     1      51.104   4.410  17.765  0.00  0.00    +0.000 A 
ATOM     21  C   UNL     1      51.299   5.551  17.029  0.00  0.00    +0.000 A 
ATOM     22  N   UNL     1      50.335   6.135  16.280  0.00  0.00    +0.000 NA
ATOM     23  C   UNL     1      49.138   5.529  16.243  0.00  0.00    +0.000 A 
ATOM     24  N   UNL     1      48.093   6.104  15.547  0.00  0.00    +0.000 N 
ATOM     25  N   UNL     1      48.870   4.380  16.875  0.00  0.00    +0.000 NA
ATOM     26  C   UNL     1      49.856   3.846  17.637  0.00  0.00    +0.000 A 
ATOM     27  H   UNL     1      47.451   5.379  15.251  0.00  0.00    +0.000 HD
BRANCH  20  29
ATOM     28  N   UNL     1      52.406   2.479  18.452  0.00  0.00    +0.000 N 
ATOM     29  C   UNL     1      52.128   3.804  18.627  0.00  0.00    +0.000 C 
ATOM     30  O   UNL     1      52.721   4.474  19.463  0.00  0.00    +0.000 OA
ATOM     31  H   UNL     1      53.182   2.113  18.994  0.00  0.00    +0.000 HD
ATOM     32  H   UNL     1      52.141   1.956  17.630  0.00  0.00    +0.000 HD
ENDBRANCH  20  29
ENDBRANCH  19  24
ENDBRANCH   1  19
TORSDOF 6
ENDMDL
MODEL 5
REMARK VINA RESULT:    -7.889      1.752      2.279
REMARK INTER + INTRA:         -11.360
REMARK INTER:                 -10.910
REMARK INTRA:                  -0.450
REMARK UNBOUND:                -0.703
REMARK  Name = 
REMARK  6 active torsions:
REMARK  status: ('A' for Active; 'I' for Inactive)
REMARK    1  A    between atoms: C_2  and  C_4
REMARK    2  A    between atoms: N_8  and  C_9
REMARK    3  A    between atoms: C_9  and  C_10
REMARK    4  A    between atoms: C_15  and  C_16
REMARK    5  A    between atoms: C_20  and  O_21
REMARK    6  A    between atoms: O_21  and  C_22
REMARK                            x       y       z     vdW  Elec       q    Type
REMARK                         _______ _______ _______ _____ _____    ______ ____
ROOT
ATOM      1  C   UNL     1      44.271   5.709  11.432  0.00  0.00    +0.000 A 
ATOM      2  C   UNL     1      44.055   7.052  11.106  0.00  0.00    +0.000 A 
ATOM      3  C   UNL     1      44.826   8.044  11.704  0.00  0.00    +0.000 A 
ATOM      4  C   UNL     1      45.813   7.702  12.629  0.00  0.00    +0.000 A 
ATOM      5  F   UNL     1      46.546   8.698  13.149  0.00  0.00    +0.000 F 
ATOM      6  C   UNL     1      46.054   6.369  13.004  0.00  0.00    +0.000 A 
ATOM      7  C   UNL     1      45.247   5.386  12.395  0.00  0.00    +0.000 A 
ENDROOT
BRANCH   6   8
ATOM      8  C   UNL     1      47.092   5.995  13.992  0.00  0.00    +0.000 A 
ATOM      9  C   UNL     1      48.149   6.841  14.330  0.00  0.00    +0.000 A 
ATOM     10  N   UNL     1      49.113   6.557  15.239  0.00  0.00    +0.000 NA
ATOM     11  C   UNL     1      49.012   5.369  15.871  0.00  0.00    +0.000 A 
ATOM     12  C   UNL     1      47.994   4.453  15.652  0.00  0.00    +0.000 A 
ATOM     13  C   UNL     1      47.058   4.758  14.665  0.00  0.00    +0.000 A 
BRANCH  12  14
ATOM     14  O   UNL     1      48.043   3.308  16.381  0.00  0.00    +0.000 OA
BRANCH  14  15
ATOM     15  C   UNL     1      47.493   3.299  17.693  0.00  0.00    +0.000 C 
ATOM     16  F   UNL     1      46.862   4.441  18.039  0.00  0.00    +0.000 F 
ATOM     17  F   UNL     1      46.620   2.274  17.797  0.00  0.00    +0.000 F 
ATOM     18  F   UNL     1      48.494   3.095  18.579  0.00  0.00    +0.000 F 
ENDBRANCH  14  15
ENDBRANCH  12  14
ENDBRANCH   6   8
BRANCH   1  19
ATOM     19  C   UNL     1      43.454   4.617  10.781  0.00  0.00    +0.000 C 
BRANCH  19  24
ATOM     20  C   UNL     1      46.499   2.887   7.286  0.00  0.00    +0.000 A 
ATOM     21  C   UNL     1      45.926   4.094   7.595  0.00  0.00    +0.000 A 
ATOM     22  N   UNL     1      45.170   4.307   8.696  0.00  0.00    +0.000 NA
ATOM     23  C   UNL     1      44.954   3.255   9.503  0.00  0.00    +0.000 A 
ATOM     24  N   UNL     1      44.243   3.417  10.675  0.00  0.00    +0.000 N 
ATOM     25  N   UNL     1      45.417   2.024   9.253  0.00  0.00    +0.000 NA
ATOM     26  C   UNL     1      46.193   1.863   8.154  0.00  0.00    +0.000 A 
ATOM     27  H   UNL     1      43.806   2.538  10.923  0.00  0.00    +0.000 HD
BRANCH  20  29
ATOM     28  N   UNL     1      48.662   2.289   6.356  0.00  0.00    +0.000 N 
ATOM     29  C   UNL     1      47.369   2.663   6.123  0.00  0.00    +0.000 C 
ATOM     30  O   UNL     1      46.940   2.795   4.984  0.00  0.00    +0.000 OA
ATOM     31  H   UNL     1      49.209   2.051   5.535  0.00  0.00    +0.000 HD
ATOM     32  H   UNL     1      48.988   1.927   7.240  0.00  0.00    +0.000 HD
ENDBRANCH  20  29
ENDBRANCH  19  24
ENDBRANCH   1  19
TORSDOF 6
ENDMDL
MODEL 6
REMARK VINA RESULT:    -7.154      5.212      8.222
REMARK INTER + INTRA:         -10.366
REMARK INTER:                  -9.560
REMARK INTRA:                  -0.806
REMARK UNBOUND:                -0.703
REMARK  Name = 
REMARK  6 active torsions:
REMARK  status: ('A' for Active; 'I' for Inactive)
REMARK    1  A    between atoms: C_2  and  C_4
REMARK    2  A    between atoms: N_8  and  C_9
REMARK    3  A    between atoms: C_9  and  C_10
REMARK    4  A    between atoms: C_15  and  C_16
REMARK    5  A    between atoms: C_20  and  O_21
REMARK    6  A    between atoms: O_21  and  C_22
REMARK                            x       y       z     vdW  Elec       q    Type
REMARK                         _______ _______ _______ _____ _____    ______ ____
ROOT
ATOM      1  C   UNL     1      46.903   7.219  12.915  0.00  0.00    +0.000 A 
ATOM      2  C   UNL     1      45.983   8.267  13.025  0.00  0.00    +0.000 A 
ATOM      3  C   UNL     1      44.753   8.182  12.380  0.00  0.00    +0.000 A 
ATOM      4  C   UNL     1      44.436   7.054  11.622  0.00  0.00    +0.000 A 
ATOM      5  F   UNL     1      43.224   7.014  11.049  0.00  0.00    +0.000 F 
ATOM      6  C   UNL     1      45.335   5.985  11.465  0.00  0.00    +0.000 A 
ATOM      7  C   UNL     1      46.580   6.105  12.115  0.00  0.00    +0.000 A 
ENDROOT
BRANCH   6   8
ATOM      8  C   UNL     1      45.014   4.787  10.654  0.00  0.00    +0.000 A 
ATOM      9  C   UNL     1      44.271   3.716  11.156  0.00  0.00    +0.000 A 
ATOM     10  N   UNL     1      43.933   2.608  10.453  0.00  0.00    +0.000 NA
ATOM     11  C   UNL     1      44.336   2.566   9.166  0.00  0.00    +0.000 A 
ATOM     12  C   UNL     1      45.050   3.575   8.539  0.00  0.00    +0.000 A 
ATOM     13  C   UNL     1      45.430   4.670   9.314  0.00  0.00    +0.000 A 
BRANCH  12  14
ATOM     14  O   UNL     1      45.369   3.371   7.234  0.00  0.00    +0.000 OA
BRANCH  14  15
ATOM     15  C   UNL     1      46.739   3.285   6.862  0.00  0.00    +0.000 C 
ATOM     16  F   UNL     1      47.389   2.219   7.374  0.00  0.00    +0.000 F 
ATOM     17  F   UNL     1      46.827   3.239   5.515  0.00  0.00    +0.000 F 
ATOM     18  F   UNL     1      47.373   4.400   7.289  0.00  0.00    +0.000 F 
ENDBRANCH  14  15
ENDBRANCH  12  14
ENDBRANCH   6   8
BRANCH   1  19
ATOM     19  C   UNL     1      48.237   7.288  13.621  0.00  0.00    +0.000 C 
BRANCH  19  24
ATOM     20  C   UNL     1      51.934   8.678  10.640  0.00  0.00    +0.000 A 
ATOM     21  C   UNL     1      51.117   7.583  10.765  0.00  0.00    +0.000 A 
ATOM     22  N   UNL     1      50.100   7.502  11.653  0.00  0.00    +0.000 NA
ATOM     23  C   UNL     1      49.917   8.551  12.472  0.00  0.00    +0.000 A 
ATOM     24  N   UNL     1      48.860   8.560  13.360  0.00  0.00    +0.000 N 
ATOM     25  N   UNL     1      50.701   9.636  12.470  0.00  0.00    +0.000 NA
ATOM     26  C   UNL     1      51.690   9.687  11.544  0.00  0.00    +0.000 A 
ATOM     27  H   UNL     1      49.096   9.144  14.152  0.00  0.00    +0.000 HD
BRANCH  20  29
ATOM     28  N   UNL     1      53.936   7.801   9.582  0.00  0.00    +0.000 N 
ATOM     29  C   UNL     1      53.003   8.796   9.638  0.00  0.00    +0.000 C 
ATOM     30  O   UNL     1      53.041   9.750   8.872  0.00  0.00    +0.000 OA
ATOM     31  H   UNL     1      54.603   7.863   8.820  0.00  0.00    +0.000 HD
ATOM     32  H   UNL     1      53.810   6.893  10.003  0.00  0.00    +0.000 HD
ENDBRANCH  20  29
ENDBRANCH  19  24
ENDBRANCH   1  19
TORSDOF 6
ENDMDL
MODEL 7
REMARK VINA RESULT:    -6.837      4.050      8.769
REMARK INTER + INTRA:          -9.939
REMARK INTER:                  -9.216
REMARK INTRA:                  -0.722
REMARK UNBOUND:                -0.703
REMARK  Name = 
REMARK  6 active torsions:
REMARK  status: ('A' for Active; 'I' for Inactive)
REMARK    1  A    between atoms: C_2  and  C_4
REMARK    2  A    between atoms: N_8  and  C_9
REMARK    3  A    between atoms: C_9  and  C_10
REMARK    4  A    between atoms: C_15  and  C_16
REMARK    5  A    between atoms: C_20  and  O_21
REMARK    6  A    between atoms: O_21  and  C_22
REMARK                            x       y       z     vdW  Elec       q    Type
REMARK                         _______ _______ _______ _____ _____    ______ ____
ROOT
ATOM      1  C   UNL     1      48.290   8.449  12.778  0.00  0.00    +0.000 A 
ATOM      2  C   UNL     1      47.566   9.610  12.487  0.00  0.00    +0.000 A 
ATOM      3  C   UNL     1      46.243   9.516  12.069  0.00  0.00    +0.000 A 
ATOM      4  C   UNL     1      45.636   8.266  11.938  0.00  0.00    +0.000 A 
ATOM      5  F   UNL     1      44.349   8.238  11.562  0.00  0.00    +0.000 F 
ATOM      6  C   UNL     1      46.329   7.071  12.199  0.00  0.00    +0.000 A 
ATOM      7  C   UNL     1      47.673   7.195  12.605  0.00  0.00    +0.000 A 
ENDROOT
BRANCH   6   8
ATOM      8  C   UNL     1      45.699   5.738  12.053  0.00  0.00    +0.000 A 
ATOM      9  C   UNL     1      45.567   4.847  13.120  0.00  0.00    +0.000 A 
ATOM     10  N   UNL     1      44.983   3.626  13.046  0.00  0.00    +0.000 NA
ATOM     11  C   UNL     1      44.478   3.273  11.847  0.00  0.00    +0.000 A 
ATOM     12  C   UNL     1      44.513   4.078  10.718  0.00  0.00    +0.000 A 
ATOM     13  C   UNL     1      45.177   5.299  10.821  0.00  0.00    +0.000 A 
BRANCH  12  14
ATOM     14  O   UNL     1      43.949   3.567   9.592  0.00  0.00    +0.000 OA
BRANCH  14  15
ATOM     15  C   UNL     1      44.727   2.729   8.747  0.00  0.00    +0.000 C 
ATOM     16  F   UNL     1      44.448   1.414   8.860  0.00  0.00    +0.000 F 
ATOM     17  F   UNL     1      44.539   3.103   7.463  0.00  0.00    +0.000 F 
ATOM     18  F   UNL     1      46.033   2.902   9.050  0.00  0.00    +0.000 F 
ENDBRANCH  14  15
ENDBRANCH  12  14
ENDBRANCH   6   8
BRANCH   1  19
ATOM     19  C   UNL     1      49.724   8.533  13.248  0.00  0.00    +0.000 C 
BRANCH  19  24
ATOM     20  C   UNL     1      49.514   7.169  17.999  0.00  0.00    +0.000 A 
ATOM     21  C   UNL     1      48.973   8.165  17.227  0.00  0.00    +0.000 A 
ATOM     22  N   UNL     1      49.143   8.255  15.888  0.00  0.00    +0.000 NA
ATOM     23  C   UNL     1      49.916   7.323  15.307  0.00  0.00    +0.000 A 
ATOM     24  N   UNL     1      50.082   7.319  13.936  0.00  0.00    +0.000 N 
ATOM     25  N   UNL     1      50.538   6.351  15.983  0.00  0.00    +0.000 NA
ATOM     26  C   UNL     1      50.316   6.282  17.319  0.00  0.00    +0.000 A 
ATOM     27  H   UNL     1      50.970   6.890  13.710  0.00  0.00    +0.000 HD
BRANCH  20  29
ATOM     28  N   UNL     1      48.671   5.897  19.889  0.00  0.00    +0.000 N 
ATOM     29  C   UNL     1      49.284   7.033  19.444  0.00  0.00    +0.000 C 
ATOM     30  O   UNL     1      49.648   7.906  20.222  0.00  0.00    +0.000 OA
ATOM     31  H   UNL     1      48.612   5.790  20.896  0.00  0.00    +0.000 HD
ATOM     32  H   UNL     1      48.585   5.056  19.337  0.00  0.00    +0.000 HD
ENDBRANCH  20  29
ENDBRANCH  19  24
ENDBRANCH   1  19
TORSDOF 6
ENDMDL
MODEL 8
REMARK VINA RESULT:    -6.770      5.914      7.863
REMARK INTER + INTRA:          -9.848
REMARK INTER:                  -8.967
REMARK INTRA:                  -0.881
REMARK UNBOUND:                -0.703
REMARK  Name = 
REMARK  6 active torsions:
REMARK  status: ('A' for Active; 'I' for Inactive)
REMARK    1  A    between atoms: C_2  and  C_4
REMARK    2  A    between atoms: N_8  and  C_9
REMARK    3  A    between atoms: C_9  and  C_10
REMARK    4  A    between atoms: C_15  and  C_16
REMARK    5  A    between atoms: C_20  and  O_21
REMARK    6  A    between atoms: O_21  and  C_22
REMARK                            x       y       z     vdW  Elec       q    Type
REMARK                         _______ _______ _______ _____ _____    ______ ____
ROOT
ATOM      1  C   UNL     1      48.764   8.360  12.353  0.00  0.00    +0.000 A 
ATOM      2  C   UNL     1      48.008   9.530  12.227  0.00  0.00    +0.000 A 
ATOM      3  C   UNL     1      46.627   9.453  12.085  0.00  0.00    +0.000 A 
ATOM      4  C   UNL     1      45.993   8.210  12.065  0.00  0.00    +0.000 A 
ATOM      5  F   UNL     1      44.656   8.198  11.957  0.00  0.00    +0.000 F 
ATOM      6  C   UNL     1      46.711   7.006  12.167  0.00  0.00    +0.000 A 
ATOM      7  C   UNL     1      48.111   7.113  12.293  0.00  0.00    +0.000 A 
ENDROOT
BRANCH   6   8
ATOM      8  C   UNL     1      46.050   5.680  12.136  0.00  0.00    +0.000 A 
ATOM      9  C   UNL     1      46.032   4.822  13.238  0.00  0.00    +0.000 A 
ATOM     10  N   UNL     1      45.427   3.611  13.270  0.00  0.00    +0.000 NA
ATOM     11  C   UNL     1      44.780   3.232  12.149  0.00  0.00    +0.000 A 
ATOM     12  C   UNL     1      44.694   4.002  10.999  0.00  0.00    +0.000 A 
ATOM     13  C   UNL     1      45.382   5.215  10.987  0.00  0.00    +0.000 A 
BRANCH  12  14
ATOM     14  O   UNL     1      43.995   3.470   9.963  0.00  0.00    +0.000 OA
BRANCH  14  15
ATOM     15  C   UNL     1      44.679   2.672   9.005  0.00  0.00    +0.000 C 
ATOM     16  F   UNL     1      44.440   3.017   7.722  0.00  0.00    +0.000 F 
ATOM     17  F   UNL     1      46.008   2.751   9.234  0.00  0.00    +0.000 F 
ATOM     18  F   UNL     1      44.299   1.385   9.164  0.00  0.00    +0.000 F 
ENDBRANCH  14  15
ENDBRANCH  12  14
ENDBRANCH   6   8
BRANCH   1  19
ATOM     19  C   UNL     1      50.264   8.426  12.523  0.00  0.00    +0.000 C 
BRANCH  19  24
ATOM     20  C   UNL     1      53.335   8.655   8.651  0.00  0.00    +0.000 A 
ATOM     21  C   UNL     1      52.905   9.514   9.629  0.00  0.00    +0.000 A 
ATOM     22  N   UNL     1      52.094   9.148  10.648  0.00  0.00    +0.000 NA
ATOM     23  C   UNL     1      51.670   7.873  10.664  0.00  0.00    +0.000 A 
ATOM     24  N   UNL     1      50.890   7.417  11.708  0.00  0.00    +0.000 N 
ATOM     25  N   UNL     1      51.983   6.978   9.720  0.00  0.00    +0.000 NA
ATOM     26  C   UNL     1      52.821   7.381   8.734  0.00  0.00    +0.000 A 
ATOM     27  H   UNL     1      50.320   6.646  11.384  0.00  0.00    +0.000 HD
BRANCH  20  29
ATOM     28  N   UNL     1      55.555   8.600   7.667  0.00  0.00    +0.000 N 
ATOM     29  C   UNL     1      54.263   9.032   7.576  0.00  0.00    +0.000 C 
ATOM     30  O   UNL     1      53.881   9.700   6.623  0.00  0.00    +0.000 OA
ATOM     31  H   UNL     1      56.145   8.795   6.866  0.00  0.00    +0.000 HD
ATOM     32  H   UNL     1      55.852   7.855   8.280  0.00  0.00    +0.000 HD
ENDBRANCH  20  29
ENDBRANCH  19  24
ENDBRANCH   1  19
TORSDOF 6
ENDMDL
MODEL 9
REMARK VINA RESULT:    -6.152      5.668      6.914
REMARK INTER + INTRA:          -9.013
REMARK INTER:                  -8.026
REMARK INTRA:                  -0.986
REMARK UNBOUND:                -0.703
REMARK  Name = 
REMARK  6 active torsions:
REMARK  status: ('A' for Active; 'I' for Inactive)
REMARK    1  A    between atoms: C_2  and  C_4
REMARK    2  A    between atoms: N_8  and  C_9
REMARK    3  A    between atoms: C_9  and  C_10
REMARK    4  A    between atoms: C_15  and  C_16
REMARK    5  A    between atoms: C_20  and  O_21
REMARK    6  A    between atoms: O_21  and  C_22
REMARK                            x       y       z     vdW  Elec       q    Type
REMARK                         _______ _______ _______ _____ _____    ______ ____
ROOT
ATOM      1  C   UNL     1      49.980   9.539  11.245  0.00  0.00    +0.000 A 
ATOM      2  C   UNL     1      49.231  10.715  11.356  0.00  0.00    +0.000 A 
ATOM      3  C   UNL     1      47.942  10.671  11.876  0.00  0.00    +0.000 A 
ATOM      4  C   UNL     1      47.392   9.456  12.284  0.00  0.00    +0.000 A 
ATOM      5  F   UNL     1      46.156   9.479  12.805  0.00  0.00    +0.000 F 
ATOM      6  C   UNL     1      48.096   8.244  12.172  0.00  0.00    +0.000 A 
ATOM      7  C   UNL     1      49.395   8.316  11.628  0.00  0.00    +0.000 A 
ENDROOT
BRANCH   6   8
ATOM      8  C   UNL     1      47.519   6.946  12.593  0.00  0.00    +0.000 A 
ATOM      9  C   UNL     1      47.958   6.260  13.727  0.00  0.00    +0.000 A 
ATOM     10  N   UNL     1      47.452   5.082  14.166  0.00  0.00    +0.000 NA
ATOM     11  C   UNL     1      46.434   4.560  13.451  0.00  0.00    +0.000 A 
ATOM     12  C   UNL     1      45.884   5.157  12.326  0.00  0.00    +0.000 A 
ATOM     13  C   UNL     1      46.474   6.336  11.873  0.00  0.00    +0.000 A 
BRANCH  12  14
ATOM     14  O   UNL     1      44.857   4.497  11.731  0.00  0.00    +0.000 OA
BRANCH  14  15
ATOM     15  C   UNL     1      43.552   4.602  12.288  0.00  0.00    +0.000 C 
ATOM     16  F   UNL     1      43.396   5.630  13.148  0.00  0.00    +0.000 F 
ATOM     17  F   UNL     1      42.656   4.736  11.286  0.00  0.00    +0.000 F 
ATOM     18  F   UNL     1      43.274   3.459  12.954  0.00  0.00    +0.000 F 
ENDBRANCH  14  15
ENDBRANCH  12  14
ENDBRANCH   6   8
BRANCH   1  19
ATOM     19  C   UNL     1      51.388   9.571  10.698  0.00  0.00    +0.000 C 
BRANCH  19  24
ATOM     20  C   UNL     1      53.645   5.935   8.215  0.00  0.00    +0.000 A 
ATOM     21  C   UNL     1      53.185   7.195   7.930  0.00  0.00    +0.000 A 
ATOM     22  N   UNL     1      52.662   8.031   8.856  0.00  0.00    +0.000 NA
ATOM     23  C   UNL     1      52.567   7.569  10.113  0.00  0.00    +0.000 A 
ATOM     24  N   UNL     1      52.099   8.391  11.119  0.00  0.00    +0.000 N 
ATOM     25  N   UNL     1      52.929   6.333  10.476  0.00  0.00    +0.000 NA
ATOM     26  C   UNL     1      53.475   5.540   9.522  0.00  0.00    +0.000 A 
ATOM     27  H   UNL     1      51.687   7.823  11.848  0.00  0.00    +0.000 HD
BRANCH  20  29
ATOM     28  N   UNL     1      53.763   3.783   7.095  0.00  0.00    +0.000 N 
ATOM     29  C   UNL     1      54.268   5.045   7.226  0.00  0.00    +0.000 C 
ATOM     30  O   UNL     1      55.200   5.432   6.532  0.00  0.00    +0.000 OA
ATOM     31  H   UNL     1      54.150   3.226   6.341  0.00  0.00    +0.000 HD
ATOM     32  H   UNL     1      52.859   3.505   7.448  0.00  0.00    +0.000 HD
ENDBRANCH  20  29
ENDBRANCH  19  24
ENDBRANCH   1  19
TORSDOF 6
ENDMDL
