MODEL 1
REMARK VINA RESULT:    -7.795      0.000      0.000
REMARK INTER + INTRA:          -9.501
REMARK INTER:                  -9.618
REMARK INTRA:                   0.118
REMARK UNBOUND:                 0.118
REMARK  Name = 
REMARK  8 active torsions:
REMARK  status: ('A' for Active; 'I' for Inactive)
REMARK    1  A    between atoms: C_1  and  C_2
REMARK    2  A    between atoms: C_4  and  C_5
REMARK    3  A    between atoms: C_10  and  C_11
REMARK    4  A    between atoms: C_11  and  C_12
REMARK    5  A    between atoms: C_15  and  C_16
REMARK    6  A    between atoms: C_16  and  C_17
REMARK    7  A    between atoms: C_16  and  C_18
REMARK    8  A    between atoms: C_16  and  C_19
REMARK                            x       y       z     vdW  Elec       q    Type
REMARK                         _______ _______ _______ _____ _____    ______ ____
ROOT
ATOM      1  C   UNL     1      44.398   4.238  11.489  0.00  0.00    +0.000 C 
ATOM      2  C   UNL     1      42.983   4.567  11.975  0.00  0.00    +0.000 C 
ATOM      3  C   UNL     1      43.518   3.203  12.228  0.00  0.00    +0.000 C 
ENDROOT
BRANCH   1  10
ATOM      4  C   UNL     1      45.107   7.229  11.467  0.00  0.00    +0.000 C 
ATOM      5  C   UNL     1      45.845   6.236  12.324  0.00  0.00    +0.000 A 
ATOM      6  C   UNL     1      46.828   6.706  13.208  0.00  0.00    +0.000 A 
ATOM      7  C   UNL     1      47.525   5.789  13.981  0.00  0.00    +0.000 A 
ATOM      8  N   UNL     1      47.337   4.447  13.913  0.00  0.00    +0.000 NA
ATOM      9  C   UNL     1      46.372   4.031  13.066  0.00  0.00    +0.000 A 
ATOM     10  C   UNL     1      45.560   4.853  12.270  0.00  0.00    +0.000 A 
BRANCH   7  11
ATOM     11  C   UNL     1      48.534   6.255  14.987  0.00  0.00    +0.000 C 
ATOM     12  N   UNL     1      48.170   6.061  16.291  0.00  0.00    +0.000 N 
ATOM     13  O   UNL     1      49.586   6.797  14.682  0.00  0.00    +0.000 OA
ATOM     14  H   UNL     1      47.265   5.639  16.493  0.00  0.00    +0.000 HD
ATOM     15  H   UNL     1      48.761   6.379  17.040  0.00  0.00    +0.000 HD
ENDBRANCH   7  11
ENDBRANCH   1  10
BRANCH   1  16
ATOM     16  C   UNL     1      44.615   3.830  10.034  0.00  0.00    +0.000 A 
ATOM     17  C   UNL     1      45.248   4.697   9.136  0.00  0.00    +0.000 A 
ATOM     18  C   UNL     1      45.903   4.198   8.015  0.00  0.00    +0.000 A 
ATOM     19  C   UNL     1      45.890   2.827   7.785  0.00  0.00    +0.000 A 
ATOM     20  N   UNL     1      45.085   2.006   8.508  0.00  0.00    +0.000 NA
ATOM     21  C   UNL     1      44.469   2.519   9.597  0.00  0.00    +0.000 A 
BRANCH  19  22
ATOM     22  C   UNL     1      46.904   2.136   6.869  0.00  0.00    +0.000 C 
ATOM     23  C   UNL     1      48.319   2.746   6.917  0.00  0.00    +0.000 C 
ATOM     24  C   UNL     1      47.024   0.662   7.327  0.00  0.00    +0.000 C 
ATOM     25  C   UNL     1      46.404   2.177   5.418  0.00  0.00    +0.000 C 
ENDBRANCH  19  22
ENDBRANCH   1  16
TORSDOF 4
ENDMDL
MODEL 2
REMARK VINA RESULT:    -7.469      2.526      6.581
REMARK INTER + INTRA:          -9.098
REMARK INTER:                  -9.072
REMARK INTRA:                  -0.026
REMARK UNBOUND:                 0.118
REMARK  Name = 
REMARK  8 active torsions:
REMARK  status: ('A' for Active; 'I' for Inactive)
REMARK    1  A    between atoms: C_1  and  C_2
REMARK    2  A    between atoms: C_4  and  C_5
REMARK    3  A    between atoms: C_10  and  C_11
REMARK    4  A    between atoms: C_11  and  C_12
REMARK    5  A    between atoms: C_15  and  C_16
REMARK    6  A    between atoms: C_16  and  C_17
REMARK    7  A    between atoms: C_16  and  C_18
REMARK    8  A    between atoms: C_16  and  C_19
REMARK                            x       y       z     vdW  Elec       q    Type
REMARK                         _______ _______ _______ _____ _____    ______ ____
ROOT
ATOM      1  C   UNL     1      44.399   3.707  11.331  0.00  0.00    +0.000 C 
ATOM      2  C   UNL     1      43.335   2.709  11.800  0.00  0.00    +0.000 C 
ATOM      3  C   UNL     1      42.892   4.056  11.349  0.00  0.00    +0.000 C 
ENDROOT
BRANCH   1  10
ATOM      4  C   UNL     1      45.547   5.906   9.515  0.00  0.00    +0.000 C 
ATOM      5  C   UNL     1      45.637   4.446   9.162  0.00  0.00    +0.000 A 
ATOM      6  C   UNL     1      46.348   4.072   8.012  0.00  0.00    +0.000 A 
ATOM      7  C   UNL     1      46.413   2.728   7.673  0.00  0.00    +0.000 A 
ATOM      8  N   UNL     1      45.797   1.742   8.375  0.00  0.00    +0.000 NA
ATOM      9  C   UNL     1      45.137   2.135   9.485  0.00  0.00    +0.000 A 
ATOM     10  C   UNL     1      45.041   3.449   9.968  0.00  0.00    +0.000 A 
BRANCH   7  11
ATOM     11  C   UNL     1      47.219   2.281   6.492  0.00  0.00    +0.000 C 
ATOM     12  N   UNL     1      47.136   3.102   5.401  0.00  0.00    +0.000 N 
ATOM     13  O   UNL     1      47.877   1.251   6.478  0.00  0.00    +0.000 OA
ATOM     14  H   UNL     1      46.543   3.929   5.451  0.00  0.00    +0.000 HD
ATOM     15  H   UNL     1      47.606   2.865   4.544  0.00  0.00    +0.000 HD
ENDBRANCH   7  11
ENDBRANCH   1  10
BRANCH   1  16
ATOM     16  C   UNL     1      45.162   4.531  12.367  0.00  0.00    +0.000 A 
ATOM     17  C   UNL     1      46.342   4.041  12.940  0.00  0.00    +0.000 A 
ATOM     18  C   UNL     1      47.294   4.917  13.452  0.00  0.00    +0.000 A 
ATOM     19  C   UNL     1      47.039   6.283  13.414  0.00  0.00    +0.000 A 
ATOM     20  N   UNL     1      45.808   6.754  13.085  0.00  0.00    +0.000 NA
ATOM     21  C   UNL     1      44.907   5.880  12.581  0.00  0.00    +0.000 A 
BRANCH  19  22
ATOM     22  C   UNL     1      48.148   7.331  13.535  0.00  0.00    +0.000 C 
ATOM     23  C   UNL     1      49.185   7.030  14.636  0.00  0.00    +0.000 C 
ATOM     24  C   UNL     1      48.909   7.369  12.188  0.00  0.00    +0.000 C 
ATOM     25  C   UNL     1      47.531   8.710  13.810  0.00  0.00    +0.000 C 
ENDBRANCH  19  22
ENDBRANCH   1  16
TORSDOF 4
ENDMDL
MODEL 3
REMARK VINA RESULT:    -7.101      1.517      1.902
REMARK INTER + INTRA:          -8.644
REMARK INTER:                  -8.692
REMARK INTRA:                   0.048
REMARK UNBOUND:                 0.118
REMARK  Name = 
REMARK  8 active torsions:
REMARK  status: ('A' for Active; 'I' for Inactive)
REMARK    1  A    between atoms: C_1  and  C_2
REMARK    2  A    between atoms: C_4  and  C_5
REMARK    3  A    between atoms: C_10  and  C_11
REMARK    4  A    between atoms: C_11  and  C_12
REMARK    5  A    between atoms: C_15  and  C_16
REMARK    6  A    between atoms: C_16  and  C_17
REMARK    7  A    between atoms: C_16  and  C_18
REMARK    8  A    between atoms: C_16  and  C_19
REMARK                            x       y       z     vdW  Elec       q    Type
REMARK                         _______ _______ _______ _____ _____    ______ ____
ROOT
ATOM      1  C   UNL     1      44.799   4.307  11.522  0.00  0.00    +0.000 C 
ATOM      2  C   UNL     1      43.654   3.783  12.395  0.00  0.00    +0.000 C 
ATOM      3  C   UNL     1      44.974   3.101  12.475  0.00  0.00    +0.000 C 
ENDROOT
BRANCH   1  10
ATOM      4  C   UNL     1      43.428   7.049  11.296  0.00  0.00    +0.000 C 
ATOM      5  C   UNL     1      44.792   6.882  11.911  0.00  0.00    +0.000 A 
ATOM      6  C   UNL     1      45.416   8.002  12.481  0.00  0.00    +0.000 A 
ATOM      7  C   UNL     1      46.682   7.854  13.028  0.00  0.00    +0.000 A 
ATOM      8  N   UNL     1      47.378   6.689  13.018  0.00  0.00    +0.000 NA
ATOM      9  C   UNL     1      46.740   5.629  12.478  0.00  0.00    +0.000 A 
ATOM     10  C   UNL     1      45.444   5.629  11.943  0.00  0.00    +0.000 A 
BRANCH   7  11
ATOM     11  C   UNL     1      47.356   9.009  13.707  0.00  0.00    +0.000 C 
ATOM     12  N   UNL     1      47.411   8.914  15.070  0.00  0.00    +0.000 N 
ATOM     13  O   UNL     1      47.796   9.978  13.107  0.00  0.00    +0.000 OA
ATOM     14  H   UNL     1      46.996   8.103  15.526  0.00  0.00    +0.000 HD
ATOM     15  H   UNL     1      47.805   9.658  15.620  0.00  0.00    +0.000 HD
ENDBRANCH   7  11
ENDBRANCH   1  10
BRANCH   1  16
ATOM     16  C   UNL     1      44.890   3.868  10.063  0.00  0.00    +0.000 A 
ATOM     17  C   UNL     1      45.430   4.721   9.093  0.00  0.00    +0.000 A 
ATOM     18  C   UNL     1      45.988   4.202   7.929  0.00  0.00    +0.000 A 
ATOM     19  C   UNL     1      45.973   2.826   7.732  0.00  0.00    +0.000 A 
ATOM     20  N   UNL     1      45.246   2.013   8.542  0.00  0.00    +0.000 NA
ATOM     21  C   UNL     1      44.723   2.545   9.671  0.00  0.00    +0.000 A 
BRANCH  19  22
ATOM     22  C   UNL     1      46.910   2.125   6.744  0.00  0.00    +0.000 C 
ATOM     23  C   UNL     1      46.467   2.227   5.271  0.00  0.00    +0.000 C 
ATOM     24  C   UNL     1      48.298   2.800   6.854  0.00  0.00    +0.000 C 
ATOM     25  C   UNL     1      47.036   0.640   7.114  0.00  0.00    +0.000 C 
ENDBRANCH  19  22
ENDBRANCH   1  16
TORSDOF 4
ENDMDL
MODEL 4
REMARK VINA RESULT:    -6.830      2.713      6.850
REMARK INTER + INTRA:          -8.310
REMARK INTER:                  -8.429
REMARK INTRA:                   0.119
REMARK UNBOUND:                 0.118
REMARK  Name = 
REMARK  8 active torsions:
REMARK  status: ('A' for Active; 'I' for Inactive)
REMARK    1  A    between atoms: C_1  and  C_2
REMARK    2  A    between atoms: C_4  and  C_5
REMARK    3  A    between atoms: C_10  and  C_11
REMARK    4  A    between atoms: C_11  and  C_12
REMARK    5  A    between atoms: C_15  and  C_16
REMARK    6  A    between atoms: C_16  and  C_17
REMARK    7  A    between atoms: C_16  and  C_18
REMARK    8  A    between atoms: C_16  and  C_19
REMARK                            x       y       z     vdW  Elec       q    Type
REMARK                         _______ _______ _______ _____ _____    ______ ____
ROOT
ATOM      1  C   UNL     1      44.209   5.426  11.421  0.00  0.00    +0.000 C 
ATOM      2  C   UNL     1      42.746   5.103  11.740  0.00  0.00    +0.000 C 
ATOM      3  C   UNL     1      43.049   6.370  11.023  0.00  0.00    +0.000 C 
ENDROOT
BRANCH   1  10
ATOM      4  C   UNL     1      43.868   2.395  11.039  0.00  0.00    +0.000 C 
ATOM      5  C   UNL     1      44.657   3.241  10.077  0.00  0.00    +0.000 A 
ATOM      6  C   UNL     1      45.177   2.641   8.920  0.00  0.00    +0.000 A 
ATOM      7  C   UNL     1      45.923   3.415   8.044  0.00  0.00    +0.000 A 
ATOM      8  N   UNL     1      46.214   4.724   8.252  0.00  0.00    +0.000 NA
ATOM      9  C   UNL     1      45.684   5.274   9.365  0.00  0.00    +0.000 A 
ATOM     10  C   UNL     1      44.869   4.620  10.302  0.00  0.00    +0.000 A 
BRANCH   7  11
ATOM     11  C   UNL     1      46.438   2.829   6.763  0.00  0.00    +0.000 C 
ATOM     12  N   UNL     1      46.893   1.543   6.867  0.00  0.00    +0.000 N 
ATOM     13  O   UNL     1      46.484   3.450   5.711  0.00  0.00    +0.000 OA
ATOM     14  H   UNL     1      46.867   1.083   7.775  0.00  0.00    +0.000 HD
ATOM     15  H   UNL     1      47.297   1.077   6.073  0.00  0.00    +0.000 HD
ENDBRANCH   7  11
ENDBRANCH   1  10
BRANCH   1  16
ATOM     16  C   UNL     1      45.087   6.064  12.495  0.00  0.00    +0.000 A 
ATOM     17  C   UNL     1      45.923   5.276  13.294  0.00  0.00    +0.000 A 
ATOM     18  C   UNL     1      47.060   5.823  13.881  0.00  0.00    +0.000 A 
ATOM     19  C   UNL     1      47.332   7.172  13.686  0.00  0.00    +0.000 A 
ATOM     20  N   UNL     1      46.412   7.995  13.120  0.00  0.00    +0.000 NA
ATOM     21  C   UNL     1      45.322   7.433  12.551  0.00  0.00    +0.000 A 
BRANCH  19  22
ATOM     22  C   UNL     1      48.726   7.770  13.901  0.00  0.00    +0.000 C 
ATOM     23  C   UNL     1      48.725   9.280  14.216  0.00  0.00    +0.000 C 
ATOM     24  C   UNL     1      49.365   7.049  15.112  0.00  0.00    +0.000 C 
ATOM     25  C   UNL     1      49.590   7.532  12.654  0.00  0.00    +0.000 C 
ENDBRANCH  19  22
ENDBRANCH   1  16
TORSDOF 4
ENDMDL
MODEL 5
REMARK VINA RESULT:    -6.555      1.429      2.060
REMARK INTER + INTRA:          -7.971
REMARK INTER:                  -8.085
REMARK INTRA:                   0.114
REMARK UNBOUND:                 0.118
REMARK  Name = 
REMARK  8 active torsions:
REMARK  status: ('A' for Active; 'I' for Inactive)
REMARK    1  A    between atoms: C_1  and  C_2
REMARK    2  A    between atoms: C_4  and  C_5
REMARK    3  A    between atoms: C_10  and  C_11
REMARK    4  A    between atoms: C_11  and  C_12
REMARK    5  A    between atoms: C_15  and  C_16
REMARK    6  A    between atoms: C_16  and  C_17
REMARK    7  A    between atoms: C_16  and  C_18
REMARK    8  A    between atoms: C_16  and  C_19
REMARK                            x       y       z     vdW  Elec       q    Type
REMARK                         _______ _______ _______ _____ _____    ______ ____
ROOT
ATOM      1  C   UNL     1      44.242   4.709  11.612  0.00  0.00    +0.000 C 
ATOM      2  C   UNL     1      42.822   4.970  12.126  0.00  0.00    +0.000 C 
ATOM      3  C   UNL     1      43.476   3.682  12.478  0.00  0.00    +0.000 C 
ENDROOT
BRANCH   1  10
ATOM      4  C   UNL     1      46.535   3.397  13.184  0.00  0.00    +0.000 C 
ATOM      5  C   UNL     1      46.473   4.882  12.945  0.00  0.00    +0.000 A 
ATOM      6  C   UNL     1      47.544   5.680  13.375  0.00  0.00    +0.000 A 
ATOM      7  C   UNL     1      47.478   7.051  13.175  0.00  0.00    +0.000 A 
ATOM      8  N   UNL     1      46.416   7.682  12.612  0.00  0.00    +0.000 NA
ATOM      9  C   UNL     1      45.412   6.882  12.194  0.00  0.00    +0.000 A 
ATOM     10  C   UNL     1      45.377   5.483  12.285  0.00  0.00    +0.000 A 
BRANCH   7  11
ATOM     11  C   UNL     1      48.630   7.931  13.558  0.00  0.00    +0.000 C 
ATOM     12  N   UNL     1      49.266   8.526  12.504  0.00  0.00    +0.000 N 
ATOM     13  O   UNL     1      49.001   8.087  14.711  0.00  0.00    +0.000 OA
ATOM     14  H   UNL     1      48.941   8.333  11.558  0.00  0.00    +0.000 HD
ATOM     15  H   UNL     1      50.078   9.101  12.654  0.00  0.00    +0.000 HD
ENDBRANCH   7  11
ENDBRANCH   1  10
BRANCH   1  16
ATOM     16  C   UNL     1      44.440   4.186  10.191  0.00  0.00    +0.000 A 
ATOM     17  C   UNL     1      45.049   4.983   9.215  0.00  0.00    +0.000 A 
ATOM     18  C   UNL     1      45.693   4.400   8.128  0.00  0.00    +0.000 A 
ATOM     19  C   UNL     1      45.692   3.015   8.011  0.00  0.00    +0.000 A 
ATOM     20  N   UNL     1      44.907   2.248   8.812  0.00  0.00    +0.000 NA
ATOM     21  C   UNL     1      44.303   2.842   9.866  0.00  0.00    +0.000 A 
BRANCH  19  22
ATOM     22  C   UNL     1      46.699   2.262   7.138  0.00  0.00    +0.000 C 
ATOM     23  C   UNL     1      46.984   0.819   7.602  0.00  0.00    +0.000 C 
ATOM     24  C   UNL     1      46.110   2.176   5.709  0.00  0.00    +0.000 C 
ATOM     25  C   UNL     1      48.026   3.033   7.094  0.00  0.00    +0.000 C 
ENDBRANCH  19  22
ENDBRANCH   1  16
TORSDOF 4
ENDMDL
MODEL 6
REMARK VINA RESULT:    -6.530      2.801      3.538
REMARK INTER + INTRA:          -7.939
REMARK INTER:                  -8.121
REMARK INTRA:                   0.182
REMARK UNBOUND:                 0.118
REMARK  Name = 
REMARK  8 active torsions:
REMARK  status: ('A' for Active; 'I' for Inactive)
REMARK    1  A    between atoms: C_1  and  C_2
REMARK    2  A    between atoms: C_4  and  C_5
REMARK    3  A    between atoms: C_10  and  C_11
REMARK    4  A    between atoms: C_11  and  C_12
REMARK    5  A    between atoms: C_15  and  C_16
REMARK    6  A    between atoms: C_16  and  C_17
REMARK    7  A    between atoms: C_16  and  C_18
REMARK    8  A    between atoms: C_16  and  C_19
REMARK                            x       y       z     vdW  Elec       q    Type
REMARK                         _______ _______ _______ _____ _____    ______ ____
ROOT
ATOM      1  C   UNL     1      44.579   4.463  11.334  0.00  0.00    +0.000 C 
ATOM      2  C   UNL     1      43.899   3.642  12.434  0.00  0.00    +0.000 C 
ATOM      3  C   UNL     1      45.385   3.647  12.371  0.00  0.00    +0.000 C 
ENDROOT
BRANCH   1  10
ATOM      4  C   UNL     1      47.033   6.134  12.132  0.00  0.00    +0.000 C 
ATOM      5  C   UNL     1      45.710   6.764  11.789  0.00  0.00    +0.000 A 
ATOM      6  C   UNL     1      45.621   8.164  11.744  0.00  0.00    +0.000 A 
ATOM      7  C   UNL     1      44.397   8.746  11.450  0.00  0.00    +0.000 A 
ATOM      8  N   UNL     1      43.258   8.041  11.232  0.00  0.00    +0.000 NA
ATOM      9  C   UNL     1      43.383   6.697  11.265  0.00  0.00    +0.000 A 
ATOM     10  C   UNL     1      44.569   5.984  11.495  0.00  0.00    +0.000 A 
BRANCH   7  11
ATOM     11  C   UNL     1      44.274  10.235  11.325  0.00  0.00    +0.000 C 
ATOM     12  N   UNL     1      45.043  10.946  12.205  0.00  0.00    +0.000 N 
ATOM     13  O   UNL     1      43.528  10.783  10.528  0.00  0.00    +0.000 OA
ATOM     14  H   UNL     1      45.620  10.441  12.875  0.00  0.00    +0.000 HD
ATOM     15  H   UNL     1      44.999  11.950  12.229  0.00  0.00    +0.000 HD
ENDBRANCH   7  11
ENDBRANCH   1  10
BRANCH   1  16
ATOM     16  C   UNL     1      44.726   3.866   9.936  0.00  0.00    +0.000 A 
ATOM     17  C   UNL     1      45.230   4.635   8.880  0.00  0.00    +0.000 A 
ATOM     18  C   UNL     1      45.843   4.024   7.791  0.00  0.00    +0.000 A 
ATOM     19  C   UNL     1      45.918   2.636   7.755  0.00  0.00    +0.000 A 
ATOM     20  N   UNL     1      45.228   1.876   8.644  0.00  0.00    +0.000 NA
ATOM     21  C   UNL     1      44.650   2.499   9.697  0.00  0.00    +0.000 A 
BRANCH  19  22
ATOM     22  C   UNL     1      46.916   1.889   6.866  0.00  0.00    +0.000 C 
ATOM     23  C   UNL     1      46.557   1.896   5.366  0.00  0.00    +0.000 C 
ATOM     24  C   UNL     1      48.290   2.587   7.012  0.00  0.00    +0.000 C 
ATOM     25  C   UNL     1      47.035   0.430   7.333  0.00  0.00    +0.000 C 
ENDBRANCH  19  22
ENDBRANCH   1  16
TORSDOF 4
ENDMDL
MODEL 7
REMARK VINA RESULT:    -6.485      4.051      8.496
REMARK INTER + INTRA:          -7.884
REMARK INTER:                  -7.586
REMARK INTRA:                  -0.298
REMARK UNBOUND:                 0.118
REMARK  Name = 
REMARK  8 active torsions:
REMARK  status: ('A' for Active; 'I' for Inactive)
REMARK    1  A    between atoms: C_1  and  C_2
REMARK    2  A    between atoms: C_4  and  C_5
REMARK    3  A    between atoms: C_10  and  C_11
REMARK    4  A    between atoms: C_11  and  C_12
REMARK    5  A    between atoms: C_15  and  C_16
REMARK    6  A    between atoms: C_16  and  C_17
REMARK    7  A    between atoms: C_16  and  C_18
REMARK    8  A    between atoms: C_16  and  C_19
REMARK                            x       y       z     vdW  Elec       q    Type
REMARK                         _______ _______ _______ _____ _____    ______ ____
ROOT
ATOM      1  C   UNL     1      48.110   7.361  13.374  0.00  0.00    +0.000 C 
ATOM      2  C   UNL     1      48.507   8.212  12.163  0.00  0.00    +0.000 C 
ATOM      3  C   UNL     1      49.301   6.989  12.461  0.00  0.00    +0.000 C 
ENDROOT
BRANCH   1  10
ATOM      4  C   UNL     1      45.340   8.503  12.685  0.00  0.00    +0.000 C 
ATOM      5  C   UNL     1      45.580   7.027  12.855  0.00  0.00    +0.000 A 
ATOM      6  C   UNL     1      44.524   6.138  12.601  0.00  0.00    +0.000 A 
ATOM      7  C   UNL     1      44.738   4.779  12.779  0.00  0.00    +0.000 A 
ATOM      8  N   UNL     1      45.907   4.250  13.220  0.00  0.00    +0.000 NA
ATOM      9  C   UNL     1      46.906   5.131  13.438  0.00  0.00    +0.000 A 
ATOM     10  C   UNL     1      46.840   6.519  13.245  0.00  0.00    +0.000 A 
BRANCH   7  11
ATOM     11  C   UNL     1      43.658   3.792  12.453  0.00  0.00    +0.000 C 
ATOM     12  N   UNL     1      42.634   4.296  11.699  0.00  0.00    +0.000 N 
ATOM     13  O   UNL     1      43.663   2.636  12.848  0.00  0.00    +0.000 OA
ATOM     14  H   UNL     1      42.659   5.277  11.427  0.00  0.00    +0.000 HD
ATOM     15  H   UNL     1      41.841   3.723  11.464  0.00  0.00    +0.000 HD
ENDBRANCH   7  11
ENDBRANCH   1  10
BRANCH   1  16
ATOM     16  C   UNL     1      48.594   7.766  14.765  0.00  0.00    +0.000 A 
ATOM     17  C   UNL     1      48.299   9.032  15.284  0.00  0.00    +0.000 A 
ATOM     18  C   UNL     1      48.260   9.240  16.659  0.00  0.00    +0.000 A 
ATOM     19  C   UNL     1      48.551   8.178  17.507  0.00  0.00    +0.000 A 
ATOM     20  N   UNL     1      49.069   7.019  17.022  0.00  0.00    +0.000 NA
ATOM     21  C   UNL     1      49.085   6.843  15.682  0.00  0.00    +0.000 A 
BRANCH  19  22
ATOM     22  C   UNL     1      48.128   8.160  18.979  0.00  0.00    +0.000 C 
ATOM     23  C   UNL     1      47.123   9.264  19.362  0.00  0.00    +0.000 C 
ATOM     24  C   UNL     1      47.443   6.800  19.255  0.00  0.00    +0.000 C 
ATOM     25  C   UNL     1      49.368   8.295  19.876  0.00  0.00    +0.000 C 
ENDBRANCH  19  22
ENDBRANCH   1  16
TORSDOF 4
ENDMDL
MODEL 8
REMARK VINA RESULT:    -6.096      4.095      6.960
REMARK INTER + INTRA:          -7.404
REMARK INTER:                  -7.412
REMARK INTRA:                   0.008
REMARK UNBOUND:                 0.118
REMARK  Name = 
REMARK  8 active torsions:
REMARK  status: ('A' for Active; 'I' for Inactive)
REMARK    1  A    between atoms: C_1  and  C_2
REMARK    2  A    between atoms: C_4  and  C_5
REMARK    3  A    between atoms: C_10  and  C_11
REMARK    4  A    between atoms: C_11  and  C_12
REMARK    5  A    between atoms: C_15  and  C_16
REMARK    6  A    between atoms: C_16  and  C_17
REMARK    7  A    between atoms: C_16  and  C_18
REMARK    8  A    between atoms: C_16  and  C_19
REMARK                            x       y       z     vdW  Elec       q    Type
REMARK                         _______ _______ _______ _____ _____    ______ ____
ROOT
ATOM      1  C   UNL     1      48.170   4.117  16.709  0.00  0.00    +0.000 C 
ATOM      2  C   UNL     1      47.473   4.802  17.889  0.00  0.00    +0.000 C 
ATOM      3  C   UNL     1      46.938   3.499  17.411  0.00  0.00    +0.000 C 
ENDROOT
BRANCH   1  10
ATOM      4  C   UNL     1      50.633   5.641  17.739  0.00  0.00    +0.000 C 
ATOM      5  C   UNL     1      50.642   4.151  17.529  0.00  0.00    +0.000 A 
ATOM      6  C   UNL     1      51.783   3.424  17.902  0.00  0.00    +0.000 A 
ATOM      7  C   UNL     1      51.800   2.054  17.688  0.00  0.00    +0.000 A 
ATOM      8  N   UNL     1      50.786   1.367  17.104  0.00  0.00    +0.000 NA
ATOM      9  C   UNL     1      49.697   2.094  16.774  0.00  0.00    +0.000 A 
ATOM     10  C   UNL     1      49.529   3.471  16.985  0.00  0.00    +0.000 A 
BRANCH   7  11
ATOM     11  C   UNL     1      52.971   1.230  18.135  0.00  0.00    +0.000 C 
ATOM     12  N   UNL     1      52.715  -0.108  18.252  0.00  0.00    +0.000 N 
ATOM     13  O   UNL     1      54.063   1.707  18.406  0.00  0.00    +0.000 OA
ATOM     14  H   UNL     1      51.777  -0.450  18.050  0.00  0.00    +0.000 HD
ATOM     15  H   UNL     1      53.424  -0.738  18.586  0.00  0.00    +0.000 HD
ENDBRANCH   7  11
ENDBRANCH   1  10
BRANCH   1  16
ATOM     16  C   UNL     1      47.828   4.547  15.284  0.00  0.00    +0.000 A 
ATOM     17  C   UNL     1      47.127   3.690  14.428  0.00  0.00    +0.000 A 
ATOM     18  C   UNL     1      46.376   4.202  13.375  0.00  0.00    +0.000 A 
ATOM     19  C   UNL     1      46.360   5.577  13.170  0.00  0.00    +0.000 A 
ATOM     20  N   UNL     1      47.218   6.393  13.836  0.00  0.00    +0.000 NA
ATOM     21  C   UNL     1      47.927   5.867  14.860  0.00  0.00    +0.000 A 
BRANCH  19  22
ATOM     22  C   UNL     1      45.267   6.274  12.355  0.00  0.00    +0.000 C 
ATOM     23  C   UNL     1      45.263   7.811  12.485  0.00  0.00    +0.000 C 
ATOM     24  C   UNL     1      45.509   5.942  10.863  0.00  0.00    +0.000 C 
ATOM     25  C   UNL     1      43.888   5.745  12.775  0.00  0.00    +0.000 C 
ENDBRANCH  19  22
ENDBRANCH   1  16
TORSDOF 4
ENDMDL
MODEL 9
REMARK VINA RESULT:    -5.752      3.750      7.064
REMARK INTER + INTRA:          -6.979
REMARK INTER:                  -7.065
REMARK INTRA:                   0.085
REMARK UNBOUND:                 0.118
REMARK  Name = 
REMARK  8 active torsions:
REMARK  status: ('A' for Active; 'I' for Inactive)
REMARK    1  A    between atoms: C_1  and  C_2
REMARK    2  A    between atoms: C_4  and  C_5
REMARK    3  A    between atoms: C_10  and  C_11
REMARK    4  A    between atoms: C_11  and  C_12
REMARK    5  A    between atoms: C_15  and  C_16
REMARK    6  A    between atoms: C_16  and  C_17
REMARK    7  A    between atoms: C_16  and  C_18
REMARK    8  A    between atoms: C_16  and  C_19
REMARK                            x       y       z     vdW  Elec       q    Type
REMARK                         _______ _______ _______ _____ _____    ______ ____
ROOT
ATOM      1  C   UNL     1      46.613   7.894  12.156  0.00  0.00    +0.000 C 
ATOM      2  C   UNL     1      45.979   8.640  13.334  0.00  0.00    +0.000 C 
ATOM      3  C   UNL     1      45.625   9.067  11.954  0.00  0.00    +0.000 C 
ENDROOT
BRANCH   1  10
ATOM      4  C   UNL     1      47.076   5.469  13.987  0.00  0.00    +0.000 C 
ATOM      5  C   UNL     1      46.239   5.384  12.739  0.00  0.00    +0.000 A 
ATOM      6  C   UNL     1      45.575   4.181  12.453  0.00  0.00    +0.000 A 
ATOM      7  C   UNL     1      44.821   4.095  11.291  0.00  0.00    +0.000 A 
ATOM      8  N   UNL     1      44.710   5.100  10.386  0.00  0.00    +0.000 NA
ATOM      9  C   UNL     1      45.347   6.248  10.702  0.00  0.00    +0.000 A 
ATOM     10  C   UNL     1      46.094   6.485  11.865  0.00  0.00    +0.000 A 
BRANCH   7  11
ATOM     11  C   UNL     1      44.041   2.852  10.983  0.00  0.00    +0.000 C 
ATOM     12  N   UNL     1      44.524   2.123   9.932  0.00  0.00    +0.000 N 
ATOM     13  O   UNL     1      43.035   2.523  11.592  0.00  0.00    +0.000 OA
ATOM     14  H   UNL     1      45.345   2.460   9.433  0.00  0.00    +0.000 HD
ATOM     15  H   UNL     1      44.046   1.295   9.620  0.00  0.00    +0.000 HD
ENDBRANCH   7  11
ENDBRANCH   1  10
BRANCH   1  16
ATOM     16  C   UNL     1      48.018   8.278  11.695  0.00  0.00    +0.000 A 
ATOM     17  C   UNL     1      48.472   9.596  11.811  0.00  0.00    +0.000 A 
ATOM     18  C   UNL     1      49.834   9.868  11.896  0.00  0.00    +0.000 A 
ATOM     19  C   UNL     1      50.735   8.812  11.831  0.00  0.00    +0.000 A 
ATOM     20  N   UNL     1      50.325   7.565  11.480  0.00  0.00    +0.000 NA
ATOM     21  C   UNL     1      48.995   7.330  11.414  0.00  0.00    +0.000 A 
BRANCH  19  22
ATOM     22  C   UNL     1      52.176   8.927  12.336  0.00  0.00    +0.000 C 
ATOM     23  C   UNL     1      53.201   8.120  11.514  0.00  0.00    +0.000 C 
ATOM     24  C   UNL     1      52.588  10.416  12.247  0.00  0.00    +0.000 C 
ATOM     25  C   UNL     1      52.252   8.466  13.799  0.00  0.00    +0.000 C 
ENDBRANCH  19  22
ENDBRANCH   1  16
TORSDOF 4
ENDMDL
