MODEL 1
REMARK VINA RESULT:    -6.835      0.000      0.000
REMARK INTER + INTRA:          -9.191
REMARK INTER:                  -8.632
REMARK INTRA:                  -0.558
REMARK UNBOUND:                -0.558
REMARK  Name = 
REMARK  7 active torsions:
REMARK  status: ('A' for Active; 'I' for Inactive)
REMARK    1  A    between atoms: C_1  and  O_2
REMARK    2  A    between atoms: O_2  and  C_3
REMARK    3  A    between atoms: C_7  and  C_8
REMARK    4  A    between atoms: C_8  and  N_9
REMARK    5  A    between atoms: C_15  and  C_16
REMARK    6  A    between atoms: C_16  and  O_18
REMARK    7  A    between atoms: C_21  and  C_22
REMARK                            x       y       z     vdW  Elec       q    Type
REMARK                         _______ _______ _______ _____ _____    ______ ____
ROOT
ATOM      1  N   UNL     1      45.859   6.794  12.490  0.00  0.00    +0.000 N 
ATOM      2  C   UNL     1      46.319   8.033  12.096  0.00  0.00    +0.000 A 
ATOM      3  C   UNL     1      47.427   8.339  12.849  0.00  0.00    +0.000 A 
ATOM      4  C   UNL     1      47.652   7.259  13.742  0.00  0.00    +0.000 A 
ATOM      5  C   UNL     1      48.575   7.046  14.784  0.00  0.00    +0.000 A 
ATOM      6  C   UNL     1      48.514   5.865  15.534  0.00  0.00    +0.000 A 
ATOM      7  C   UNL     1      47.571   4.878  15.228  0.00  0.00    +0.000 A 
ATOM      8  C   UNL     1      46.639   5.077  14.194  0.00  0.00    +0.000 A 
ATOM      9  C   UNL     1      46.684   6.284  13.476  0.00  0.00    +0.000 A 
ENDROOT
BRANCH   7  10
ATOM     10  C   UNL     1      47.458   3.624  16.021  0.00  0.00    +0.000 C 
ATOM     11  O   UNL     1      46.656   3.485  16.930  0.00  0.00    +0.000 OA
BRANCH  10  12
ATOM     12  O   UNL     1      48.299   2.640  15.636  0.00  0.00    +0.000 OA
ATOM     13  H   UNL     1      47.912   1.972  15.043  0.00  0.00    +0.000 HD
ENDBRANCH  10  12
ENDBRANCH   7  10
BRANCH   1  14
ATOM     14  C   UNL     1      44.526   6.306  12.138  0.00  0.00    +0.000 C 
BRANCH  14  19
ATOM     15  C   UNL     1      44.418   3.237   9.957  0.00  0.00    +0.000 A 
ATOM     16  N   UNL     1      43.673   2.411  10.714  0.00  0.00    +0.000 NA
ATOM     17  C   UNL     1      43.362   2.868  11.923  0.00  0.00    +0.000 A 
ATOM     18  N   UNL     1      43.675   4.077  12.401  0.00  0.00    +0.000 NA
ATOM     19  C   UNL     1      44.428   4.893  11.616  0.00  0.00    +0.000 A 
ATOM     20  C   UNL     1      44.890   4.480  10.372  0.00  0.00    +0.000 A 
ATOM     21  C   UNL     1      45.749   5.302   9.465  0.00  0.00    +0.000 C 
BRANCH  15  23
ATOM     22  C   UNL     1      45.589   1.749   8.567  0.00  0.00    +0.000 C 
ATOM     23  O   UNL     1      44.695   2.858   8.654  0.00  0.00    +0.000 OA
ENDBRANCH  15  23
ENDBRANCH  14  19
ENDBRANCH   1  14
TORSDOF 5
ENDMDL
MODEL 2
REMARK VINA RESULT:    -6.662      3.062      4.276
REMARK INTER + INTRA:          -8.973
REMARK INTER:                  -8.207
REMARK INTRA:                  -0.766
REMARK UNBOUND:                -0.558
REMARK  Name = 
REMARK  7 active torsions:
REMARK  status: ('A' for Active; 'I' for Inactive)
REMARK    1  A    between atoms: C_1  and  O_2
REMARK    2  A    between atoms: O_2  and  C_3
REMARK    3  A    between atoms: C_7  and  C_8
REMARK    4  A    between atoms: C_8  and  N_9
REMARK    5  A    between atoms: C_15  and  C_16
REMARK    6  A    between atoms: C_16  and  O_18
REMARK    7  A    between atoms: C_21  and  C_22
REMARK                            x       y       z     vdW  Elec       q    Type
REMARK                         _______ _______ _______ _____ _____    ______ ____
ROOT
ATOM      1  N   UNL     1      45.079   5.159  12.337  0.00  0.00    +0.000 N 
ATOM      2  C   UNL     1      45.955   4.313  12.987  0.00  0.00    +0.000 A 
ATOM      3  C   UNL     1      46.912   5.080  13.607  0.00  0.00    +0.000 A 
ATOM      4  C   UNL     1      46.623   6.440  13.323  0.00  0.00    +0.000 A 
ATOM      5  C   UNL     1      47.285   7.648  13.618  0.00  0.00    +0.000 A 
ATOM      6  C   UNL     1      46.761   8.859  13.148  0.00  0.00    +0.000 A 
ATOM      7  C   UNL     1      45.564   8.880  12.425  0.00  0.00    +0.000 A 
ATOM      8  C   UNL     1      44.893   7.684  12.118  0.00  0.00    +0.000 A 
ATOM      9  C   UNL     1      45.451   6.472  12.560  0.00  0.00    +0.000 A 
ENDROOT
BRANCH   7  10
ATOM     10  C   UNL     1      44.992  10.144  11.886  0.00  0.00    +0.000 C 
ATOM     11  O   UNL     1      45.615  10.892  11.150  0.00  0.00    +0.000 OA
BRANCH  10  12
ATOM     12  O   UNL     1      43.716  10.385  12.257  0.00  0.00    +0.000 OA
ATOM     13  H   UNL     1      43.425  11.310  12.167  0.00  0.00    +0.000 HD
ENDBRANCH  10  12
ENDBRANCH   7  10
BRANCH   1  14
ATOM     14  C   UNL     1      44.144   4.683  11.319  0.00  0.00    +0.000 C 
BRANCH  14  19
ATOM     15  C   UNL     1      45.662   3.511   8.078  0.00  0.00    +0.000 A 
ATOM     16  N   UNL     1      45.194   2.251   8.016  0.00  0.00    +0.000 NA
ATOM     17  C   UNL     1      44.519   1.839   9.085  0.00  0.00    +0.000 A 
ATOM     18  N   UNL     1      44.231   2.585  10.157  0.00  0.00    +0.000 NA
ATOM     19  C   UNL     1      44.715   3.855  10.195  0.00  0.00    +0.000 A 
ATOM     20  C   UNL     1      45.513   4.357   9.174  0.00  0.00    +0.000 A 
ATOM     21  C   UNL     1      46.112   5.728   9.156  0.00  0.00    +0.000 C 
BRANCH  15  23
ATOM     22  C   UNL     1      46.726   3.028   6.040  0.00  0.00    +0.000 C 
ATOM     23  O   UNL     1      46.291   4.030   6.958  0.00  0.00    +0.000 OA
ENDBRANCH  15  23
ENDBRANCH  14  19
ENDBRANCH   1  14
TORSDOF 5
ENDMDL
MODEL 3
REMARK VINA RESULT:    -6.635      3.304      6.762
REMARK INTER + INTRA:          -8.938
REMARK INTER:                  -8.423
REMARK INTRA:                  -0.515
REMARK UNBOUND:                -0.558
REMARK  Name = 
REMARK  7 active torsions:
REMARK  status: ('A' for Active; 'I' for Inactive)
REMARK    1  A    between atoms: C_1  and  O_2
REMARK    2  A    between atoms: O_2  and  C_3
REMARK    3  A    between atoms: C_7  and  C_8
REMARK    4  A    between atoms: C_8  and  N_9
REMARK    5  A    between atoms: C_15  and  C_16
REMARK    6  A    between atoms: C_16  and  O_18
REMARK    7  A    between atoms: C_21  and  C_22
REMARK                            x       y       z     vdW  Elec       q    Type
REMARK                         _______ _______ _______ _____ _____    ______ ____
ROOT
ATOM      1  N   UNL     1      44.354   5.337  11.493  0.00  0.00    +0.000 N 
ATOM      2  C   UNL     1      43.572   4.717  12.447  0.00  0.00    +0.000 A 
ATOM      3  C   UNL     1      43.385   3.410  12.066  0.00  0.00    +0.000 A 
ATOM      4  C   UNL     1      44.065   3.220  10.835  0.00  0.00    +0.000 A 
ATOM      5  C   UNL     1      44.162   2.132   9.945  0.00  0.00    +0.000 A 
ATOM      6  C   UNL     1      44.889   2.270   8.757  0.00  0.00    +0.000 A 
ATOM      7  C   UNL     1      45.555   3.466   8.468  0.00  0.00    +0.000 A 
ATOM      8  C   UNL     1      45.464   4.563   9.342  0.00  0.00    +0.000 A 
ATOM      9  C   UNL     1      44.697   4.425  10.512  0.00  0.00    +0.000 A 
ENDROOT
BRANCH   7  10
ATOM     10  C   UNL     1      46.313   3.659   7.202  0.00  0.00    +0.000 C 
ATOM     11  O   UNL     1      46.128   2.976   6.208  0.00  0.00    +0.000 OA
BRANCH  10  12
ATOM     12  O   UNL     1      47.208   4.670   7.233  0.00  0.00    +0.000 OA
ATOM     13  H   UNL     1      47.068   5.369   6.570  0.00  0.00    +0.000 HD
ENDBRANCH  10  12
ENDBRANCH   7  10
BRANCH   1  14
ATOM     14  C   UNL     1      44.477   6.791  11.407  0.00  0.00    +0.000 C 
BRANCH  14  19
ATOM     15  C   UNL     1      47.253   9.150  12.364  0.00  0.00    +0.000 A 
ATOM     16  N   UNL     1      48.274   8.291  12.527  0.00  0.00    +0.000 NA
ATOM     17  C   UNL     1      47.959   7.003  12.430  0.00  0.00    +0.000 A 
ATOM     18  N   UNL     1      46.748   6.520  12.131  0.00  0.00    +0.000 NA
ATOM     19  C   UNL     1      45.733   7.409  11.970  0.00  0.00    +0.000 A 
ATOM     20  C   UNL     1      45.930   8.774  12.143  0.00  0.00    +0.000 A 
ATOM     21  C   UNL     1      44.861   9.812  12.017  0.00  0.00    +0.000 C 
BRANCH  15  23
ATOM     22  C   UNL     1      48.389  10.901  11.288  0.00  0.00    +0.000 C 
ATOM     23  O   UNL     1      47.533  10.506  12.359  0.00  0.00    +0.000 OA
ENDBRANCH  15  23
ENDBRANCH  14  19
ENDBRANCH   1  14
TORSDOF 5
ENDMDL
MODEL 4
REMARK VINA RESULT:    -6.331      1.445      2.131
REMARK INTER + INTRA:          -8.554
REMARK INTER:                  -8.512
REMARK INTRA:                  -0.042
REMARK UNBOUND:                -0.558
REMARK  Name = 
REMARK  7 active torsions:
REMARK  status: ('A' for Active; 'I' for Inactive)
REMARK    1  A    between atoms: C_1  and  O_2
REMARK    2  A    between atoms: O_2  and  C_3
REMARK    3  A    between atoms: C_7  and  C_8
REMARK    4  A    between atoms: C_8  and  N_9
REMARK    5  A    between atoms: C_15  and  C_16
REMARK    6  A    between atoms: C_16  and  O_18
REMARK    7  A    between atoms: C_21  and  C_22
REMARK                            x       y       z     vdW  Elec       q    Type
REMARK                         _______ _______ _______ _____ _____    ______ ____
ROOT
ATOM      1  N   UNL     1      46.689   5.939  13.526  0.00  0.00    +0.000 N 
ATOM      2  C   UNL     1      47.325   7.031  12.972  0.00  0.00    +0.000 A 
ATOM      3  C   UNL     1      48.409   7.341  13.758  0.00  0.00    +0.000 A 
ATOM      4  C   UNL     1      48.437   6.418  14.836  0.00  0.00    +0.000 A 
ATOM      5  C   UNL     1      49.254   6.292  15.976  0.00  0.00    +0.000 A 
ATOM      6  C   UNL     1      48.996   5.276  16.905  0.00  0.00    +0.000 A 
ATOM      7  C   UNL     1      47.961   4.360  16.686  0.00  0.00    +0.000 A 
ATOM      8  C   UNL     1      47.134   4.475  15.555  0.00  0.00    +0.000 A 
ATOM      9  C   UNL     1      47.377   5.524  14.652  0.00  0.00    +0.000 A 
ENDROOT
BRANCH   7  10
ATOM     10  C   UNL     1      47.640   3.285  17.664  0.00  0.00    +0.000 C 
ATOM     11  O   UNL     1      48.449   2.865  18.475  0.00  0.00    +0.000 OA
BRANCH  10  12
ATOM     12  O   UNL     1      46.371   2.830  17.600  0.00  0.00    +0.000 OA
ATOM     13  H   UNL     1      45.941   2.921  16.731  0.00  0.00    +0.000 HD
ENDBRANCH  10  12
ENDBRANCH   7  10
BRANCH   1  14
ATOM     14  C   UNL     1      45.334   5.546  13.144  0.00  0.00    +0.000 C 
BRANCH  14  19
ATOM     15  C   UNL     1      44.740   3.513  10.029  0.00  0.00    +0.000 A 
ATOM     16  N   UNL     1      45.332   4.286   9.101  0.00  0.00    +0.000 NA
ATOM     17  C   UNL     1      45.776   5.462   9.535  0.00  0.00    +0.000 A 
ATOM     18  N   UNL     1      45.730   5.890  10.802  0.00  0.00    +0.000 NA
ATOM     19  C   UNL     1      45.127   5.090  11.720  0.00  0.00    +0.000 A 
ATOM     20  C   UNL     1      44.543   3.882  11.358  0.00  0.00    +0.000 A 
ATOM     21  C   UNL     1      43.832   2.962  12.299  0.00  0.00    +0.000 C 
BRANCH  15  23
ATOM     22  C   UNL     1      45.235   1.613   8.740  0.00  0.00    +0.000 C 
ATOM     23  O   UNL     1      44.342   2.239   9.661  0.00  0.00    +0.000 OA
ENDBRANCH  15  23
ENDBRANCH  14  19
ENDBRANCH   1  14
TORSDOF 5
ENDMDL
MODEL 5
REMARK VINA RESULT:    -6.051      2.395      6.282
REMARK INTER + INTRA:          -8.200
REMARK INTER:                  -7.593
REMARK INTRA:                  -0.608
REMARK UNBOUND:                -0.558
REMARK  Name = 
REMARK  7 active torsions:
REMARK  status: ('A' for Active; 'I' for Inactive)
REMARK    1  A    between atoms: C_1  and  O_2
REMARK    2  A    between atoms: O_2  and  C_3
REMARK    3  A    between atoms: C_7  and  C_8
REMARK    4  A    between atoms: C_8  and  N_9
REMARK    5  A    between atoms: C_15  and  C_16
REMARK    6  A    between atoms: C_16  and  O_18
REMARK    7  A    between atoms: C_21  and  C_22
REMARK                            x       y       z     vdW  Elec       q    Type
REMARK                         _______ _______ _______ _____ _____    ______ ____
ROOT
ATOM      1  N   UNL     1      46.582   6.493  13.254  0.00  0.00    +0.000 N 
ATOM      2  C   UNL     1      46.467   7.865  13.158  0.00  0.00    +0.000 A 
ATOM      3  C   UNL     1      45.337   8.152  12.431  0.00  0.00    +0.000 A 
ATOM      4  C   UNL     1      44.741   6.919  12.059  0.00  0.00    +0.000 A 
ATOM      5  C   UNL     1      43.629   6.588  11.259  0.00  0.00    +0.000 A 
ATOM      6  C   UNL     1      43.312   5.243  11.035  0.00  0.00    +0.000 A 
ATOM      7  C   UNL     1      44.063   4.227  11.636  0.00  0.00    +0.000 A 
ATOM      8  C   UNL     1      45.178   4.540  12.433  0.00  0.00    +0.000 A 
ATOM      9  C   UNL     1      45.511   5.893  12.616  0.00  0.00    +0.000 A 
ENDROOT
BRANCH   7  10
ATOM     10  C   UNL     1      43.772   2.787  11.399  0.00  0.00    +0.000 C 
ATOM     11  O   UNL     1      43.786   2.283  10.288  0.00  0.00    +0.000 OA
BRANCH  10  12
ATOM     12  O   UNL     1      43.517   2.076  12.518  0.00  0.00    +0.000 OA
ATOM     13  H   UNL     1      42.982   2.535  13.189  0.00  0.00    +0.000 HD
ENDBRANCH  10  12
ENDBRANCH   7  10
BRANCH   1  14
ATOM     14  C   UNL     1      47.821   5.839  13.670  0.00  0.00    +0.000 C 
BRANCH  14  19
ATOM     15  C   UNL     1      48.759   5.140  17.250  0.00  0.00    +0.000 A 
ATOM     16  N   UNL     1      48.255   3.903  17.410  0.00  0.00    +0.000 NA
ATOM     17  C   UNL     1      47.548   3.436  16.386  0.00  0.00    +0.000 A 
ATOM     18  N   UNL     1      47.360   4.066  15.221  0.00  0.00    +0.000 NA
ATOM     19  C   UNL     1      47.880   5.315  15.083  0.00  0.00    +0.000 A 
ATOM     20  C   UNL     1      48.556   5.937  16.126  0.00  0.00    +0.000 A 
ATOM     21  C   UNL     1      49.127   7.319  16.068  0.00  0.00    +0.000 C 
BRANCH  15  23
ATOM     22  C   UNL     1      50.396   4.647  18.861  0.00  0.00    +0.000 C 
ATOM     23  O   UNL     1      49.583   5.644  18.242  0.00  0.00    +0.000 OA
ENDBRANCH  15  23
ENDBRANCH  14  19
ENDBRANCH   1  14
TORSDOF 5
ENDMDL
MODEL 6
REMARK VINA RESULT:    -5.982      2.119      3.380
REMARK INTER + INTRA:          -8.114
REMARK INTER:                  -7.472
REMARK INTRA:                  -0.643
REMARK UNBOUND:                -0.558
REMARK  Name = 
REMARK  7 active torsions:
REMARK  status: ('A' for Active; 'I' for Inactive)
REMARK    1  A    between atoms: C_1  and  O_2
REMARK    2  A    between atoms: O_2  and  C_3
REMARK    3  A    between atoms: C_7  and  C_8
REMARK    4  A    between atoms: C_8  and  N_9
REMARK    5  A    between atoms: C_15  and  C_16
REMARK    6  A    between atoms: C_16  and  O_18
REMARK    7  A    between atoms: C_21  and  C_22
REMARK                            x       y       z     vdW  Elec       q    Type
REMARK                         _______ _______ _______ _____ _____    ______ ____
ROOT
ATOM      1  N   UNL     1      48.662   6.851  14.487  0.00  0.00    +0.000 N 
ATOM      2  C   UNL     1      49.031   8.180  14.539  0.00  0.00    +0.000 A 
ATOM      3  C   UNL     1      49.144   8.543  15.859  0.00  0.00    +0.000 A 
ATOM      4  C   UNL     1      48.825   7.405  16.646  0.00  0.00    +0.000 A 
ATOM      5  C   UNL     1      48.698   7.198  18.034  0.00  0.00    +0.000 A 
ATOM      6  C   UNL     1      48.316   5.940  18.515  0.00  0.00    +0.000 A 
ATOM      7  C   UNL     1      48.103   4.877  17.631  0.00  0.00    +0.000 A 
ATOM      8  C   UNL     1      48.222   5.068  16.243  0.00  0.00    +0.000 A 
ATOM      9  C   UNL     1      48.565   6.346  15.771  0.00  0.00    +0.000 A 
ENDROOT
BRANCH   7  10
ATOM     10  C   UNL     1      47.669   3.534  18.103  0.00  0.00    +0.000 C 
ATOM     11  O   UNL     1      46.800   2.885  17.546  0.00  0.00    +0.000 OA
BRANCH  10  12
ATOM     12  O   UNL     1      48.335   3.079  19.186  0.00  0.00    +0.000 OA
ATOM     13  H   UNL     1      47.943   3.317  20.045  0.00  0.00    +0.000 HD
ENDBRANCH  10  12
ENDBRANCH   7  10
BRANCH   1  14
ATOM     14  C   UNL     1      48.140   6.231  13.269  0.00  0.00    +0.000 C 
BRANCH  14  19
ATOM     15  C   UNL     1      44.744   4.642  12.912  0.00  0.00    +0.000 A 
ATOM     16  N   UNL     1      43.993   5.710  12.588  0.00  0.00    +0.000 NA
ATOM     17  C   UNL     1      44.621   6.882  12.625  0.00  0.00    +0.000 A 
ATOM     18  N   UNL     1      45.919   7.060  12.894  0.00  0.00    +0.000 NA
ATOM     19  C   UNL     1      46.656   5.964  13.217  0.00  0.00    +0.000 A 
ATOM     20  C   UNL     1      46.080   4.702  13.303  0.00  0.00    +0.000 A 
ATOM     21  C   UNL     1      46.811   3.455  13.684  0.00  0.00    +0.000 C 
BRANCH  15  23
ATOM     22  C   UNL     1      43.619   3.129  11.511  0.00  0.00    +0.000 C 
ATOM     23  O   UNL     1      44.174   3.384  12.800  0.00  0.00    +0.000 OA
ENDBRANCH  15  23
ENDBRANCH  14  19
ENDBRANCH   1  14
TORSDOF 5
ENDMDL
MODEL 7
REMARK VINA RESULT:    -5.755      2.794      3.999
REMARK INTER + INTRA:          -7.827
REMARK INTER:                  -7.196
REMARK INTRA:                  -0.632
REMARK UNBOUND:                -0.558
REMARK  Name = 
REMARK  7 active torsions:
REMARK  status: ('A' for Active; 'I' for Inactive)
REMARK    1  A    between atoms: C_1  and  O_2
REMARK    2  A    between atoms: O_2  and  C_3
REMARK    3  A    between atoms: C_7  and  C_8
REMARK    4  A    between atoms: C_8  and  N_9
REMARK    5  A    between atoms: C_15  and  C_16
REMARK    6  A    between atoms: C_16  and  O_18
REMARK    7  A    between atoms: C_21  and  C_22
REMARK                            x       y       z     vdW  Elec       q    Type
REMARK                         _______ _______ _______ _____ _____    ______ ____
ROOT
ATOM      1  N   UNL     1      48.780   7.479  15.091  0.00  0.00    +0.000 N 
ATOM      2  C   UNL     1      48.470   8.813  15.258  0.00  0.00    +0.000 A 
ATOM      3  C   UNL     1      48.249   9.039  16.595  0.00  0.00    +0.000 A 
ATOM      4  C   UNL     1      48.419   7.804  17.273  0.00  0.00    +0.000 A 
ATOM      5  C   UNL     1      48.250   7.409  18.615  0.00  0.00    +0.000 A 
ATOM      6  C   UNL     1      48.456   6.072  18.975  0.00  0.00    +0.000 A 
ATOM      7  C   UNL     1      48.871   5.136  18.022  0.00  0.00    +0.000 A 
ATOM      8  C   UNL     1      49.040   5.512  16.678  0.00  0.00    +0.000 A 
ATOM      9  C   UNL     1      48.790   6.848  16.321  0.00  0.00    +0.000 A 
ENDROOT
BRANCH   7  10
ATOM     10  C   UNL     1      49.073   3.701  18.363  0.00  0.00    +0.000 C 
ATOM     11  O   UNL     1      49.807   2.965  17.724  0.00  0.00    +0.000 OA
BRANCH  10  12
ATOM     12  O   UNL     1      48.397   3.284  19.455  0.00  0.00    +0.000 OA
ATOM     13  H   UNL     1      48.476   3.859  20.237  0.00  0.00    +0.000 HD
ENDBRANCH  10  12
ENDBRANCH   7  10
BRANCH   1  14
ATOM     14  C   UNL     1      48.753   6.828  13.782  0.00  0.00    +0.000 C 
BRANCH  14  19
ATOM     15  C   UNL     1      45.252   5.584  13.164  0.00  0.00    +0.000 A 
ATOM     16  N   UNL     1      45.396   4.272  13.424  0.00  0.00    +0.000 NA
ATOM     17  C   UNL     1      46.640   3.870  13.665  0.00  0.00    +0.000 A 
ATOM     18  N   UNL     1      47.715   4.664  13.725  0.00  0.00    +0.000 NA
ATOM     19  C   UNL     1      47.543   5.986  13.459  0.00  0.00    +0.000 A 
ATOM     20  C   UNL     1      46.301   6.498  13.102  0.00  0.00    +0.000 A 
ATOM     21  C   UNL     1      46.034   7.930  12.762  0.00  0.00    +0.000 C 
BRANCH  15  23
ATOM     22  C   UNL     1      42.970   5.062  12.971  0.00  0.00    +0.000 C 
ATOM     23  O   UNL     1      43.969   6.080  12.999  0.00  0.00    +0.000 OA
ENDBRANCH  15  23
ENDBRANCH  14  19
ENDBRANCH   1  14
TORSDOF 5
ENDMDL
MODEL 8
REMARK VINA RESULT:    -5.593      3.683      6.776
REMARK INTER + INTRA:          -7.623
REMARK INTER:                  -6.988
REMARK INTRA:                  -0.635
REMARK UNBOUND:                -0.558
REMARK  Name = 
REMARK  7 active torsions:
REMARK  status: ('A' for Active; 'I' for Inactive)
REMARK    1  A    between atoms: C_1  and  O_2
REMARK    2  A    between atoms: O_2  and  C_3
REMARK    3  A    between atoms: C_7  and  C_8
REMARK    4  A    between atoms: C_8  and  N_9
REMARK    5  A    between atoms: C_15  and  C_16
REMARK    6  A    between atoms: C_16  and  O_18
REMARK    7  A    between atoms: C_21  and  C_22
REMARK                            x       y       z     vdW  Elec       q    Type
REMARK                         _______ _______ _______ _____ _____    ______ ____
ROOT
ATOM      1  N   UNL     1      48.546   6.085  16.217  0.00  0.00    +0.000 N 
ATOM      2  C   UNL     1      49.576   6.992  16.077  0.00  0.00    +0.000 A 
ATOM      3  C   UNL     1      49.611   7.403  14.766  0.00  0.00    +0.000 A 
ATOM      4  C   UNL     1      48.576   6.721  14.074  0.00  0.00    +0.000 A 
ATOM      5  C   UNL     1      48.185   6.679  12.721  0.00  0.00    +0.000 A 
ATOM      6  C   UNL     1      47.124   5.853  12.331  0.00  0.00    +0.000 A 
ATOM      7  C   UNL     1      46.422   5.103  13.281  0.00  0.00    +0.000 A 
ATOM      8  C   UNL     1      46.802   5.130  14.634  0.00  0.00    +0.000 A 
ATOM      9  C   UNL     1      47.895   5.931  15.007  0.00  0.00    +0.000 A 
ENDROOT
BRANCH   7  10
ATOM     10  C   UNL     1      45.308   4.193  12.899  0.00  0.00    +0.000 C 
ATOM     11  O   UNL     1      44.177   4.590  12.672  0.00  0.00    +0.000 OA
BRANCH  10  12
ATOM     12  O   UNL     1      45.656   2.892  12.799  0.00  0.00    +0.000 OA
ATOM     13  H   UNL     1      45.302   2.313  13.497  0.00  0.00    +0.000 HD
ENDBRANCH  10  12
ENDBRANCH   7  10
BRANCH   1  14
ATOM     14  C   UNL     1      48.427   5.210  17.383  0.00  0.00    +0.000 C 
BRANCH  14  19
ATOM     15  C   UNL     1      51.129   2.585  17.415  0.00  0.00    +0.000 A 
ATOM     16  N   UNL     1      50.542   1.605  16.705  0.00  0.00    +0.000 NA
ATOM     17  C   UNL     1      49.274   1.821  16.371  0.00  0.00    +0.000 A 
ATOM     18  N   UNL     1      48.582   2.936  16.630  0.00  0.00    +0.000 NA
ATOM     19  C   UNL     1      49.197   3.912  17.348  0.00  0.00    +0.000 A 
ATOM     20  C   UNL     1      50.491   3.752  17.831  0.00  0.00    +0.000 A 
ATOM     21  C   UNL     1      51.225   4.761  18.655  0.00  0.00    +0.000 C 
BRANCH  15  23
ATOM     22  C   UNL     1      52.905   1.106  17.831  0.00  0.00    +0.000 C 
ATOM     23  O   UNL     1      52.476   2.462  17.712  0.00  0.00    +0.000 OA
ENDBRANCH  15  23
ENDBRANCH  14  19
ENDBRANCH   1  14
TORSDOF 5
ENDMDL
MODEL 9
REMARK VINA RESULT:    -5.535      2.837      6.674
REMARK INTER + INTRA:          -7.549
REMARK INTER:                  -6.882
REMARK INTRA:                  -0.667
REMARK UNBOUND:                -0.558
REMARK  Name = 
REMARK  7 active torsions:
REMARK  status: ('A' for Active; 'I' for Inactive)
REMARK    1  A    between atoms: C_1  and  O_2
REMARK    2  A    between atoms: O_2  and  C_3
REMARK    3  A    between atoms: C_7  and  C_8
REMARK    4  A    between atoms: C_8  and  N_9
REMARK    5  A    between atoms: C_15  and  C_16
REMARK    6  A    between atoms: C_16  and  O_18
REMARK    7  A    between atoms: C_21  and  C_22
REMARK                            x       y       z     vdW  Elec       q    Type
REMARK                         _______ _______ _______ _____ _____    ______ ____
ROOT
ATOM      1  N   UNL     1      47.583   7.502  13.712  0.00  0.00    +0.000 N 
ATOM      2  C   UNL     1      47.472   8.842  13.405  0.00  0.00    +0.000 A 
ATOM      3  C   UNL     1      46.413   8.999  12.543  0.00  0.00    +0.000 A 
ATOM      4  C   UNL     1      45.860   7.714  12.304  0.00  0.00    +0.000 A 
ATOM      5  C   UNL     1      44.829   7.250  11.463  0.00  0.00    +0.000 A 
ATOM      6  C   UNL     1      44.540   5.881  11.412  0.00  0.00    +0.000 A 
ATOM      7  C   UNL     1      45.237   4.978  12.222  0.00  0.00    +0.000 A 
ATOM      8  C   UNL     1      46.271   5.424  13.063  0.00  0.00    +0.000 A 
ATOM      9  C   UNL     1      46.580   6.795  13.074  0.00  0.00    +0.000 A 
ENDROOT
BRANCH   7  10
ATOM     10  C   UNL     1      44.975   3.513  12.175  0.00  0.00    +0.000 C 
ATOM     11  O   UNL     1      44.032   3.028  11.573  0.00  0.00    +0.000 OA
BRANCH  10  12
ATOM     12  O   UNL     1      45.884   2.761  12.831  0.00  0.00    +0.000 OA
ATOM     13  H   UNL     1      46.814   2.946  12.611  0.00  0.00    +0.000 HD
ENDBRANCH  10  12
ENDBRANCH   7  10
BRANCH   1  14
ATOM     14  C   UNL     1      48.782   6.938  14.331  0.00  0.00    +0.000 C 
BRANCH  14  19
ATOM     15  C   UNL     1      49.010   6.614  18.077  0.00  0.00    +0.000 A 
ATOM     16  N   UNL     1      48.890   5.283  18.227  0.00  0.00    +0.000 NA
ATOM     17  C   UNL     1      48.627   4.603  17.115  0.00  0.00    +0.000 A 
ATOM     18  N   UNL     1      48.536   5.127  15.888  0.00  0.00    +0.000 NA
ATOM     19  C   UNL     1      48.662   6.475  15.763  0.00  0.00    +0.000 A 
ATOM     20  C   UNL     1      48.844   7.292  16.872  0.00  0.00    +0.000 A 
ATOM     21  C   UNL     1      48.957   8.783  16.823  0.00  0.00    +0.000 C 
BRANCH  15  23
ATOM     22  C   UNL     1      50.398   6.752  19.967  0.00  0.00    +0.000 C 
ATOM     23  O   UNL     1      49.378   7.366  19.180  0.00  0.00    +0.000 OA
ENDBRANCH  15  23
ENDBRANCH  14  19
ENDBRANCH   1  14
TORSDOF 5
ENDMDL
