MODEL 1
REMARK VINA RESULT:    -8.425      0.000      0.000
REMARK INTER + INTRA:         -12.928
REMARK INTER:                 -11.627
REMARK INTRA:                  -1.301
REMARK UNBOUND:                -1.301
REMARK  Name = 
REMARK  8 active torsions:
REMARK  status: ('A' for Active; 'I' for Inactive)
REMARK    1  A    between atoms: C_1  and  C_2
REMARK    2  A    between atoms: C_2  and  C_3
REMARK    3  A    between atoms: C_7  and  C_8
REMARK    4  A    between atoms: C_8  and  C_9
REMARK    5  A    between atoms: C_9  and  N_10
REMARK    6  A    between atoms: N_10  and  C_11
REMARK    7  A    between atoms: C_14  and  C_15
REMARK    8  A    between atoms: C_23  and  O_24
REMARK                            x       y       z     vdW  Elec       q    Type
REMARK                         _______ _______ _______ _____ _____    ______ ____
ROOT
ATOM      1  C   UNL     1      47.091   6.289  13.049  0.00  0.00    +0.000 A 
ATOM      2  C   UNL     1      47.560   5.069  13.556  0.00  0.00    +0.000 A 
ATOM      3  C   UNL     1      46.720   3.955  13.651  0.00  0.00    +0.000 A 
ATOM      4  C   UNL     1      45.385   4.041  13.253  0.00  0.00    +0.000 A 
ATOM      5  C   UNL     1      44.885   5.237  12.733  0.00  0.00    +0.000 A 
ATOM      6  C   UNL     1      45.765   6.326  12.614  0.00  0.00    +0.000 A 
ENDROOT
BRANCH   1   8
ATOM      7  C   UNL     1      47.034   8.713  13.526  0.00  0.00    +0.000 C 
ATOM      8  C   UNL     1      47.964   7.562  13.072  0.00  0.00    +0.000 C 
ATOM      9  C   UNL     1      49.137   7.368  14.065  0.00  0.00    +0.000 C 
ATOM     10  C   UNL     1      50.130   8.534  14.082  0.00  0.00    +0.000 C 
ATOM     11  C   UNL     1      50.663   8.884  12.695  0.00  0.00    +0.000 C 
ATOM     12  C   UNL     1      49.536   9.103  11.692  0.00  0.00    +0.000 C 
ATOM     13  C   UNL     1      48.555   7.931  11.673  0.00  0.00    +0.000 C 
BRANCH  11  14
ATOM     14  O   UNL     1      51.536   7.857  12.230  0.00  0.00    +0.000 OA
ATOM     15  H   UNL     1      52.402   8.240  12.026  0.00  0.00    +0.000 HD
ENDBRANCH  11  14
ENDBRANCH   1   8
BRANCH   5  16
ATOM     16  C   UNL     1      43.415   5.369  12.370  0.00  0.00    +0.000 C 
BRANCH  16  17
ATOM     17  C   UNL     1      43.026   4.563  11.122  0.00  0.00    +0.000 C 
BRANCH  17  18
ATOM     18  N   UNL     1      43.742   4.976   9.930  0.00  0.00    +0.000 N 
ATOM     19  H   UNL     1      43.234   5.600   9.311  0.00  0.00    +0.000 HD
BRANCH  18  20
ATOM     20  C   UNL     1      44.491   4.017   9.241  0.00  0.00    +0.000 A 
ATOM     21  C   UNL     1      44.477   2.641   9.524  0.00  0.00    +0.000 A 
ATOM     22  C   UNL     1      45.335   1.752   8.867  0.00  0.00    +0.000 A 
ATOM     23  C   UNL     1      46.249   2.225   7.924  0.00  0.00    +0.000 A 
ATOM     24  C   UNL     1      46.290   3.594   7.646  0.00  0.00    +0.000 A 
ATOM     25  C   UNL     1      45.422   4.473   8.302  0.00  0.00    +0.000 A 
BRANCH  23  26
ATOM     26  C   UNL     1      47.184   1.260   7.295  0.00  0.00    +0.000 C 
ATOM     27  N   UNL     1      48.277   1.765   6.650  0.00  0.00    +0.000 N 
ATOM     28  O   UNL     1      46.978   0.054   7.331  0.00  0.00    +0.000 OA
ATOM     29  H   UNL     1      48.440   2.749   6.495  0.00  0.00    +0.000 HD
ATOM     30  H   UNL     1      48.874   1.099   6.176  0.00  0.00    +0.000 HD
ENDBRANCH  23  26
ENDBRANCH  18  20
ENDBRANCH  17  18
ENDBRANCH  16  17
ENDBRANCH   5  16
TORSDOF 7
ENDMDL
MODEL 2
REMARK VINA RESULT:    -8.054      1.389      2.067
REMARK INTER + INTRA:         -12.416
REMARK INTER:                 -11.291
REMARK INTRA:                  -1.126
REMARK UNBOUND:                -1.301
REMARK  Name = 
REMARK  8 active torsions:
REMARK  status: ('A' for Active; 'I' for Inactive)
REMARK    1  A    between atoms: C_1  and  C_2
REMARK    2  A    between atoms: C_2  and  C_3
REMARK    3  A    between atoms: C_7  and  C_8
REMARK    4  A    between atoms: C_8  and  C_9
REMARK    5  A    between atoms: C_9  and  N_10
REMARK    6  A    between atoms: N_10  and  C_11
REMARK    7  A    between atoms: C_14  and  C_15
REMARK    8  A    between atoms: C_23  and  O_24
REMARK                            x       y       z     vdW  Elec       q    Type
REMARK                         _______ _______ _______ _____ _____    ______ ____
ROOT
ATOM      1  C   UNL     1      47.655   7.028  12.719  0.00  0.00    +0.000 A 
ATOM      2  C   UNL     1      47.894   5.987  13.625  0.00  0.00    +0.000 A 
ATOM      3  C   UNL     1      46.931   5.003  13.869  0.00  0.00    +0.000 A 
ATOM      4  C   UNL     1      45.696   5.047  13.218  0.00  0.00    +0.000 A 
ATOM      5  C   UNL     1      45.425   6.065  12.300  0.00  0.00    +0.000 A 
ATOM      6  C   UNL     1      46.429   7.015  12.049  0.00  0.00    +0.000 A 
ENDROOT
BRANCH   1   8
ATOM      7  C   UNL     1      49.733   7.700  11.563  0.00  0.00    +0.000 C 
ATOM      8  C   UNL     1      48.649   8.197  12.549  0.00  0.00    +0.000 C 
ATOM      9  C   UNL     1      47.903   9.432  11.983  0.00  0.00    +0.000 C 
ATOM     10  C   UNL     1      48.777  10.686  11.879  0.00  0.00    +0.000 C 
ATOM     11  C   UNL     1      49.469  11.041  13.193  0.00  0.00    +0.000 C 
ATOM     12  C   UNL     1      50.231   9.855  13.773  0.00  0.00    +0.000 C 
ATOM     13  C   UNL     1      49.350   8.611  13.883  0.00  0.00    +0.000 C 
BRANCH  11  14
ATOM     14  O   UNL     1      48.512  11.516  14.138  0.00  0.00    +0.000 OA
ATOM     15  H   UNL     1      48.003  10.767  14.481  0.00  0.00    +0.000 HD
ENDBRANCH  11  14
ENDBRANCH   1   8
BRANCH   5  16
ATOM     16  C   UNL     1      44.058   6.171  11.645  0.00  0.00    +0.000 C 
BRANCH  16  17
ATOM     17  C   UNL     1      43.517   4.821  11.151  0.00  0.00    +0.000 C 
BRANCH  17  18
ATOM     18  N   UNL     1      43.525   4.697   9.706  0.00  0.00    +0.000 N 
ATOM     19  H   UNL     1      42.619   4.536   9.278  0.00  0.00    +0.000 HD
BRANCH  18  20
ATOM     20  C   UNL     1      44.549   3.955   9.109  0.00  0.00    +0.000 A 
ATOM     21  C   UNL     1      45.500   4.481   8.219  0.00  0.00    +0.000 A 
ATOM     22  C   UNL     1      46.430   3.658   7.574  0.00  0.00    +0.000 A 
ATOM     23  C   UNL     1      46.414   2.279   7.787  0.00  0.00    +0.000 A 
ATOM     24  C   UNL     1      45.462   1.737   8.654  0.00  0.00    +0.000 A 
ATOM     25  C   UNL     1      44.543   2.569   9.301  0.00  0.00    +0.000 A 
BRANCH  23  26
ATOM     26  C   UNL     1      47.376   1.434   7.037  0.00  0.00    +0.000 C 
ATOM     27  N   UNL     1      48.491   2.040   6.530  0.00  0.00    +0.000 N 
ATOM     28  O   UNL     1      47.174   0.240   6.858  0.00  0.00    +0.000 OA
ATOM     29  H   UNL     1      48.656   3.036   6.552  0.00  0.00    +0.000 HD
ATOM     30  H   UNL     1      49.108   1.464   5.972  0.00  0.00    +0.000 HD
ENDBRANCH  23  26
ENDBRANCH  18  20
ENDBRANCH  17  18
ENDBRANCH  16  17
ENDBRANCH   5  16
TORSDOF 7
ENDMDL
MODEL 3
REMARK VINA RESULT:    -7.775      1.813      2.678
REMARK INTER + INTRA:         -12.030
REMARK INTER:                 -10.926
REMARK INTRA:                  -1.104
REMARK UNBOUND:                -1.301
REMARK  Name = 
REMARK  8 active torsions:
REMARK  status: ('A' for Active; 'I' for Inactive)
REMARK    1  A    between atoms: C_1  and  C_2
REMARK    2  A    between atoms: C_2  and  C_3
REMARK    3  A    between atoms: C_7  and  C_8
REMARK    4  A    between atoms: C_8  and  C_9
REMARK    5  A    between atoms: C_9  and  N_10
REMARK    6  A    between atoms: N_10  and  C_11
REMARK    7  A    between atoms: C_14  and  C_15
REMARK    8  A    between atoms: C_23  and  O_24
REMARK                            x       y       z     vdW  Elec       q    Type
REMARK                         _______ _______ _______ _____ _____    ______ ____
ROOT
ATOM      1  C   UNL     1      46.030   7.101  12.744  0.00  0.00    +0.000 A 
ATOM      2  C   UNL     1      45.433   7.920  11.776  0.00  0.00    +0.000 A 
ATOM      3  C   UNL     1      44.232   7.556  11.160  0.00  0.00    +0.000 A 
ATOM      4  C   UNL     1      43.605   6.353  11.490  0.00  0.00    +0.000 A 
ATOM      5  C   UNL     1      44.165   5.515  12.458  0.00  0.00    +0.000 A 
ATOM      6  C   UNL     1      45.351   5.929  13.086  0.00  0.00    +0.000 A 
ENDROOT
BRANCH   1   8
ATOM      7  C   UNL     1      48.405   7.396  12.130  0.00  0.00    +0.000 C 
ATOM      8  C   UNL     1      47.423   7.420  13.326  0.00  0.00    +0.000 C 
ATOM      9  C   UNL     1      47.396   8.815  13.998  0.00  0.00    +0.000 C 
ATOM     10  C   UNL     1      48.703   9.184  14.707  0.00  0.00    +0.000 C 
ATOM     11  C   UNL     1      49.160   8.124  15.707  0.00  0.00    +0.000 C 
ATOM     12  C   UNL     1      49.218   6.737  15.076  0.00  0.00    +0.000 C 
ATOM     13  C   UNL     1      47.907   6.372  14.380  0.00  0.00    +0.000 C 
BRANCH  11  14
ATOM     14  O   UNL     1      48.291   8.109  16.838  0.00  0.00    +0.000 OA
ATOM     15  H   UNL     1      48.059   9.019  17.074  0.00  0.00    +0.000 HD
ENDBRANCH  11  14
ENDBRANCH   1   8
BRANCH   5  16
ATOM     16  C   UNL     1      43.538   4.166  12.769  0.00  0.00    +0.000 C 
BRANCH  16  17
ATOM     17  C   UNL     1      44.066   3.033  11.878  0.00  0.00    +0.000 C 
BRANCH  17  18
ATOM     18  N   UNL     1      43.711   3.191  10.481  0.00  0.00    +0.000 N 
ATOM     19  H   UNL     1      42.839   2.753  10.202  0.00  0.00    +0.000 HD
BRANCH  18  20
ATOM     20  C   UNL     1      44.720   3.059   9.521  0.00  0.00    +0.000 A 
ATOM     21  C   UNL     1      45.231   4.117   8.752  0.00  0.00    +0.000 A 
ATOM     22  C   UNL     1      46.163   3.895   7.733  0.00  0.00    +0.000 A 
ATOM     23  C   UNL     1      46.588   2.599   7.440  0.00  0.00    +0.000 A 
ATOM     24  C   UNL     1      46.073   1.532   8.182  0.00  0.00    +0.000 A 
ATOM     25  C   UNL     1      45.150   1.766   9.205  0.00  0.00    +0.000 A 
BRANCH  23  26
ATOM     26  C   UNL     1      47.529   2.398   6.311  0.00  0.00    +0.000 C 
ATOM     27  N   UNL     1      47.454   3.269   5.261  0.00  0.00    +0.000 N 
ATOM     28  O   UNL     1      48.333   1.475   6.304  0.00  0.00    +0.000 OA
ATOM     29  H   UNL     1      46.743   3.979   5.162  0.00  0.00    +0.000 HD
ATOM     30  H   UNL     1      48.062   3.085   4.472  0.00  0.00    +0.000 HD
ENDBRANCH  23  26
ENDBRANCH  18  20
ENDBRANCH  17  18
ENDBRANCH  16  17
ENDBRANCH   5  16
TORSDOF 7
ENDMDL
MODEL 4
REMARK VINA RESULT:    -7.532      1.255      2.379
REMARK INTER + INTRA:         -11.696
REMARK INTER:                 -10.686
REMARK INTRA:                  -1.010
REMARK UNBOUND:                -1.301
REMARK  Name = 
REMARK  8 active torsions:
REMARK  status: ('A' for Active; 'I' for Inactive)
REMARK    1  A    between atoms: C_1  and  C_2
REMARK    2  A    between atoms: C_2  and  C_3
REMARK    3  A    between atoms: C_7  and  C_8
REMARK    4  A    between atoms: C_8  and  C_9
REMARK    5  A    between atoms: C_9  and  N_10
REMARK    6  A    between atoms: N_10  and  C_11
REMARK    7  A    between atoms: C_14  and  C_15
REMARK    8  A    between atoms: C_23  and  O_24
REMARK                            x       y       z     vdW  Elec       q    Type
REMARK                         _______ _______ _______ _____ _____    ______ ____
ROOT
ATOM      1  C   UNL     1      47.366   7.984  12.457  0.00  0.00    +0.000 A 
ATOM      2  C   UNL     1      46.476   9.014  12.123  0.00  0.00    +0.000 A 
ATOM      3  C   UNL     1      45.166   8.735  11.723  0.00  0.00    +0.000 A 
ATOM      4  C   UNL     1      44.718   7.416  11.636  0.00  0.00    +0.000 A 
ATOM      5  C   UNL     1      45.574   6.364  11.971  0.00  0.00    +0.000 A 
ATOM      6  C   UNL     1      46.872   6.679  12.406  0.00  0.00    +0.000 A 
ENDROOT
BRANCH   1   8
ATOM      7  C   UNL     1      49.310   7.163  13.744  0.00  0.00    +0.000 C 
ATOM      8  C   UNL     1      48.853   8.267  12.760  0.00  0.00    +0.000 C 
ATOM      9  C   UNL     1      49.668   8.214  11.444  0.00  0.00    +0.000 C 
ATOM     10  C   UNL     1      51.143   8.591  11.616  0.00  0.00    +0.000 C 
ATOM     11  C   UNL     1      51.338   9.940  12.305  0.00  0.00    +0.000 C 
ATOM     12  C   UNL     1      50.565  10.024  13.617  0.00  0.00    +0.000 C 
ATOM     13  C   UNL     1      49.092   9.657  13.435  0.00  0.00    +0.000 C 
BRANCH  11  14
ATOM     14  O   UNL     1      50.939  10.997  11.435  0.00  0.00    +0.000 OA
ATOM     15  H   UNL     1      51.614  11.692  11.446  0.00  0.00    +0.000 HD
ENDBRANCH  11  14
ENDBRANCH   1   8
BRANCH   5  16
ATOM     16  C   UNL     1      45.127   4.921  11.804  0.00  0.00    +0.000 C 
BRANCH  16  17
ATOM     17  C   UNL     1      43.668   4.788  11.344  0.00  0.00    +0.000 C 
BRANCH  17  18
ATOM     18  N   UNL     1      43.536   4.591   9.914  0.00  0.00    +0.000 N 
ATOM     19  H   UNL     1      42.617   4.298   9.597  0.00  0.00    +0.000 HD
BRANCH  18  20
ATOM     20  C   UNL     1      44.576   3.950   9.234  0.00  0.00    +0.000 A 
ATOM     21  C   UNL     1      45.469   4.590   8.358  0.00  0.00    +0.000 A 
ATOM     22  C   UNL     1      46.419   3.867   7.627  0.00  0.00    +0.000 A 
ATOM     23  C   UNL     1      46.480   2.478   7.736  0.00  0.00    +0.000 A 
ATOM     24  C   UNL     1      45.585   1.823   8.587  0.00  0.00    +0.000 A 
ATOM     25  C   UNL     1      44.647   2.556   9.320  0.00  0.00    +0.000 A 
BRANCH  23  26
ATOM     26  C   UNL     1      47.459   1.742   6.898  0.00  0.00    +0.000 C 
ATOM     27  N   UNL     1      48.572   2.417   6.484  0.00  0.00    +0.000 N 
ATOM     28  O   UNL     1      47.271   0.579   6.568  0.00  0.00    +0.000 OA
ATOM     29  H   UNL     1      48.726   3.403   6.632  0.00  0.00    +0.000 HD
ATOM     30  H   UNL     1      49.201   1.921   5.865  0.00  0.00    +0.000 HD
ENDBRANCH  23  26
ENDBRANCH  18  20
ENDBRANCH  17  18
ENDBRANCH  16  17
ENDBRANCH   5  16
TORSDOF 7
ENDMDL
MODEL 5
REMARK VINA RESULT:    -7.028      4.003      7.650
REMARK INTER + INTRA:         -11.000
REMARK INTER:                  -9.285
REMARK INTRA:                  -1.715
REMARK UNBOUND:                -1.301
REMARK  Name = 
REMARK  8 active torsions:
REMARK  status: ('A' for Active; 'I' for Inactive)
REMARK    1  A    between atoms: C_1  and  C_2
REMARK    2  A    between atoms: C_2  and  C_3
REMARK    3  A    between atoms: C_7  and  C_8
REMARK    4  A    between atoms: C_8  and  C_9
REMARK    5  A    between atoms: C_9  and  N_10
REMARK    6  A    between atoms: N_10  and  C_11
REMARK    7  A    between atoms: C_14  and  C_15
REMARK    8  A    between atoms: C_23  and  O_24
REMARK                            x       y       z     vdW  Elec       q    Type
REMARK                         _______ _______ _______ _____ _____    ______ ____
ROOT
ATOM      1  C   UNL     1      45.889   7.127  11.682  0.00  0.00    +0.000 A 
ATOM      2  C   UNL     1      45.102   8.237  12.014  0.00  0.00    +0.000 A 
ATOM      3  C   UNL     1      45.685   9.444  12.412  0.00  0.00    +0.000 A 
ATOM      4  C   UNL     1      47.074   9.563  12.498  0.00  0.00    +0.000 A 
ATOM      5  C   UNL     1      47.891   8.480  12.165  0.00  0.00    +0.000 A 
ATOM      6  C   UNL     1      47.274   7.295  11.731  0.00  0.00    +0.000 A 
ENDROOT
BRANCH   1   8
ATOM      7  C   UNL     1      45.617   5.423   9.911  0.00  0.00    +0.000 C 
ATOM      8  C   UNL     1      45.258   5.750  11.381  0.00  0.00    +0.000 C 
ATOM      9  C   UNL     1      45.844   4.691  12.348  0.00  0.00    +0.000 C 
ATOM     10  C   UNL     1      45.203   3.306  12.208  0.00  0.00    +0.000 C 
ATOM     11  C   UNL     1      43.681   3.340  12.320  0.00  0.00    +0.000 C 
ATOM     12  C   UNL     1      43.064   4.358  11.368  0.00  0.00    +0.000 C 
ATOM     13  C   UNL     1      43.702   5.740  11.521  0.00  0.00    +0.000 C 
BRANCH  11  14
ATOM     14  O   UNL     1      43.294   3.629  13.662  0.00  0.00    +0.000 OA
ATOM     15  H   UNL     1      42.662   4.363  13.661  0.00  0.00    +0.000 HD
ENDBRANCH  11  14
ENDBRANCH   1   8
BRANCH   5  16
ATOM     16  C   UNL     1      49.398   8.570  12.330  0.00  0.00    +0.000 C 
BRANCH  16  17
ATOM     17  C   UNL     1      49.949   7.601  13.387  0.00  0.00    +0.000 C 
BRANCH  17  18
ATOM     18  N   UNL     1      49.557   7.949  14.739  0.00  0.00    +0.000 N 
ATOM     19  H   UNL     1      50.199   8.557  15.237  0.00  0.00    +0.000 HD
BRANCH  18  20
ATOM     20  C   UNL     1      49.017   6.946  15.552  0.00  0.00    +0.000 A 
ATOM     21  C   UNL     1      49.390   6.715  16.886  0.00  0.00    +0.000 A 
ATOM     22  C   UNL     1      48.889   5.625  17.606  0.00  0.00    +0.000 A 
ATOM     23  C   UNL     1      48.017   4.722  16.997  0.00  0.00    +0.000 A 
ATOM     24  C   UNL     1      47.651   4.925  15.663  0.00  0.00    +0.000 A 
ATOM     25  C   UNL     1      48.151   6.023  14.956  0.00  0.00    +0.000 A 
BRANCH  23  26
ATOM     26  C   UNL     1      47.556   3.545  17.774  0.00  0.00    +0.000 C 
ATOM     27  N   UNL     1      48.259   3.214  18.899  0.00  0.00    +0.000 N 
ATOM     28  O   UNL     1      46.595   2.878  17.416  0.00  0.00    +0.000 OA
ATOM     29  H   UNL     1      49.120   3.658  19.181  0.00  0.00    +0.000 HD
ATOM     30  H   UNL     1      47.969   2.375  19.386  0.00  0.00    +0.000 HD
ENDBRANCH  23  26
ENDBRANCH  18  20
ENDBRANCH  17  18
ENDBRANCH  16  17
ENDBRANCH   5  16
TORSDOF 7
ENDMDL
MODEL 6
REMARK VINA RESULT:    -6.912      5.131      8.315
REMARK INTER + INTRA:         -10.841
REMARK INTER:                  -9.934
REMARK INTRA:                  -0.907
REMARK UNBOUND:                -1.301
REMARK  Name = 
REMARK  8 active torsions:
REMARK  status: ('A' for Active; 'I' for Inactive)
REMARK    1  A    between atoms: C_1  and  C_2
REMARK    2  A    between atoms: C_2  and  C_3
REMARK    3  A    between atoms: C_7  and  C_8
REMARK    4  A    between atoms: C_8  and  C_9
REMARK    5  A    between atoms: C_9  and  N_10
REMARK    6  A    between atoms: N_10  and  C_11
REMARK    7  A    between atoms: C_14  and  C_15
REMARK    8  A    between atoms: C_23  and  O_24
REMARK                            x       y       z     vdW  Elec       q    Type
REMARK                         _______ _______ _______ _____ _____    ______ ____
ROOT
ATOM      1  C   UNL     1      46.857   5.965  12.573  0.00  0.00    +0.000 A 
ATOM      2  C   UNL     1      47.423   6.848  11.643  0.00  0.00    +0.000 A 
ATOM      3  C   UNL     1      48.541   7.622  11.969  0.00  0.00    +0.000 A 
ATOM      4  C   UNL     1      49.111   7.541  13.240  0.00  0.00    +0.000 A 
ATOM      5  C   UNL     1      48.580   6.665  14.190  0.00  0.00    +0.000 A 
ATOM      6  C   UNL     1      47.481   5.872  13.819  0.00  0.00    +0.000 A 
ENDROOT
BRANCH   1   8
ATOM      7  C   UNL     1      45.809   3.728  12.616  0.00  0.00    +0.000 C 
ATOM      8  C   UNL     1      45.542   5.214  12.277  0.00  0.00    +0.000 C 
ATOM      9  C   UNL     1      44.406   5.792  13.158  0.00  0.00    +0.000 C 
ATOM     10  C   UNL     1      43.029   5.189  12.863  0.00  0.00    +0.000 C 
ATOM     11  C   UNL     1      42.646   5.269  11.387  0.00  0.00    +0.000 C 
ATOM     12  C   UNL     1      43.732   4.691  10.487  0.00  0.00    +0.000 C 
ATOM     13  C   UNL     1      45.102   5.304  10.780  0.00  0.00    +0.000 C 
BRANCH  11  14
ATOM     14  O   UNL     1      42.379   6.622  11.021  0.00  0.00    +0.000 OA
ATOM     15  H   UNL     1      43.211   7.116  10.997  0.00  0.00    +0.000 HD
ENDBRANCH  11  14
ENDBRANCH   1   8
BRANCH   5  16
ATOM     16  C   UNL     1      49.139   6.624  15.602  0.00  0.00    +0.000 C 
BRANCH  16  17
ATOM     17  C   UNL     1      48.494   5.539  16.478  0.00  0.00    +0.000 C 
BRANCH  17  18
ATOM     18  N   UNL     1      49.184   5.337  17.737  0.00  0.00    +0.000 N 
ATOM     19  H   UNL     1      49.491   6.182  18.206  0.00  0.00    +0.000 HD
BRANCH  18  20
ATOM     20  C   UNL     1      50.117   4.297  17.822  0.00  0.00    +0.000 A 
ATOM     21  C   UNL     1      51.473   4.469  18.143  0.00  0.00    +0.000 A 
ATOM     22  C   UNL     1      52.374   3.399  18.105  0.00  0.00    +0.000 A 
ATOM     23  C   UNL     1      51.941   2.131  17.717  0.00  0.00    +0.000 A 
ATOM     24  C   UNL     1      50.599   1.947  17.373  0.00  0.00    +0.000 A 
ATOM     25  C   UNL     1      49.705   3.021  17.425  0.00  0.00    +0.000 A 
BRANCH  23  26
ATOM     26  C   UNL     1      52.939   1.036  17.628  0.00  0.00    +0.000 C 
ATOM     27  N   UNL     1      52.599  -0.176  18.159  0.00  0.00    +0.000 N 
ATOM     28  O   UNL     1      54.037   1.212  17.116  0.00  0.00    +0.000 OA
ATOM     29  H   UNL     1      51.756  -0.348  18.687  0.00  0.00    +0.000 HD
ATOM     30  H   UNL     1      53.311  -0.895  18.143  0.00  0.00    +0.000 HD
ENDBRANCH  23  26
ENDBRANCH  18  20
ENDBRANCH  17  18
ENDBRANCH  16  17
ENDBRANCH   5  16
TORSDOF 7
ENDMDL
MODEL 7
REMARK VINA RESULT:    -6.854      3.384      5.545
REMARK INTER + INTRA:         -10.761
REMARK INTER:                  -9.356
REMARK INTRA:                  -1.404
REMARK UNBOUND:                -1.301
REMARK  Name = 
REMARK  8 active torsions:
REMARK  status: ('A' for Active; 'I' for Inactive)
REMARK    1  A    between atoms: C_1  and  C_2
REMARK    2  A    between atoms: C_2  and  C_3
REMARK    3  A    between atoms: C_7  and  C_8
REMARK    4  A    between atoms: C_8  and  C_9
REMARK    5  A    between atoms: C_9  and  N_10
REMARK    6  A    between atoms: N_10  and  C_11
REMARK    7  A    between atoms: C_14  and  C_15
REMARK    8  A    between atoms: C_23  and  O_24
REMARK                            x       y       z     vdW  Elec       q    Type
REMARK                         _______ _______ _______ _____ _____    ______ ____
ROOT
ATOM      1  C   UNL     1      48.725   6.583  16.403  0.00  0.00    +0.000 A 
ATOM      2  C   UNL     1      48.902   7.826  17.025  0.00  0.00    +0.000 A 
ATOM      3  C   UNL     1      48.943   9.008  16.279  0.00  0.00    +0.000 A 
ATOM      4  C   UNL     1      48.819   8.972  14.889  0.00  0.00    +0.000 A 
ATOM      5  C   UNL     1      48.631   7.752  14.235  0.00  0.00    +0.000 A 
ATOM      6  C   UNL     1      48.555   6.587  15.016  0.00  0.00    +0.000 A 
ENDROOT
BRANCH   1   8
ATOM      7  C   UNL     1      48.543   5.623  18.673  0.00  0.00    +0.000 C 
ATOM      8  C   UNL     1      48.822   5.261  17.195  0.00  0.00    +0.000 C 
ATOM      9  C   UNL     1      47.771   4.258  16.658  0.00  0.00    +0.000 C 
ATOM     10  C   UNL     1      47.856   2.871  17.302  0.00  0.00    +0.000 C 
ATOM     11  C   UNL     1      49.255   2.263  17.227  0.00  0.00    +0.000 C 
ATOM     12  C   UNL     1      50.317   3.214  17.766  0.00  0.00    +0.000 C 
ATOM     13  C   UNL     1      50.232   4.593  17.110  0.00  0.00    +0.000 C 
BRANCH  11  14
ATOM     14  O   UNL     1      49.561   1.901  15.882  0.00  0.00    +0.000 OA
ATOM     15  H   UNL     1      50.083   1.085  15.881  0.00  0.00    +0.000 HD
ENDBRANCH  11  14
ENDBRANCH   1   8
BRANCH   5  16
ATOM     16  C   UNL     1      48.575   7.689  12.718  0.00  0.00    +0.000 C 
BRANCH  16  17
ATOM     17  C   UNL     1      47.283   8.280  12.135  0.00  0.00    +0.000 C 
BRANCH  17  18
ATOM     18  N   UNL     1      46.091   7.860  12.847  0.00  0.00    +0.000 N 
ATOM     19  H   UNL     1      46.120   7.982  13.854  0.00  0.00    +0.000 HD
BRANCH  18  20
ATOM     20  C   UNL     1      45.473   6.667  12.460  0.00  0.00    +0.000 A 
ATOM     21  C   UNL     1      45.085   5.648  13.345  0.00  0.00    +0.000 A 
ATOM     22  C   UNL     1      44.570   4.433  12.879  0.00  0.00    +0.000 A 
ATOM     23  C   UNL     1      44.455   4.199  11.508  0.00  0.00    +0.000 A 
ATOM     24  C   UNL     1      44.856   5.194  10.613  0.00  0.00    +0.000 A 
ATOM     25  C   UNL     1      45.360   6.408  11.090  0.00  0.00    +0.000 A 
BRANCH  23  26
ATOM     26  C   UNL     1      43.963   2.875  11.053  0.00  0.00    +0.000 C 
ATOM     27  N   UNL     1      44.623   2.276  10.017  0.00  0.00    +0.000 N 
ATOM     28  O   UNL     1      42.990   2.342  11.568  0.00  0.00    +0.000 OA
ATOM     29  H   UNL     1      45.360   2.715   9.484  0.00  0.00    +0.000 HD
ATOM     30  H   UNL     1      44.242   1.402   9.679  0.00  0.00    +0.000 HD
ENDBRANCH  23  26
ENDBRANCH  18  20
ENDBRANCH  17  18
ENDBRANCH  16  17
ENDBRANCH   5  16
TORSDOF 7
ENDMDL
MODEL 8
REMARK VINA RESULT:    -6.547      4.460      7.770
REMARK INTER + INTRA:         -10.336
REMARK INTER:                  -9.105
REMARK INTRA:                  -1.231
REMARK UNBOUND:                -1.301
REMARK  Name = 
REMARK  8 active torsions:
REMARK  status: ('A' for Active; 'I' for Inactive)
REMARK    1  A    between atoms: C_1  and  C_2
REMARK    2  A    between atoms: C_2  and  C_3
REMARK    3  A    between atoms: C_7  and  C_8
REMARK    4  A    between atoms: C_8  and  C_9
REMARK    5  A    between atoms: C_9  and  N_10
REMARK    6  A    between atoms: N_10  and  C_11
REMARK    7  A    between atoms: C_14  and  C_15
REMARK    8  A    between atoms: C_23  and  O_24
REMARK                            x       y       z     vdW  Elec       q    Type
REMARK                         _______ _______ _______ _____ _____    ______ ____
ROOT
ATOM      1  C   UNL     1      46.961   6.874  12.202  0.00  0.00    +0.000 A 
ATOM      2  C   UNL     1      48.033   7.186  11.355  0.00  0.00    +0.000 A 
ATOM      3  C   UNL     1      49.090   7.990  11.793  0.00  0.00    +0.000 A 
ATOM      4  C   UNL     1      49.092   8.512  13.088  0.00  0.00    +0.000 A 
ATOM      5  C   UNL     1      48.045   8.214  13.964  0.00  0.00    +0.000 A 
ATOM      6  C   UNL     1      47.018   7.371  13.506  0.00  0.00    +0.000 A 
ENDROOT
BRANCH   1   8
ATOM      7  C   UNL     1      46.040   5.700  10.232  0.00  0.00    +0.000 C 
ATOM      8  C   UNL     1      45.721   6.109  11.690  0.00  0.00    +0.000 C 
ATOM      9  C   UNL     1      45.478   4.864  12.579  0.00  0.00    +0.000 C 
ATOM     10  C   UNL     1      44.203   4.092  12.223  0.00  0.00    +0.000 C 
ATOM     11  C   UNL     1      42.958   4.976  12.199  0.00  0.00    +0.000 C 
ATOM     12  C   UNL     1      43.152   6.205  11.317  0.00  0.00    +0.000 C 
ATOM     13  C   UNL     1      44.420   6.975  11.684  0.00  0.00    +0.000 C 
BRANCH  11  14
ATOM     14  O   UNL     1      42.613   5.376  13.523  0.00  0.00    +0.000 OA
ATOM     15  H   UNL     1      43.407   5.694  13.978  0.00  0.00    +0.000 HD
ENDBRANCH  11  14
ENDBRANCH   1   8
BRANCH   5  16
ATOM     16  C   UNL     1      47.994   8.839  15.348  0.00  0.00    +0.000 C 
BRANCH  16  17
ATOM     17  C   UNL     1      49.246   8.551  16.189  0.00  0.00    +0.000 C 
BRANCH  17  18
ATOM     18  N   UNL     1      48.964   7.792  17.392  0.00  0.00    +0.000 N 
ATOM     19  H   UNL     1      49.187   8.260  18.264  0.00  0.00    +0.000 HD
BRANCH  18  20
ATOM     20  C   UNL     1      49.283   6.430  17.407  0.00  0.00    +0.000 A 
ATOM     21  C   UNL     1      50.576   5.917  17.601  0.00  0.00    +0.000 A 
ATOM     22  C   UNL     1      50.841   4.548  17.496  0.00  0.00    +0.000 A 
ATOM     23  C   UNL     1      49.818   3.657  17.167  0.00  0.00    +0.000 A 
ATOM     24  C   UNL     1      48.530   4.154  16.950  0.00  0.00    +0.000 A 
ATOM     25  C   UNL     1      48.273   5.523  17.068  0.00  0.00    +0.000 A 
BRANCH  23  26
ATOM     26  C   UNL     1      50.152   2.221  17.004  0.00  0.00    +0.000 C 
ATOM     27  N   UNL     1      51.073   1.683  17.858  0.00  0.00    +0.000 N 
ATOM     28  O   UNL     1      49.639   1.541  16.125  0.00  0.00    +0.000 OA
ATOM     29  H   UNL     1      51.606   2.218  18.528  0.00  0.00    +0.000 HD
ATOM     30  H   UNL     1      51.334   0.718  17.697  0.00  0.00    +0.000 HD
ENDBRANCH  23  26
ENDBRANCH  18  20
ENDBRANCH  17  18
ENDBRANCH  16  17
ENDBRANCH   5  16
TORSDOF 7
ENDMDL
MODEL 9
REMARK VINA RESULT:    -6.349      3.930      6.611
REMARK INTER + INTRA:         -10.063
REMARK INTER:                  -8.450
REMARK INTRA:                  -1.613
REMARK UNBOUND:                -1.301
REMARK  Name = 
REMARK  8 active torsions:
REMARK  status: ('A' for Active; 'I' for Inactive)
REMARK    1  A    between atoms: C_1  and  C_2
REMARK    2  A    between atoms: C_2  and  C_3
REMARK    3  A    between atoms: C_7  and  C_8
REMARK    4  A    between atoms: C_8  and  C_9
REMARK    5  A    between atoms: C_9  and  N_10
REMARK    6  A    between atoms: N_10  and  C_11
REMARK    7  A    between atoms: C_14  and  C_15
REMARK    8  A    between atoms: C_23  and  O_24
REMARK                            x       y       z     vdW  Elec       q    Type
REMARK                         _______ _______ _______ _____ _____    ______ ____
ROOT
ATOM      1  C   UNL     1      48.253   6.708  17.954  0.00  0.00    +0.000 A 
ATOM      2  C   UNL     1      47.759   7.517  18.986  0.00  0.00    +0.000 A 
ATOM      3  C   UNL     1      47.704   8.908  18.852  0.00  0.00    +0.000 A 
ATOM      4  C   UNL     1      48.157   9.523  17.683  0.00  0.00    +0.000 A 
ATOM      5  C   UNL     1      48.647   8.749  16.629  0.00  0.00    +0.000 A 
ATOM      6  C   UNL     1      48.652   7.352  16.780  0.00  0.00    +0.000 A 
ENDROOT
BRANCH   1   8
ATOM      7  C   UNL     1      48.634   4.963  19.663  0.00  0.00    +0.000 C 
ATOM      8  C   UNL     1      48.453   5.189  18.142  0.00  0.00    +0.000 C 
ATOM      9  C   UNL     1      47.209   4.434  17.610  0.00  0.00    +0.000 C 
ATOM     10  C   UNL     1      47.350   2.909  17.648  0.00  0.00    +0.000 C 
ATOM     11  C   UNL     1      48.612   2.409  16.949  0.00  0.00    +0.000 C 
ATOM     12  C   UNL     1      49.862   3.115  17.460  0.00  0.00    +0.000 C 
ATOM     13  C   UNL     1      49.718   4.637  17.409  0.00  0.00    +0.000 C 
BRANCH  11  14
ATOM     14  O   UNL     1      48.494   2.586  15.538  0.00  0.00    +0.000 OA
ATOM     15  H   UNL     1      49.333   2.349  15.116  0.00  0.00    +0.000 HD
ENDBRANCH  11  14
ENDBRANCH   1   8
BRANCH   5  16
ATOM     16  C   UNL     1      49.217   9.409  15.385  0.00  0.00    +0.000 C 
BRANCH  16  17
ATOM     17  C   UNL     1      49.053   8.555  14.118  0.00  0.00    +0.000 C 
BRANCH  17  18
ATOM     18  N   UNL     1      47.746   8.689  13.505  0.00  0.00    +0.000 N 
ATOM     19  H   UNL     1      47.144   9.398  13.912  0.00  0.00    +0.000 HD
BRANCH  18  20
ATOM     20  C   UNL     1      47.055   7.525  13.154  0.00  0.00    +0.000 A 
ATOM     21  C   UNL     1      45.854   7.500  12.426  0.00  0.00    +0.000 A 
ATOM     22  C   UNL     1      45.159   6.306  12.205  0.00  0.00    +0.000 A 
ATOM     23  C   UNL     1      45.639   5.106  12.731  0.00  0.00    +0.000 A 
ATOM     24  C   UNL     1      46.822   5.116  13.476  0.00  0.00    +0.000 A 
ATOM     25  C   UNL     1      47.513   6.313  13.683  0.00  0.00    +0.000 A 
BRANCH  23  26
ATOM     26  C   UNL     1      44.841   3.871  12.528  0.00  0.00    +0.000 C 
ATOM     27  N   UNL     1      43.721   3.708  13.293  0.00  0.00    +0.000 N 
ATOM     28  O   UNL     1      45.180   3.017  11.720  0.00  0.00    +0.000 OA
ATOM     29  H   UNL     1      43.453   4.324  14.047  0.00  0.00    +0.000 HD
ATOM     30  H   UNL     1      43.219   2.836  13.185  0.00  0.00    +0.000 HD
ENDBRANCH  23  26
ENDBRANCH  18  20
ENDBRANCH  17  18
ENDBRANCH  16  17
ENDBRANCH   5  16
TORSDOF 7
ENDMDL
