MODEL 1
REMARK VINA RESULT:    -8.868      0.000      0.000
REMARK INTER + INTRA:         -10.955
REMARK INTER:                 -10.423
REMARK INTRA:                  -0.531
REMARK UNBOUND:                -0.531
REMARK  Name = 
REMARK  3 active torsions:
REMARK  status: ('A' for Active; 'I' for Inactive)
REMARK    1  A    between atoms: C_2  and  C_4
REMARK    2  A    between atoms: N_8  and  C_9
REMARK    3  A    between atoms: C_9  and  C_10
REMARK                            x       y       z     vdW  Elec       q    Type
REMARK                         _______ _______ _______ _____ _____    ______ ____
ROOT
ATOM      1  C   UNL     1      44.002   4.946  11.295  0.00  0.00    +0.000 C 
ENDROOT
BRANCH   1   2
ATOM      2  C   UNL     1      45.273   4.983  12.108  0.00  0.00    +0.000 A 
ATOM      3  C   UNL     1      45.641   3.906  12.912  0.00  0.00    +0.000 A 
ATOM      4  C   UNL     1      46.759   4.036  13.727  0.00  0.00    +0.000 A 
ATOM      5  N   UNL     1      47.532   5.144  13.791  0.00  0.00    +0.000 NA
ATOM      6  C   UNL     1      47.196   6.180  13.001  0.00  0.00    +0.000 A 
ATOM      7  N   UNL     1      47.938   7.362  12.993  0.00  0.00    +0.000 N 
ATOM      8  C   UNL     1      48.817   7.608  14.142  0.00  0.00    +0.000 C 
ATOM      9  C   UNL     1      49.296   9.084  14.074  0.00  0.00    +0.000 C 
ATOM     10  N   UNL     1      49.954   9.453  12.797  0.00  0.00    +0.000 NA
ATOM     11  C   UNL     1      49.066   9.085  11.669  0.00  0.00    +0.000 C 
ATOM     12  C   UNL     1      48.612   7.611  11.706  0.00  0.00    +0.000 C 
ATOM     13  C   UNL     1      46.063   6.130  12.183  0.00  0.00    +0.000 A 
ATOM     14  H   UNL     1      50.804   8.898  12.714  0.00  0.00    +0.000 HD
ENDBRANCH   1   2
BRANCH   1  19
ATOM     15  C   UNL     1      46.468   2.367   7.608  0.00  0.00    +0.000 A 
ATOM     16  C   UNL     1      45.767   1.869   8.701  0.00  0.00    +0.000 A 
ATOM     17  C   UNL     1      45.023   2.744   9.487  0.00  0.00    +0.000 A 
ATOM     18  C   UNL     1      45.001   4.102   9.186  0.00  0.00    +0.000 A 
ATOM     19  N   UNL     1      44.207   5.006   9.856  0.00  0.00    +0.000 N 
ATOM     20  N   UNL     1      45.698   4.599   8.145  0.00  0.00    +0.000 NA
ATOM     21  C   UNL     1      46.422   3.734   7.384  0.00  0.00    +0.000 A 
ATOM     22  H   UNL     1      44.390   5.932   9.477  0.00  0.00    +0.000 HD
BRANCH  15  24
ATOM     23  N   UNL     1      48.260   2.096   5.992  0.00  0.00    +0.000 N 
ATOM     24  C   UNL     1      47.253   1.502   6.702  0.00  0.00    +0.000 C 
ATOM     25  O   UNL     1      47.036   0.301   6.616  0.00  0.00    +0.000 OA
ATOM     26  H   UNL     1      48.854   1.483   5.448  0.00  0.00    +0.000 HD
ATOM     27  H   UNL     1      48.624   3.010   6.222  0.00  0.00    +0.000 HD
ENDBRANCH  15  24
ENDBRANCH   1  19
TORSDOF 3
ENDMDL
MODEL 2
REMARK VINA RESULT:    -7.493      1.941      2.882
REMARK INTER + INTRA:          -9.338
REMARK INTER:                  -8.958
REMARK INTRA:                  -0.380
REMARK UNBOUND:                -0.531
REMARK  Name = 
REMARK  3 active torsions:
REMARK  status: ('A' for Active; 'I' for Inactive)
REMARK    1  A    between atoms: C_2  and  C_4
REMARK    2  A    between atoms: N_8  and  C_9
REMARK    3  A    between atoms: C_9  and  C_10
REMARK                            x       y       z     vdW  Elec       q    Type
REMARK                         _______ _______ _______ _____ _____    ______ ____
ROOT
ATOM      1  C   UNL     1      43.443   3.151  10.819  0.00  0.00    +0.000 C 
ENDROOT
BRANCH   1   2
ATOM      2  C   UNL     1      43.881   4.448  11.454  0.00  0.00    +0.000 A 
ATOM      3  C   UNL     1      43.185   5.633  11.221  0.00  0.00    +0.000 A 
ATOM      4  C   UNL     1      43.696   6.817  11.737  0.00  0.00    +0.000 A 
ATOM      5  N   UNL     1      44.831   6.905  12.467  0.00  0.00    +0.000 NA
ATOM      6  C   UNL     1      45.498   5.762  12.716  0.00  0.00    +0.000 A 
ATOM      7  N   UNL     1      46.674   5.753  13.466  0.00  0.00    +0.000 N 
ATOM      8  C   UNL     1      47.384   7.028  13.615  0.00  0.00    +0.000 C 
ATOM      9  C   UNL     1      48.789   6.732  14.207  0.00  0.00    +0.000 C 
ATOM     10  N   UNL     1      48.765   5.971  15.480  0.00  0.00    +0.000 NA
ATOM     11  C   UNL     1      47.948   4.747  15.300  0.00  0.00    +0.000 C 
ATOM     12  C   UNL     1      46.538   5.033  14.745  0.00  0.00    +0.000 C 
ATOM     13  C   UNL     1      45.059   4.540  12.197  0.00  0.00    +0.000 A 
ATOM     14  H   UNL     1      48.303   6.549  16.179  0.00  0.00    +0.000 HD
ENDBRANCH   1   2
BRANCH   1  19
ATOM     15  C   UNL     1      46.811   2.419   7.018  0.00  0.00    +0.000 A 
ATOM     16  C   UNL     1      46.373   3.615   7.576  0.00  0.00    +0.000 A 
ATOM     17  C   UNL     1      45.581   3.581   8.721  0.00  0.00    +0.000 A 
ATOM     18  C   UNL     1      45.224   2.360   9.283  0.00  0.00    +0.000 A 
ATOM     19  N   UNL     1      44.533   2.254  10.470  0.00  0.00    +0.000 N 
ATOM     20  N   UNL     1      45.622   1.194   8.735  0.00  0.00    +0.000 NA
ATOM     21  C   UNL     1      46.394   1.241   7.616  0.00  0.00    +0.000 A 
ATOM     22  H   UNL     1      44.366   1.268  10.653  0.00  0.00    +0.000 HD
BRANCH  15  24
ATOM     23  N   UNL     1      47.491   3.331   4.873  0.00  0.00    +0.000 N 
ATOM     24  C   UNL     1      47.682   2.368   5.825  0.00  0.00    +0.000 C 
ATOM     25  O   UNL     1      48.560   1.524   5.708  0.00  0.00    +0.000 OA
ATOM     26  H   UNL     1      48.152   3.349   4.106  0.00  0.00    +0.000 HD
ATOM     27  H   UNL     1      46.961   4.174   5.047  0.00  0.00    +0.000 HD
ENDBRANCH  15  24
ENDBRANCH   1  19
TORSDOF 3
ENDMDL
MODEL 3
REMARK VINA RESULT:    -7.339      1.658      2.406
REMARK INTER + INTRA:          -9.157
REMARK INTER:                  -8.745
REMARK INTRA:                  -0.412
REMARK UNBOUND:                -0.531
REMARK  Name = 
REMARK  3 active torsions:
REMARK  status: ('A' for Active; 'I' for Inactive)
REMARK    1  A    between atoms: C_2  and  C_4
REMARK    2  A    between atoms: N_8  and  C_9
REMARK    3  A    between atoms: C_9  and  C_10
REMARK                            x       y       z     vdW  Elec       q    Type
REMARK                         _______ _______ _______ _____ _____    ______ ____
ROOT
ATOM      1  C   UNL     1      43.948   5.470  10.980  0.00  0.00    +0.000 C 
ENDROOT
BRANCH   1   2
ATOM      2  C   UNL     1      44.586   6.769  11.411  0.00  0.00    +0.000 A 
ATOM      3  C   UNL     1      43.929   7.985  11.232  0.00  0.00    +0.000 A 
ATOM      4  C   UNL     1      44.605   9.158  11.539  0.00  0.00    +0.000 A 
ATOM      5  N   UNL     1      45.870   9.208  12.016  0.00  0.00    +0.000 NA
ATOM      6  C   UNL     1      46.504   8.037  12.212  0.00  0.00    +0.000 A 
ATOM      7  N   UNL     1      47.808   7.988  12.707  0.00  0.00    +0.000 N 
ATOM      8  C   UNL     1      48.608   9.214  12.609  0.00  0.00    +0.000 C 
ATOM      9  C   UNL     1      50.085   8.852  12.926  0.00  0.00    +0.000 C 
ATOM     10  N   UNL     1      50.280   8.177  14.233  0.00  0.00    +0.000 NA
ATOM     11  C   UNL     1      49.372   7.009  14.317  0.00  0.00    +0.000 C 
ATOM     12  C   UNL     1      47.896   7.363  14.039  0.00  0.00    +0.000 C 
ATOM     13  C   UNL     1      45.895   6.820  11.890  0.00  0.00    +0.000 A 
ATOM     14  H   UNL     1      50.009   8.832  14.964  0.00  0.00    +0.000 HD
ENDBRANCH   1   2
BRANCH   1  19
ATOM     15  C   UNL     1      46.274   2.028   7.968  0.00  0.00    +0.000 A 
ATOM     16  C   UNL     1      45.615   1.826   9.176  0.00  0.00    +0.000 A 
ATOM     17  C   UNL     1      44.901   2.877   9.745  0.00  0.00    +0.000 A 
ATOM     18  C   UNL     1      44.868   4.116   9.115  0.00  0.00    +0.000 A 
ATOM     19  N   UNL     1      44.098   5.167   9.566  0.00  0.00    +0.000 N 
ATOM     20  N   UNL     1      45.524   4.331   7.957  0.00  0.00    +0.000 NA
ATOM     21  C   UNL     1      46.219   3.296   7.411  0.00  0.00    +0.000 A 
ATOM     22  H   UNL     1      44.267   5.966   8.961  0.00  0.00    +0.000 HD
BRANCH  15  24
ATOM     23  N   UNL     1      46.735  -0.332   7.635  0.00  0.00    +0.000 N 
ATOM     24  C   UNL     1      47.024   0.957   7.280  0.00  0.00    +0.000 C 
ATOM     25  O   UNL     1      47.842   1.208   6.405  0.00  0.00    +0.000 OA
ATOM     26  H   UNL     1      47.181  -1.063   7.094  0.00  0.00    +0.000 HD
ATOM     27  H   UNL     1      45.907  -0.582   8.157  0.00  0.00    +0.000 HD
ENDBRANCH  15  24
ENDBRANCH   1  19
TORSDOF 3
ENDMDL
MODEL 4
REMARK VINA RESULT:    -7.315      2.865      6.921
REMARK INTER + INTRA:          -9.129
REMARK INTER:                  -8.635
REMARK INTRA:                  -0.494
REMARK UNBOUND:                -0.531
REMARK  Name = 
REMARK  3 active torsions:
REMARK  status: ('A' for Active; 'I' for Inactive)
REMARK    1  A    between atoms: C_2  and  C_4
REMARK    2  A    between atoms: N_8  and  C_9
REMARK    3  A    between atoms: C_9  and  C_10
REMARK                            x       y       z     vdW  Elec       q    Type
REMARK                         _______ _______ _______ _____ _____    ______ ____
ROOT
ATOM      1  C   UNL     1      44.730   6.416  12.562  0.00  0.00    +0.000 C 
ENDROOT
BRANCH   1   2
ATOM      2  C   UNL     1      44.363   5.141  11.842  0.00  0.00    +0.000 A 
ATOM      3  C   UNL     1      43.337   4.322  12.311  0.00  0.00    +0.000 A 
ATOM      4  C   UNL     1      43.116   3.105  11.679  0.00  0.00    +0.000 A 
ATOM      5  N   UNL     1      43.827   2.654  10.621  0.00  0.00    +0.000 NA
ATOM      6  C   UNL     1      44.805   3.449  10.147  0.00  0.00    +0.000 A 
ATOM      7  N   UNL     1      45.586   3.072   9.055  0.00  0.00    +0.000 N 
ATOM      8  C   UNL     1      45.607   1.647   8.707  0.00  0.00    +0.000 C 
ATOM      9  C   UNL     1      46.753   1.417   7.683  0.00  0.00    +0.000 C 
ATOM     10  N   UNL     1      46.670   2.272   6.473  0.00  0.00    +0.000 NA
ATOM     11  C   UNL     1      46.545   3.690   6.888  0.00  0.00    +0.000 C 
ATOM     12  C   UNL     1      45.388   3.936   7.877  0.00  0.00    +0.000 C 
ATOM     13  C   UNL     1      45.105   4.671  10.759  0.00  0.00    +0.000 A 
ATOM     14  H   UNL     1      45.819   2.021   5.974  0.00  0.00    +0.000 HD
ENDBRANCH   1   2
BRANCH   1  19
ATOM     15  C   UNL     1      49.535   8.154  12.093  0.00  0.00    +0.000 A 
ATOM     16  C   UNL     1      48.340   8.810  11.818  0.00  0.00    +0.000 A 
ATOM     17  C   UNL     1      47.136   8.211  12.182  0.00  0.00    +0.000 A 
ATOM     18  C   UNL     1      47.139   6.964  12.796  0.00  0.00    +0.000 A 
ATOM     19  N   UNL     1      45.997   6.361  13.275  0.00  0.00    +0.000 N 
ATOM     20  N   UNL     1      48.291   6.307  13.043  0.00  0.00    +0.000 NA
ATOM     21  C   UNL     1      49.460   6.903  12.683  0.00  0.00    +0.000 A 
ATOM     22  H   UNL     1      46.251   5.449  13.648  0.00  0.00    +0.000 HD
BRANCH  15  24
ATOM     23  N   UNL     1      51.915   7.873  11.704  0.00  0.00    +0.000 N 
ATOM     24  C   UNL     1      50.855   8.736  11.773  0.00  0.00    +0.000 C 
ATOM     25  O   UNL     1      50.991   9.930  11.544  0.00  0.00    +0.000 OA
ATOM     26  H   UNL     1      52.796   8.261  11.391  0.00  0.00    +0.000 HD
ATOM     27  H   UNL     1      51.800   6.871  11.638  0.00  0.00    +0.000 HD
ENDBRANCH  15  24
ENDBRANCH   1  19
TORSDOF 3
ENDMDL
MODEL 5
REMARK VINA RESULT:    -7.213      2.151      3.673
REMARK INTER + INTRA:          -9.009
REMARK INTER:                  -8.570
REMARK INTRA:                  -0.439
REMARK UNBOUND:                -0.531
REMARK  Name = 
REMARK  3 active torsions:
REMARK  status: ('A' for Active; 'I' for Inactive)
REMARK    1  A    between atoms: C_2  and  C_4
REMARK    2  A    between atoms: N_8  and  C_9
REMARK    3  A    between atoms: C_9  and  C_10
REMARK                            x       y       z     vdW  Elec       q    Type
REMARK                         _______ _______ _______ _____ _____    ______ ____
ROOT
ATOM      1  C   UNL     1      44.560   4.251  12.094  0.00  0.00    +0.000 C 
ENDROOT
BRANCH   1   2
ATOM      2  C   UNL     1      45.656   4.879  12.920  0.00  0.00    +0.000 A 
ATOM      3  C   UNL     1      46.239   6.086  12.539  0.00  0.00    +0.000 A 
ATOM      4  C   UNL     1      47.320   6.563  13.270  0.00  0.00    +0.000 A 
ATOM      5  N   UNL     1      47.850   5.937  14.345  0.00  0.00    +0.000 NA
ATOM      6  C   UNL     1      47.279   4.781  14.733  0.00  0.00    +0.000 A 
ATOM      7  N   UNL     1      47.752   4.067  15.834  0.00  0.00    +0.000 N 
ATOM      8  C   UNL     1      49.113   4.369  16.294  0.00  0.00    +0.000 C 
ATOM      9  C   UNL     1      49.534   3.270  17.307  0.00  0.00    +0.000 C 
ATOM     10  N   UNL     1      48.600   3.100  18.447  0.00  0.00    +0.000 NA
ATOM     11  C   UNL     1      47.227   2.904  17.924  0.00  0.00    +0.000 C 
ATOM     12  C   UNL     1      46.784   4.010  16.944  0.00  0.00    +0.000 C 
ATOM     13  C   UNL     1      46.211   4.226  14.021  0.00  0.00    +0.000 A 
ATOM     14  H   UNL     1      48.605   3.966  18.983  0.00  0.00    +0.000 HD
ENDBRANCH   1   2
BRANCH   1  19
ATOM     15  C   UNL     1      46.382   2.782   7.527  0.00  0.00    +0.000 A 
ATOM     16  C   UNL     1      45.862   1.998   8.552  0.00  0.00    +0.000 A 
ATOM     17  C   UNL     1      45.261   2.618   9.644  0.00  0.00    +0.000 A 
ATOM     18  C   UNL     1      45.201   4.006   9.709  0.00  0.00    +0.000 A 
ATOM     19  N   UNL     1      44.531   4.682  10.705  0.00  0.00    +0.000 N 
ATOM     20  N   UNL     1      45.725   4.776   8.734  0.00  0.00    +0.000 NA
ATOM     21  C   UNL     1      46.310   4.158   7.673  0.00  0.00    +0.000 A 
ATOM     22  H   UNL     1      44.658   5.679  10.553  0.00  0.00    +0.000 HD
BRANCH  15  24
ATOM     23  N   UNL     1      47.412   3.079   5.349  0.00  0.00    +0.000 N 
ATOM     24  C   UNL     1      47.004   2.204   6.318  0.00  0.00    +0.000 C 
ATOM     25  O   UNL     1      47.179   0.999   6.201  0.00  0.00    +0.000 OA
ATOM     26  H   UNL     1      47.923   2.686   4.568  0.00  0.00    +0.000 HD
ATOM     27  H   UNL     1      47.513   4.071   5.516  0.00  0.00    +0.000 HD
ENDBRANCH  15  24
ENDBRANCH   1  19
TORSDOF 3
ENDMDL
MODEL 6
REMARK VINA RESULT:    -6.815      4.474      8.123
REMARK INTER + INTRA:          -8.541
REMARK INTER:                  -8.102
REMARK INTRA:                  -0.439
REMARK UNBOUND:                -0.531
REMARK  Name = 
REMARK  3 active torsions:
REMARK  status: ('A' for Active; 'I' for Inactive)
REMARK    1  A    between atoms: C_2  and  C_4
REMARK    2  A    between atoms: N_8  and  C_9
REMARK    3  A    between atoms: C_9  and  C_10
REMARK                            x       y       z     vdW  Elec       q    Type
REMARK                         _______ _______ _______ _____ _____    ______ ____
ROOT
ATOM      1  C   UNL     1      48.293   6.425  15.854  0.00  0.00    +0.000 C 
ENDROOT
BRANCH   1   2
ATOM      2  C   UNL     1      47.885   6.386  14.401  0.00  0.00    +0.000 A 
ATOM      3  C   UNL     1      48.618   7.069  13.431  0.00  0.00    +0.000 A 
ATOM      4  C   UNL     1      48.136   7.095  12.129  0.00  0.00    +0.000 A 
ATOM      5  N   UNL     1      46.996   6.490  11.725  0.00  0.00    +0.000 NA
ATOM      6  C   UNL     1      46.294   5.809  12.651  0.00  0.00    +0.000 A 
ATOM      7  N   UNL     1      45.110   5.147  12.326  0.00  0.00    +0.000 N 
ATOM      8  C   UNL     1      44.435   5.549  11.086  0.00  0.00    +0.000 C 
ATOM      9  C   UNL     1      43.016   4.918  11.083  0.00  0.00    +0.000 C 
ATOM     10  N   UNL     1      43.004   3.444  11.256  0.00  0.00    +0.000 NA
ATOM     11  C   UNL     1      43.787   3.090  12.463  0.00  0.00    +0.000 C 
ATOM     12  C   UNL     1      45.212   3.683  12.461  0.00  0.00    +0.000 C 
ATOM     13  C   UNL     1      46.703   5.773  13.987  0.00  0.00    +0.000 A 
ATOM     14  H   UNL     1      43.475   3.034  10.451  0.00  0.00    +0.000 HD
ENDBRANCH   1   2
BRANCH   1  19
ATOM     15  C   UNL     1      51.137   2.457  17.434  0.00  0.00    +0.000 A 
ATOM     16  C   UNL     1      51.443   3.813  17.456  0.00  0.00    +0.000 A 
ATOM     17  C   UNL     1      50.454   4.739  17.137  0.00  0.00    +0.000 A 
ATOM     18  C   UNL     1      49.182   4.303  16.784  0.00  0.00    +0.000 A 
ATOM     19  N   UNL     1      48.129   5.163  16.558  0.00  0.00    +0.000 N 
ATOM     20  N   UNL     1      48.881   2.990  16.733  0.00  0.00    +0.000 NA
ATOM     21  C   UNL     1      49.856   2.095  17.047  0.00  0.00    +0.000 A 
ATOM     22  H   UNL     1      47.320   4.611  16.286  0.00  0.00    +0.000 HD
BRANCH  15  24
ATOM     23  N   UNL     1      51.620   0.187  18.147  0.00  0.00    +0.000 N 
ATOM     24  C   UNL     1      52.117   1.411  17.793  0.00  0.00    +0.000 C 
ATOM     25  O   UNL     1      53.322   1.618  17.743  0.00  0.00    +0.000 OA
ATOM     26  H   UNL     1      52.296  -0.551  18.298  0.00  0.00    +0.000 HD
ATOM     27  H   UNL     1      50.666  -0.090  17.959  0.00  0.00    +0.000 HD
ENDBRANCH  15  24
ENDBRANCH   1  19
TORSDOF 3
ENDMDL
MODEL 7
REMARK VINA RESULT:    -6.573      3.533      5.631
REMARK INTER + INTRA:          -8.257
REMARK INTER:                  -7.785
REMARK INTRA:                  -0.472
REMARK UNBOUND:                -0.531
REMARK  Name = 
REMARK  3 active torsions:
REMARK  status: ('A' for Active; 'I' for Inactive)
REMARK    1  A    between atoms: C_2  and  C_4
REMARK    2  A    between atoms: N_8  and  C_9
REMARK    3  A    between atoms: C_9  and  C_10
REMARK                            x       y       z     vdW  Elec       q    Type
REMARK                         _______ _______ _______ _____ _____    ______ ____
ROOT
ATOM      1  C   UNL     1      48.620   7.196  13.165  0.00  0.00    +0.000 C 
ENDROOT
BRANCH   1   2
ATOM      2  C   UNL     1      48.507   7.489  14.641  0.00  0.00    +0.000 A 
ATOM      3  C   UNL     1      48.315   8.791  15.101  0.00  0.00    +0.000 A 
ATOM      4  C   UNL     1      48.332   9.022  16.471  0.00  0.00    +0.000 A 
ATOM      5  N   UNL     1      48.515   8.060  17.405  0.00  0.00    +0.000 NA
ATOM      6  C   UNL     1      48.678   6.797  16.969  0.00  0.00    +0.000 A 
ATOM      7  N   UNL     1      48.866   5.739  17.859  0.00  0.00    +0.000 N 
ATOM      8  C   UNL     1      49.296   6.075  19.220  0.00  0.00    +0.000 C 
ATOM      9  C   UNL     1      49.731   4.762  19.927  0.00  0.00    +0.000 C 
ATOM     10  N   UNL     1      48.696   3.700  19.931  0.00  0.00    +0.000 NA
ATOM     11  C   UNL     1      48.224   3.476  18.543  0.00  0.00    +0.000 C 
ATOM     12  C   UNL     1      47.756   4.769  17.844  0.00  0.00    +0.000 C 
ATOM     13  C   UNL     1      48.708   6.500  15.603  0.00  0.00    +0.000 A 
ATOM     14  H   UNL     1      47.905   4.040  20.474  0.00  0.00    +0.000 HD
ENDBRANCH   1   2
BRANCH   1  19
ATOM     15  C   UNL     1      44.975   4.067  11.362  0.00  0.00    +0.000 A 
ATOM     16  C   UNL     1      45.661   4.002  12.570  0.00  0.00    +0.000 A 
ATOM     17  C   UNL     1      46.492   5.056  12.938  0.00  0.00    +0.000 A 
ATOM     18  C   UNL     1      46.642   6.151  12.093  0.00  0.00    +0.000 A 
ATOM     19  N   UNL     1      47.363   7.273  12.438  0.00  0.00    +0.000 N 
ATOM     20  N   UNL     1      46.001   6.213  10.908  0.00  0.00    +0.000 NA
ATOM     21  C   UNL     1      45.193   5.176  10.559  0.00  0.00    +0.000 A 
ATOM     22  H   UNL     1      47.350   7.914  11.649  0.00  0.00    +0.000 HD
BRANCH  15  24
ATOM     23  N   UNL     1      44.484   2.179   9.917  0.00  0.00    +0.000 N 
ATOM     24  C   UNL     1      44.047   3.009  10.913  0.00  0.00    +0.000 C 
ATOM     25  O   UNL     1      42.950   2.856  11.432  0.00  0.00    +0.000 OA
ATOM     26  H   UNL     1      43.884   1.398   9.681  0.00  0.00    +0.000 HD
ATOM     27  H   UNL     1      45.456   2.115   9.646  0.00  0.00    +0.000 HD
ENDBRANCH  15  24
ENDBRANCH   1  19
TORSDOF 3
ENDMDL
MODEL 8
REMARK VINA RESULT:    -5.892      4.329      8.284
REMARK INTER + INTRA:          -7.457
REMARK INTER:                  -7.120
REMARK INTRA:                  -0.337
REMARK UNBOUND:                -0.531
REMARK  Name = 
REMARK  3 active torsions:
REMARK  status: ('A' for Active; 'I' for Inactive)
REMARK    1  A    between atoms: C_2  and  C_4
REMARK    2  A    between atoms: N_8  and  C_9
REMARK    3  A    between atoms: C_9  and  C_10
REMARK                            x       y       z     vdW  Elec       q    Type
REMARK                         _______ _______ _______ _____ _____    ______ ____
ROOT
ATOM      1  C   UNL     1      48.534   7.882  14.386  0.00  0.00    +0.000 C 
ENDROOT
BRANCH   1   2
ATOM      2  C   UNL     1      47.383   8.008  13.417  0.00  0.00    +0.000 A 
ATOM      3  C   UNL     1      47.012   9.249  12.902  0.00  0.00    +0.000 A 
ATOM      4  C   UNL     1      45.877   9.326  12.105  0.00  0.00    +0.000 A 
ATOM      5  N   UNL     1      45.098   8.268  11.781  0.00  0.00    +0.000 NA
ATOM      6  C   UNL     1      45.462   7.063  12.257  0.00  0.00    +0.000 A 
ATOM      7  N   UNL     1      44.725   5.913  11.970  0.00  0.00    +0.000 N 
ATOM      8  C   UNL     1      43.346   6.100  11.507  0.00  0.00    +0.000 C 
ATOM      9  C   UNL     1      42.633   4.720  11.545  0.00  0.00    +0.000 C 
ATOM     10  N   UNL     1      43.325   3.655  10.778  0.00  0.00    +0.000 NA
ATOM     11  C   UNL     1      44.740   3.584  11.215  0.00  0.00    +0.000 C 
ATOM     12  C   UNL     1      45.468   4.942  11.147  0.00  0.00    +0.000 C 
ATOM     13  C   UNL     1      46.573   6.919  13.094  0.00  0.00    +0.000 A 
ATOM     14  H   UNL     1      43.319   3.926   9.797  0.00  0.00    +0.000 HD
ENDBRANCH   1   2
BRANCH   1  19
ATOM     15  C   UNL     1      50.914   4.618  17.550  0.00  0.00    +0.000 A 
ATOM     16  C   UNL     1      51.395   5.797  16.989  0.00  0.00    +0.000 A 
ATOM     17  C   UNL     1      50.520   6.625  16.292  0.00  0.00    +0.000 A 
ATOM     18  C   UNL     1      49.186   6.261  16.148  0.00  0.00    +0.000 A 
ATOM     19  N   UNL     1      48.243   7.079  15.563  0.00  0.00    +0.000 N 
ATOM     20  N   UNL     1      48.714   5.108  16.665  0.00  0.00    +0.000 NA
ATOM     21  C   UNL     1      49.580   4.307  17.343  0.00  0.00    +0.000 A 
ATOM     22  H   UNL     1      47.357   6.581  15.547  0.00  0.00    +0.000 HD
BRANCH  15  24
ATOM     23  N   UNL     1      51.785   2.388  17.953  0.00  0.00    +0.000 N 
ATOM     24  C   UNL     1      51.768   3.702  18.334  0.00  0.00    +0.000 C 
ATOM     25  O   UNL     1      52.457   4.104  19.262  0.00  0.00    +0.000 OA
ATOM     26  H   UNL     1      52.443   1.785  18.431  0.00  0.00    +0.000 HD
ATOM     27  H   UNL     1      51.436   2.074  17.058  0.00  0.00    +0.000 HD
ENDBRANCH  15  24
ENDBRANCH   1  19
TORSDOF 3
ENDMDL
