MODEL 1
REMARK VINA RESULT:    -5.806      0.000      0.000
REMARK INTER + INTRA:          -7.675
REMARK INTER:                  -7.333
REMARK INTRA:                  -0.342
REMARK UNBOUND:                -0.342
REMARK  Name = 
REMARK  5 active torsions:
REMARK  status: ('A' for Active; 'I' for Inactive)
REMARK    1  A    between atoms: N_1  and  C_2
REMARK    2  A    between atoms: C_2  and  C_3
REMARK    3  A    between atoms: C_3  and  O_4
REMARK    4  A    between atoms: O_4  and  C_5
REMARK    5  A    between atoms: C_11  and  C_12
REMARK                            x       y       z     vdW  Elec       q    Type
REMARK                         _______ _______ _______ _____ _____    ______ ____
ROOT
ATOM      1  C   UNL     1      46.191   5.939  11.737  0.00  0.00    +0.000 A 
ATOM      2  N   UNL     1      47.171   6.863  11.732  0.00  0.00    +0.000 NA
ATOM      3  C   UNL     1      47.949   6.923  12.838  0.00  0.00    +0.000 A 
ATOM      4  C   UNL     1      47.820   6.119  13.955  0.00  0.00    +0.000 A 
ATOM      5  N   UNL     1      48.660   6.274  15.008  0.00  0.00    +0.000 NA
ATOM      6  C   UNL     1      48.474   5.445  16.060  0.00  0.00    +0.000 A 
ATOM      7  C   UNL     1      47.481   4.489  16.063  0.00  0.00    +0.000 A 
ATOM      8  N   UNL     1      46.627   4.328  15.015  0.00  0.00    +0.000 NA
ATOM      9  C   UNL     1      46.788   5.151  13.942  0.00  0.00    +0.000 A 
ATOM     10  C   UNL     1      45.963   5.081  12.811  0.00  0.00    +0.000 A 
ATOM     11  I   UNL     1      44.396   3.666  12.736  0.00  0.00    +0.000 I 
ENDROOT
BRANCH   7  12
ATOM     12  C   UNL     1      47.318   3.588  17.234  0.00  0.00    +0.000 C 
ATOM     13  N   UNL     1      48.354   3.581  18.129  0.00  0.00    +0.000 N 
ATOM     14  O   UNL     1      46.319   2.896  17.392  0.00  0.00    +0.000 OA
ATOM     15  H   UNL     1      49.168   4.167  17.975  0.00  0.00    +0.000 HD
ATOM     16  H   UNL     1      48.299   2.996  18.951  0.00  0.00    +0.000 HD
ENDBRANCH   7  12
BRANCH   1  17
ATOM     17  O   UNL     1      45.327   5.912  10.664  0.00  0.00    +0.000 OA
BRANCH  17  18
ATOM     18  C   UNL     1      45.958   5.525   9.437  0.00  0.00    +0.000 C 
BRANCH  18  19
ATOM     19  C   UNL     1      45.234   4.291   8.881  0.00  0.00    +0.000 C 
BRANCH  19  20
ATOM     20  N   UNL     1      43.777   4.455   8.869  0.00  0.00    +0.000 NA
ATOM     21  H   UNL     1      43.399   4.166   9.770  0.00  0.00    +0.000 HD
ATOM     22  H   UNL     1      43.389   3.811   8.178  0.00  0.00    +0.000 HD
ENDBRANCH  19  20
ENDBRANCH  18  19
ENDBRANCH  17  18
ENDBRANCH   1  17
TORSDOF 5
ENDMDL
MODEL 2
REMARK VINA RESULT:    -5.535      2.726      6.403
REMARK INTER + INTRA:          -7.333
REMARK INTER:                  -7.232
REMARK INTRA:                  -0.101
REMARK UNBOUND:                -0.342
REMARK  Name = 
REMARK  5 active torsions:
REMARK  status: ('A' for Active; 'I' for Inactive)
REMARK    1  A    between atoms: N_1  and  C_2
REMARK    2  A    between atoms: C_2  and  C_3
REMARK    3  A    between atoms: C_3  and  O_4
REMARK    4  A    between atoms: O_4  and  C_5
REMARK    5  A    between atoms: C_11  and  C_12
REMARK                            x       y       z     vdW  Elec       q    Type
REMARK                         _______ _______ _______ _____ _____    ______ ____
ROOT
ATOM      1  C   UNL     1      46.900   4.002  13.774  0.00  0.00    +0.000 A 
ATOM      2  N   UNL     1      46.015   3.119  13.274  0.00  0.00    +0.000 NA
ATOM      3  C   UNL     1      45.023   3.628  12.507  0.00  0.00    +0.000 A 
ATOM      4  C   UNL     1      44.851   4.964  12.199  0.00  0.00    +0.000 A 
ATOM      5  N   UNL     1      43.813   5.358  11.421  0.00  0.00    +0.000 NA
ATOM      6  C   UNL     1      43.718   6.681  11.158  0.00  0.00    +0.000 A 
ATOM      7  C   UNL     1      44.630   7.586  11.657  0.00  0.00    +0.000 A 
ATOM      8  N   UNL     1      45.672   7.205  12.445  0.00  0.00    +0.000 NA
ATOM      9  C   UNL     1      45.792   5.879  12.728  0.00  0.00    +0.000 A 
ATOM     10  C   UNL     1      46.821   5.373  13.536  0.00  0.00    +0.000 A 
ATOM     11  I   UNL     1      48.250   6.688  14.368  0.00  0.00    +0.000 I 
ENDROOT
BRANCH   7  12
ATOM     12  C   UNL     1      44.497   9.031  11.335  0.00  0.00    +0.000 C 
ATOM     13  N   UNL     1      43.724   9.330  10.246  0.00  0.00    +0.000 N 
ATOM     14  O   UNL     1      45.042   9.902  12.002  0.00  0.00    +0.000 OA
ATOM     15  H   UNL     1      43.281   8.589   9.713  0.00  0.00    +0.000 HD
ATOM     16  H   UNL     1      43.588  10.296   9.980  0.00  0.00    +0.000 HD
ENDBRANCH   7  12
BRANCH   1  17
ATOM     17  O   UNL     1      47.870   3.527  14.629  0.00  0.00    +0.000 OA
BRANCH  17  18
ATOM     18  C   UNL     1      47.458   3.508  16.001  0.00  0.00    +0.000 C 
BRANCH  18  19
ATOM     19  C   UNL     1      48.476   2.691  16.809  0.00  0.00    +0.000 C 
BRANCH  19  20
ATOM     20  N   UNL     1      49.342   1.874  15.953  0.00  0.00    +0.000 NA
ATOM     21  H   UNL     1      49.750   1.123  16.508  0.00  0.00    +0.000 HD
ATOM     22  H   UNL     1      50.123   2.455  15.642  0.00  0.00    +0.000 HD
ENDBRANCH  19  20
ENDBRANCH  18  19
ENDBRANCH  17  18
ENDBRANCH   1  17
TORSDOF 5
ENDMDL
MODEL 3
REMARK VINA RESULT:    -5.416      2.636      6.206
REMARK INTER + INTRA:          -7.183
REMARK INTER:                  -6.846
REMARK INTRA:                  -0.337
REMARK UNBOUND:                -0.342
REMARK  Name = 
REMARK  5 active torsions:
REMARK  status: ('A' for Active; 'I' for Inactive)
REMARK    1  A    between atoms: N_1  and  C_2
REMARK    2  A    between atoms: C_2  and  C_3
REMARK    3  A    between atoms: C_3  and  O_4
REMARK    4  A    between atoms: O_4  and  C_5
REMARK    5  A    between atoms: C_11  and  C_12
REMARK                            x       y       z     vdW  Elec       q    Type
REMARK                         _______ _______ _______ _____ _____    ______ ____
ROOT
ATOM      1  C   UNL     1      48.290   6.243  14.664  0.00  0.00    +0.000 A 
ATOM      2  N   UNL     1      48.039   5.160  15.424  0.00  0.00    +0.000 NA
ATOM      3  C   UNL     1      47.157   4.264  14.923  0.00  0.00    +0.000 A 
ATOM      4  C   UNL     1      46.505   4.370  13.709  0.00  0.00    +0.000 A 
ATOM      5  N   UNL     1      45.637   3.408  13.313  0.00  0.00    +0.000 NA
ATOM      6  C   UNL     1      45.045   3.581  12.110  0.00  0.00    +0.000 A 
ATOM      7  C   UNL     1      45.310   4.681  11.323  0.00  0.00    +0.000 A 
ATOM      8  N   UNL     1      46.174   5.658  11.712  0.00  0.00    +0.000 NA
ATOM      9  C   UNL     1      46.784   5.512  12.921  0.00  0.00    +0.000 A 
ATOM     10  C   UNL     1      47.685   6.459  13.427  0.00  0.00    +0.000 A 
ATOM     11  I   UNL     1      48.133   8.193  12.305  0.00  0.00    +0.000 I 
ENDROOT
BRANCH   7  12
ATOM     12  C   UNL     1      44.648   4.828  10.000  0.00  0.00    +0.000 C 
ATOM     13  N   UNL     1      45.484   5.032   8.936  0.00  0.00    +0.000 N 
ATOM     14  O   UNL     1      43.432   4.766   9.868  0.00  0.00    +0.000 OA
ATOM     15  H   UNL     1      46.489   5.075   9.075  0.00  0.00    +0.000 HD
ATOM     16  H   UNL     1      45.096   5.131   8.009  0.00  0.00    +0.000 HD
ENDBRANCH   7  12
BRANCH   1  17
ATOM     17  O   UNL     1      49.116   7.216  15.184  0.00  0.00    +0.000 OA
BRANCH  17  18
ATOM     18  C   UNL     1      48.971   7.387  16.599  0.00  0.00    +0.000 C 
BRANCH  18  19
ATOM     19  C   UNL     1      48.727   8.874  16.891  0.00  0.00    +0.000 C 
BRANCH  19  20
ATOM     20  N   UNL     1      47.603   9.418  16.123  0.00  0.00    +0.000 NA
ATOM     21  H   UNL     1      47.054  10.033  16.722  0.00  0.00    +0.000 HD
ATOM     22  H   UNL     1      46.987   8.645  15.868  0.00  0.00    +0.000 HD
ENDBRANCH  19  20
ENDBRANCH  18  19
ENDBRANCH  17  18
ENDBRANCH   1  17
TORSDOF 5
ENDMDL
MODEL 4
REMARK VINA RESULT:    -5.134      2.628      5.920
REMARK INTER + INTRA:          -6.827
REMARK INTER:                  -6.445
REMARK INTRA:                  -0.382
REMARK UNBOUND:                -0.342
REMARK  Name = 
REMARK  5 active torsions:
REMARK  status: ('A' for Active; 'I' for Inactive)
REMARK    1  A    between atoms: N_1  and  C_2
REMARK    2  A    between atoms: C_2  and  C_3
REMARK    3  A    between atoms: C_3  and  O_4
REMARK    4  A    between atoms: O_4  and  C_5
REMARK    5  A    between atoms: C_11  and  C_12
REMARK                            x       y       z     vdW  Elec       q    Type
REMARK                         _______ _______ _______ _____ _____    ______ ____
ROOT
ATOM      1  C   UNL     1      48.775   6.067  16.080  0.00  0.00    +0.000 A 
ATOM      2  N   UNL     1      49.094   7.096  15.273  0.00  0.00    +0.000 NA
ATOM      3  C   UNL     1      48.461   7.142  14.078  0.00  0.00    +0.000 A 
ATOM      4  C   UNL     1      47.523   6.231  13.629  0.00  0.00    +0.000 A 
ATOM      5  N   UNL     1      46.955   6.380  12.408  0.00  0.00    +0.000 NA
ATOM      6  C   UNL     1      46.042   5.451  12.044  0.00  0.00    +0.000 A 
ATOM      7  C   UNL     1      45.703   4.405  12.875  0.00  0.00    +0.000 A 
ATOM      8  N   UNL     1      46.270   4.240  14.102  0.00  0.00    +0.000 NA
ATOM      9  C   UNL     1      47.196   5.159  14.493  0.00  0.00    +0.000 A 
ATOM     10  C   UNL     1      47.851   5.085  15.730  0.00  0.00    +0.000 A 
ATOM     11  I   UNL     1      47.417   3.501  17.060  0.00  0.00    +0.000 I 
ENDROOT
BRANCH   7  12
ATOM     12  C   UNL     1      44.684   3.412  12.445  0.00  0.00    +0.000 C 
ATOM     13  N   UNL     1      44.953   2.750  11.277  0.00  0.00    +0.000 N 
ATOM     14  O   UNL     1      43.668   3.194  13.094  0.00  0.00    +0.000 OA
ATOM     15  H   UNL     1      45.805   2.947  10.761  0.00  0.00    +0.000 HD
ATOM     16  H   UNL     1      44.304   2.056  10.936  0.00  0.00    +0.000 HD
ENDBRANCH   7  12
BRANCH   1  17
ATOM     17  O   UNL     1      49.466   5.943  17.266  0.00  0.00    +0.000 OA
BRANCH  17  18
ATOM     18  C   UNL     1      49.389   7.111  18.094  0.00  0.00    +0.000 C 
BRANCH  18  19
ATOM     19  C   UNL     1      48.087   7.052  18.905  0.00  0.00    +0.000 C 
BRANCH  19  20
ATOM     20  N   UNL     1      47.178   8.156  18.584  0.00  0.00    +0.000 NA
ATOM     21  H   UNL     1      46.948   8.125  17.592  0.00  0.00    +0.000 HD
ATOM     22  H   UNL     1      47.678   9.035  18.733  0.00  0.00    +0.000 HD
ENDBRANCH  19  20
ENDBRANCH  18  19
ENDBRANCH  17  18
ENDBRANCH   1  17
TORSDOF 5
ENDMDL
MODEL 5
REMARK VINA RESULT:    -5.078      2.504      2.997
REMARK INTER + INTRA:          -6.756
REMARK INTER:                  -6.387
REMARK INTRA:                  -0.369
REMARK UNBOUND:                -0.342
REMARK  Name = 
REMARK  5 active torsions:
REMARK  status: ('A' for Active; 'I' for Inactive)
REMARK    1  A    between atoms: N_1  and  C_2
REMARK    2  A    between atoms: C_2  and  C_3
REMARK    3  A    between atoms: C_3  and  O_4
REMARK    4  A    between atoms: O_4  and  C_5
REMARK    5  A    between atoms: C_11  and  C_12
REMARK                            x       y       z     vdW  Elec       q    Type
REMARK                         _______ _______ _______ _____ _____    ______ ____
ROOT
ATOM      1  C   UNL     1      45.592   5.053  11.886  0.00  0.00    +0.000 A 
ATOM      2  N   UNL     1      45.514   3.718  12.042  0.00  0.00    +0.000 NA
ATOM      3  C   UNL     1      46.145   3.200  13.121  0.00  0.00    +0.000 A 
ATOM      4  C   UNL     1      46.850   3.924  14.065  0.00  0.00    +0.000 A 
ATOM      5  N   UNL     1      47.444   3.292  15.106  0.00  0.00    +0.000 NA
ATOM      6  C   UNL     1      48.109   4.071  15.990  0.00  0.00    +0.000 A 
ATOM      7  C   UNL     1      48.179   5.439  15.841  0.00  0.00    +0.000 A 
ATOM      8  N   UNL     1      47.592   6.085  14.796  0.00  0.00    +0.000 NA
ATOM      9  C   UNL     1      46.918   5.326  13.888  0.00  0.00    +0.000 A 
ATOM     10  C   UNL     1      46.282   5.882  12.769  0.00  0.00    +0.000 A 
ATOM     11  I   UNL     1      46.358   7.968  12.442  0.00  0.00    +0.000 I 
ENDROOT
BRANCH   7  12
ATOM     12  C   UNL     1      48.908   6.261  16.842  0.00  0.00    +0.000 C 
ATOM     13  N   UNL     1      48.136   6.846  17.809  0.00  0.00    +0.000 N 
ATOM     14  O   UNL     1      50.124   6.405  16.808  0.00  0.00    +0.000 OA
ATOM     15  H   UNL     1      47.131   6.706  17.815  0.00  0.00    +0.000 HD
ATOM     16  H   UNL     1      48.573   7.410  18.524  0.00  0.00    +0.000 HD
ENDBRANCH   7  12
BRANCH   1  17
ATOM     17  O   UNL     1      45.036   5.602  10.751  0.00  0.00    +0.000 OA
BRANCH  17  18
ATOM     18  C   UNL     1      43.723   5.104  10.465  0.00  0.00    +0.000 C 
BRANCH  18  19
ATOM     19  C   UNL     1      42.725   5.773  11.420  0.00  0.00    +0.000 C 
BRANCH  19  20
ATOM     20  N   UNL     1      42.654   7.225  11.228  0.00  0.00    +0.000 NA
ATOM     21  H   UNL     1      41.688   7.531  11.332  0.00  0.00    +0.000 HD
ATOM     22  H   UNL     1      42.916   7.432  10.263  0.00  0.00    +0.000 HD
ENDBRANCH  19  20
ENDBRANCH  18  19
ENDBRANCH  17  18
ENDBRANCH   1  17
TORSDOF 5
ENDMDL
MODEL 6
REMARK VINA RESULT:    -4.926      2.928      3.979
REMARK INTER + INTRA:          -6.563
REMARK INTER:                  -6.562
REMARK INTRA:                  -0.002
REMARK UNBOUND:                -0.342
REMARK  Name = 
REMARK  5 active torsions:
REMARK  status: ('A' for Active; 'I' for Inactive)
REMARK    1  A    between atoms: N_1  and  C_2
REMARK    2  A    between atoms: C_2  and  C_3
REMARK    3  A    between atoms: C_3  and  O_4
REMARK    4  A    between atoms: O_4  and  C_5
REMARK    5  A    between atoms: C_11  and  C_12
REMARK                            x       y       z     vdW  Elec       q    Type
REMARK                         _______ _______ _______ _____ _____    ______ ____
ROOT
ATOM      1  C   UNL     1      45.918   4.910  12.946  0.00  0.00    +0.000 A 
ATOM      2  N   UNL     1      45.710   5.604  11.811  0.00  0.00    +0.000 NA
ATOM      3  C   UNL     1      46.585   6.602  11.546  0.00  0.00    +0.000 A 
ATOM      4  C   UNL     1      47.662   6.957  12.336  0.00  0.00    +0.000 A 
ATOM      5  N   UNL     1      48.471   7.980  11.968  0.00  0.00    +0.000 NA
ATOM      6  C   UNL     1      49.508   8.261  12.790  0.00  0.00    +0.000 A 
ATOM      7  C   UNL     1      49.732   7.544  13.945  0.00  0.00    +0.000 A 
ATOM      8  N   UNL     1      48.923   6.518  14.329  0.00  0.00    +0.000 NA
ATOM      9  C   UNL     1      47.869   6.214  13.522  0.00  0.00    +0.000 A 
ATOM     10  C   UNL     1      46.966   5.185  13.822  0.00  0.00    +0.000 A 
ATOM     11  I   UNL     1      47.212   4.047  15.586  0.00  0.00    +0.000 I 
ENDROOT
BRANCH   7  12
ATOM     12  C   UNL     1      50.890   7.876  14.815  0.00  0.00    +0.000 C 
ATOM     13  N   UNL     1      52.123   7.772  14.231  0.00  0.00    +0.000 N 
ATOM     14  O   UNL     1      50.752   8.225  15.981  0.00  0.00    +0.000 OA
ATOM     15  H   UNL     1      52.208   7.484  13.261  0.00  0.00    +0.000 HD
ATOM     16  H   UNL     1      52.950   7.993  14.767  0.00  0.00    +0.000 HD
ENDBRANCH   7  12
BRANCH   1  17
ATOM     17  O   UNL     1      44.994   3.946  13.288  0.00  0.00    +0.000 OA
BRANCH  17  18
ATOM     18  C   UNL     1      43.659   4.267  12.877  0.00  0.00    +0.000 C 
BRANCH  18  19
ATOM     19  C   UNL     1      43.352   3.512  11.577  0.00  0.00    +0.000 C 
BRANCH  19  20
ATOM     20  N   UNL     1      43.052   2.096  11.809  0.00  0.00    +0.000 NA
ATOM     21  H   UNL     1      42.949   1.934  12.810  0.00  0.00    +0.000 HD
ATOM     22  H   UNL     1      43.860   1.545  11.514  0.00  0.00    +0.000 HD
ENDBRANCH  19  20
ENDBRANCH  18  19
ENDBRANCH  17  18
ENDBRANCH   1  17
TORSDOF 5
ENDMDL
MODEL 7
REMARK VINA RESULT:    -4.824      2.985      4.005
REMARK INTER + INTRA:          -6.435
REMARK INTER:                  -6.195
REMARK INTRA:                  -0.239
REMARK UNBOUND:                -0.342
REMARK  Name = 
REMARK  5 active torsions:
REMARK  status: ('A' for Active; 'I' for Inactive)
REMARK    1  A    between atoms: N_1  and  C_2
REMARK    2  A    between atoms: C_2  and  C_3
REMARK    3  A    between atoms: C_3  and  O_4
REMARK    4  A    between atoms: O_4  and  C_5
REMARK    5  A    between atoms: C_11  and  C_12
REMARK                            x       y       z     vdW  Elec       q    Type
REMARK                         _______ _______ _______ _____ _____    ______ ____
ROOT
ATOM      1  C   UNL     1      46.306   5.015  13.530  0.00  0.00    +0.000 A 
ATOM      2  N   UNL     1      46.175   4.144  14.548  0.00  0.00    +0.000 NA
ATOM      3  C   UNL     1      47.088   4.237  15.542  0.00  0.00    +0.000 A 
ATOM      4  C   UNL     1      48.128   5.146  15.596  0.00  0.00    +0.000 A 
ATOM      5  N   UNL     1      48.985   5.142  16.646  0.00  0.00    +0.000 NA
ATOM      6  C   UNL     1      49.972   6.067  16.628  0.00  0.00    +0.000 A 
ATOM      7  C   UNL     1      50.101   6.970  15.594  0.00  0.00    +0.000 A 
ATOM      8  N   UNL     1      49.250   6.979  14.531  0.00  0.00    +0.000 NA
ATOM      9  C   UNL     1      48.249   6.058  14.520  0.00  0.00    +0.000 A 
ATOM     10  C   UNL     1      47.320   5.969  13.473  0.00  0.00    +0.000 A 
ATOM     11  I   UNL     1      47.454   7.292  11.831  0.00  0.00    +0.000 I 
ENDROOT
BRANCH   7  12
ATOM     12  C   UNL     1      51.191   7.980  15.618  0.00  0.00    +0.000 C 
ATOM     13  N   UNL     1      52.228   7.757  14.753  0.00  0.00    +0.000 N 
ATOM     14  O   UNL     1      51.164   8.952  16.362  0.00  0.00    +0.000 OA
ATOM     15  H   UNL     1      52.222   6.944  14.145  0.00  0.00    +0.000 HD
ATOM     16  H   UNL     1      52.996   8.412  14.715  0.00  0.00    +0.000 HD
ENDBRANCH   7  12
BRANCH   1  17
ATOM     17  O   UNL     1      45.446   4.889  12.461  0.00  0.00    +0.000 OA
BRANCH  17  18
ATOM     18  C   UNL     1      45.042   3.536  12.213  0.00  0.00    +0.000 C 
BRANCH  18  19
ATOM     19  C   UNL     1      43.538   3.521  11.908  0.00  0.00    +0.000 C 
BRANCH  19  20
ATOM     20  N   UNL     1      43.024   2.164  11.695  0.00  0.00    +0.000 NA
ATOM     21  H   UNL     1      43.233   1.872  10.742  0.00  0.00    +0.000 HD
ATOM     22  H   UNL     1      42.005   2.194  11.767  0.00  0.00    +0.000 HD
ENDBRANCH  19  20
ENDBRANCH  18  19
ENDBRANCH  17  18
ENDBRANCH   1  17
TORSDOF 5
ENDMDL
MODEL 8
REMARK VINA RESULT:    -4.799      2.996      3.937
REMARK INTER + INTRA:          -6.403
REMARK INTER:                  -6.034
REMARK INTRA:                  -0.369
REMARK UNBOUND:                -0.342
REMARK  Name = 
REMARK  5 active torsions:
REMARK  status: ('A' for Active; 'I' for Inactive)
REMARK    1  A    between atoms: N_1  and  C_2
REMARK    2  A    between atoms: C_2  and  C_3
REMARK    3  A    between atoms: C_3  and  O_4
REMARK    4  A    between atoms: O_4  and  C_5
REMARK    5  A    between atoms: C_11  and  C_12
REMARK                            x       y       z     vdW  Elec       q    Type
REMARK                         _______ _______ _______ _____ _____    ______ ____
ROOT
ATOM      1  C   UNL     1      45.939   4.496  12.794  0.00  0.00    +0.000 A 
ATOM      2  N   UNL     1      46.302   3.501  13.625  0.00  0.00    +0.000 NA
ATOM      3  C   UNL     1      47.166   3.827  14.614  0.00  0.00    +0.000 A 
ATOM      4  C   UNL     1      47.695   5.084  14.838  0.00  0.00    +0.000 A 
ATOM      5  N   UNL     1      48.557   5.290  15.863  0.00  0.00    +0.000 NA
ATOM      6  C   UNL     1      49.025   6.550  16.020  0.00  0.00    +0.000 A 
ATOM      7  C   UNL     1      48.645   7.574  15.180  0.00  0.00    +0.000 A 
ATOM      8  N   UNL     1      47.785   7.378  14.142  0.00  0.00    +0.000 NA
ATOM      9  C   UNL     1      47.299   6.120  13.958  0.00  0.00    +0.000 A 
ATOM     10  C   UNL     1      46.415   5.800  12.918  0.00  0.00    +0.000 A 
ATOM     11  I   UNL     1      45.797   7.299  11.563  0.00  0.00    +0.000 I 
ENDROOT
BRANCH   7  12
ATOM     12  C   UNL     1      49.171   8.947  15.394  0.00  0.00    +0.000 C 
ATOM     13  N   UNL     1      48.236   9.947  15.413  0.00  0.00    +0.000 N 
ATOM     14  O   UNL     1      50.365   9.173  15.547  0.00  0.00    +0.000 OA
ATOM     15  H   UNL     1      47.253   9.731  15.286  0.00  0.00    +0.000 HD
ATOM     16  H   UNL     1      48.530  10.902  15.563  0.00  0.00    +0.000 HD
ENDBRANCH   7  12
BRANCH   1  17
ATOM     17  O   UNL     1      45.130   4.179  11.725  0.00  0.00    +0.000 OA
BRANCH  17  18
ATOM     18  C   UNL     1      43.867   3.625  12.113  0.00  0.00    +0.000 C 
BRANCH  18  19
ATOM     19  C   UNL     1      42.804   4.730  12.043  0.00  0.00    +0.000 C 
BRANCH  19  20
ATOM     20  N   UNL     1      42.642   5.432  13.319  0.00  0.00    +0.000 NA
ATOM     21  H   UNL     1      43.561   5.652  13.700  0.00  0.00    +0.000 HD
ATOM     22  H   UNL     1      42.205   4.791  13.984  0.00  0.00    +0.000 HD
ENDBRANCH  19  20
ENDBRANCH  18  19
ENDBRANCH  17  18
ENDBRANCH   1  17
TORSDOF 5
ENDMDL
MODEL 9
REMARK VINA RESULT:    -4.444      2.380      2.909
REMARK INTER + INTRA:          -5.954
REMARK INTER:                  -5.580
REMARK INTRA:                  -0.375
REMARK UNBOUND:                -0.342
REMARK  Name = 
REMARK  5 active torsions:
REMARK  status: ('A' for Active; 'I' for Inactive)
REMARK    1  A    between atoms: N_1  and  C_2
REMARK    2  A    between atoms: C_2  and  C_3
REMARK    3  A    between atoms: C_3  and  O_4
REMARK    4  A    between atoms: O_4  and  C_5
REMARK    5  A    between atoms: C_11  and  C_12
REMARK                            x       y       z     vdW  Elec       q    Type
REMARK                         _______ _______ _______ _____ _____    ______ ____
ROOT
ATOM      1  C   UNL     1      46.827   5.815  12.646  0.00  0.00    +0.000 A 
ATOM      2  N   UNL     1      45.977   4.798  12.882  0.00  0.00    +0.000 NA
ATOM      3  C   UNL     1      46.105   4.170  14.074  0.00  0.00    +0.000 A 
ATOM      4  C   UNL     1      47.024   4.488  15.056  0.00  0.00    +0.000 A 
ATOM      5  N   UNL     1      47.060   3.783  16.213  0.00  0.00    +0.000 NA
ATOM      6  C   UNL     1      47.983   4.161  17.127  0.00  0.00    +0.000 A 
ATOM      7  C   UNL     1      48.845   5.211  16.894  0.00  0.00    +0.000 A 
ATOM      8  N   UNL     1      48.824   5.922  15.734  0.00  0.00    +0.000 NA
ATOM      9  C   UNL     1      47.907   5.563  14.794  0.00  0.00    +0.000 A 
ATOM     10  C   UNL     1      47.800   6.218  13.559  0.00  0.00    +0.000 A 
ATOM     11  I   UNL     1      49.098   7.822  13.101  0.00  0.00    +0.000 I 
ENDROOT
BRANCH   7  12
ATOM     12  C   UNL     1      49.837   5.603  17.929  0.00  0.00    +0.000 C 
ATOM     13  N   UNL     1      50.560   4.579  18.479  0.00  0.00    +0.000 N 
ATOM     14  O   UNL     1      50.002   6.769  18.267  0.00  0.00    +0.000 OA
ATOM     15  H   UNL     1      50.406   3.623  18.177  0.00  0.00    +0.000 HD
ATOM     16  H   UNL     1      51.257   4.782  19.182  0.00  0.00    +0.000 HD
ENDBRANCH   7  12
BRANCH   1  17
ATOM     17  O   UNL     1      46.781   6.417  11.408  0.00  0.00    +0.000 OA
BRANCH  17  18
ATOM     18  C   UNL     1      45.510   6.286  10.759  0.00  0.00    +0.000 C 
BRANCH  18  19
ATOM     19  C   UNL     1      45.654   5.299   9.592  0.00  0.00    +0.000 C 
BRANCH  19  20
ATOM     20  N   UNL     1      44.975   4.026   9.849  0.00  0.00    +0.000 NA
ATOM     21  H   UNL     1      44.610   4.026  10.800  0.00  0.00    +0.000 HD
ATOM     22  H   UNL     1      45.672   3.279   9.812  0.00  0.00    +0.000 HD
ENDBRANCH  19  20
ENDBRANCH  18  19
ENDBRANCH  17  18
ENDBRANCH   1  17
TORSDOF 5
ENDMDL
