MODEL 1
REMARK VINA RESULT:    -8.221      0.000      0.000
REMARK INTER + INTRA:         -11.998
REMARK INTER:                 -11.104
REMARK INTRA:                  -0.894
REMARK UNBOUND:                -0.894
REMARK  Name = 
REMARK  6 active torsions:
REMARK  status: ('A' for Active; 'I' for Inactive)
REMARK    1  A    between atoms: C_2  and  C_20
REMARK    2  A    between atoms: N_3  and  C_4
REMARK    3  A    between atoms: C_4  and  C_5
REMARK    4  A    between atoms: C_8  and  C_9
REMARK    5  A    between atoms: C_9  and  C_10
REMARK    6  A    between atoms: C_10  and  C_11
REMARK                            x       y       z     vdW  Elec       q    Type
REMARK                         _______ _______ _______ _____ _____    ______ ____
ROOT
ATOM      1  C   UNL     1      48.206   7.162  13.481  0.00  0.00    +0.000 C 
ENDROOT
BRANCH   1   2
ATOM      2  C   UNL     1      47.087   6.458  12.760  0.00  0.00    +0.000 A 
ATOM      3  C   UNL     1      46.865   6.696  11.398  0.00  0.00    +0.000 A 
ATOM      4  C   UNL     1      45.824   6.055  10.724  0.00  0.00    +0.000 A 
ATOM      5  C   UNL     1      44.981   5.158  11.395  0.00  0.00    +0.000 A 
ATOM      6  C   UNL     1      45.184   4.944  12.764  0.00  0.00    +0.000 A 
ATOM      7  C   UNL     1      46.222   5.591  13.441  0.00  0.00    +0.000 A 
BRANCH   5   8
ATOM      8  C   UNL     1      43.843   4.470  10.676  0.00  0.00    +0.000 C 
BRANCH   8   9
ATOM      9  C   UNL     1      44.169   4.137   9.218  0.00  0.00    +0.000 C 
BRANCH   9  10
ATOM     10  C   UNL     1      44.815   2.767   9.080  0.00  0.00    +0.000 C 
ATOM     11  O   UNL     1      44.437   1.796   9.732  0.00  0.00    +0.000 OA
ATOM     12  N   UNL     1      45.839   2.673   8.159  0.00  0.00    +0.000 N 
ATOM     13  C   UNL     1      46.428   3.738   7.368  0.00  0.00    +0.000 C 
ATOM     14  C   UNL     1      46.899   3.018   6.117  0.00  0.00    +0.000 C 
ATOM     15  C   UNL     1      47.357   1.662   6.645  0.00  0.00    +0.000 C 
ATOM     16  C   UNL     1      46.464   1.397   7.854  0.00  0.00    +0.000 C 
ENDBRANCH   9  10
ENDBRANCH   8   9
ENDBRANCH   5   8
ENDBRANCH   1   2
BRANCH   1  19
ATOM     17  O   UNL     1      50.266   6.681  15.344  0.00  0.00    +0.000 OA
ATOM     18  C   UNL     1      49.124   6.873  15.752  0.00  0.00    +0.000 C 
ATOM     19  N   UNL     1      48.058   7.049  14.909  0.00  0.00    +0.000 N 
ATOM     20  H   UNL     1      47.183   7.393  15.289  0.00  0.00    +0.000 HD
BRANCH  18  21
ATOM     21  C   UNL     1      48.814   6.867  17.189  0.00  0.00    +0.000 A 
ATOM     22  C   UNL     1      48.384   8.035  17.806  0.00  0.00    +0.000 A 
ATOM     23  S   UNL     1      48.089   7.856  19.476  0.00  0.00    +0.000 S 
ATOM     24  C   UNL     1      48.482   6.201  19.424  0.00  0.00    +0.000 A 
ATOM     25  N   UNL     1      48.408   5.428  20.542  0.00  0.00    +0.000 NA
ATOM     26  C   UNL     1      48.690   4.182  20.349  0.00  0.00    +0.000 A 
ATOM     27  N   UNL     1      49.052   3.642  19.143  0.00  0.00    +0.000 N 
ATOM     28  C   UNL     1      49.218   4.398  18.008  0.00  0.00    +0.000 A 
ATOM     29  O   UNL     1      49.682   3.907  16.984  0.00  0.00    +0.000 OA
ATOM     30  C   UNL     1      48.861   5.796  18.157  0.00  0.00    +0.000 A 
ATOM     31  H   UNL     1      49.292   2.665  19.066  0.00  0.00    +0.000 HD
ENDBRANCH  18  21
ENDBRANCH   1  19
TORSDOF 6
ENDMDL
MODEL 2
REMARK VINA RESULT:    -8.151      1.325      2.104
REMARK INTER + INTRA:         -11.903
REMARK INTER:                 -11.030
REMARK INTRA:                  -0.873
REMARK UNBOUND:                -0.894
REMARK  Name = 
REMARK  6 active torsions:
REMARK  status: ('A' for Active; 'I' for Inactive)
REMARK    1  A    between atoms: C_2  and  C_20
REMARK    2  A    between atoms: N_3  and  C_4
REMARK    3  A    between atoms: C_4  and  C_5
REMARK    4  A    between atoms: C_8  and  C_9
REMARK    5  A    between atoms: C_9  and  C_10
REMARK    6  A    between atoms: C_10  and  C_11
REMARK                            x       y       z     vdW  Elec       q    Type
REMARK                         _______ _______ _______ _____ _____    ______ ____
ROOT
ATOM      1  C   UNL     1      47.878   6.768  13.703  0.00  0.00    +0.000 C 
ENDROOT
BRANCH   1   2
ATOM      2  C   UNL     1      46.818   6.171  12.815  0.00  0.00    +0.000 A 
ATOM      3  C   UNL     1      46.001   5.138  13.290  0.00  0.00    +0.000 A 
ATOM      4  C   UNL     1      45.022   4.571  12.471  0.00  0.00    +0.000 A 
ATOM      5  C   UNL     1      44.836   5.026  11.158  0.00  0.00    +0.000 A 
ATOM      6  C   UNL     1      45.675   6.038  10.674  0.00  0.00    +0.000 A 
ATOM      7  C   UNL     1      46.659   6.600  11.492  0.00  0.00    +0.000 A 
BRANCH   5   8
ATOM      8  C   UNL     1      43.787   4.410  10.260  0.00  0.00    +0.000 C 
BRANCH   8   9
ATOM      9  C   UNL     1      44.314   4.082   8.861  0.00  0.00    +0.000 C 
BRANCH   9  10
ATOM     10  C   UNL     1      44.974   2.713   8.809  0.00  0.00    +0.000 C 
ATOM     11  O   UNL     1      44.579   1.770   9.492  0.00  0.00    +0.000 OA
ATOM     12  N   UNL     1      46.030   2.586   7.932  0.00  0.00    +0.000 N 
ATOM     13  C   UNL     1      46.641   3.617   7.114  0.00  0.00    +0.000 C 
ATOM     14  C   UNL     1      47.162   2.844   5.915  0.00  0.00    +0.000 C 
ATOM     15  C   UNL     1      47.610   1.518   6.521  0.00  0.00    +0.000 C 
ATOM     16  C   UNL     1      46.675   1.302   7.708  0.00  0.00    +0.000 C 
ENDBRANCH   9  10
ENDBRANCH   8   9
ENDBRANCH   5   8
ENDBRANCH   1   2
BRANCH   1  19
ATOM     17  O   UNL     1      50.021   6.680  15.532  0.00  0.00    +0.000 OA
ATOM     18  C   UNL     1      48.932   6.221  15.865  0.00  0.00    +0.000 C 
ATOM     19  N   UNL     1      47.861   6.167  15.012  0.00  0.00    +0.000 N 
ATOM     20  H   UNL     1      46.943   5.960  15.389  0.00  0.00    +0.000 HD
BRANCH  18  21
ATOM     21  C   UNL     1      48.723   5.637  17.198  0.00  0.00    +0.000 A 
ATOM     22  C   UNL     1      48.924   4.277  17.394  0.00  0.00    +0.000 A 
ATOM     23  S   UNL     1      48.618   3.765  18.992  0.00  0.00    +0.000 S 
ATOM     24  C   UNL     1      48.251   5.351  19.489  0.00  0.00    +0.000 A 
ATOM     25  N   UNL     1      47.924   5.622  20.781  0.00  0.00    +0.000 NA
ATOM     26  C   UNL     1      47.714   6.872  21.028  0.00  0.00    +0.000 A 
ATOM     27  N   UNL     1      47.788   7.874  20.096  0.00  0.00    +0.000 N 
ATOM     28  C   UNL     1      48.034   7.638  18.766  0.00  0.00    +0.000 A 
ATOM     29  O   UNL     1      47.951   8.538  17.937  0.00  0.00    +0.000 OA
ATOM     30  C   UNL     1      48.332   6.254  18.444  0.00  0.00    +0.000 A 
ATOM     31  H   UNL     1      47.580   8.830  20.347  0.00  0.00    +0.000 HD
ENDBRANCH  18  21
ENDBRANCH   1  19
TORSDOF 6
ENDMDL
MODEL 3
REMARK VINA RESULT:    -7.583      2.159      2.639
REMARK INTER + INTRA:         -11.136
REMARK INTER:                 -10.019
REMARK INTRA:                  -1.117
REMARK UNBOUND:                -0.894
REMARK  Name = 
REMARK  6 active torsions:
REMARK  status: ('A' for Active; 'I' for Inactive)
REMARK    1  A    between atoms: C_2  and  C_20
REMARK    2  A    between atoms: N_3  and  C_4
REMARK    3  A    between atoms: C_4  and  C_5
REMARK    4  A    between atoms: C_8  and  C_9
REMARK    5  A    between atoms: C_9  and  C_10
REMARK    6  A    between atoms: C_10  and  C_11
REMARK                            x       y       z     vdW  Elec       q    Type
REMARK                         _______ _______ _______ _____ _____    ______ ____
ROOT
ATOM      1  C   UNL     1      48.853   7.765  12.344  0.00  0.00    +0.000 C 
ENDROOT
BRANCH   1   2
ATOM      2  C   UNL     1      47.520   7.080  12.492  0.00  0.00    +0.000 A 
ATOM      3  C   UNL     1      46.335   7.782  12.237  0.00  0.00    +0.000 A 
ATOM      4  C   UNL     1      45.094   7.158  12.381  0.00  0.00    +0.000 A 
ATOM      5  C   UNL     1      45.009   5.817  12.780  0.00  0.00    +0.000 A 
ATOM      6  C   UNL     1      46.193   5.125  13.064  0.00  0.00    +0.000 A 
ATOM      7  C   UNL     1      47.435   5.751  12.927  0.00  0.00    +0.000 A 
BRANCH   5   8
ATOM      8  C   UNL     1      43.669   5.137  12.950  0.00  0.00    +0.000 C 
BRANCH   8   9
ATOM      9  C   UNL     1      43.015   4.759  11.620  0.00  0.00    +0.000 C 
BRANCH   9  10
ATOM     10  C   UNL     1      43.459   3.386  11.139  0.00  0.00    +0.000 C 
ATOM     11  O   UNL     1      43.003   2.348  11.613  0.00  0.00    +0.000 OA
ATOM     12  N   UNL     1      44.389   3.375  10.121  0.00  0.00    +0.000 N 
ATOM     13  C   UNL     1      45.056   4.509   9.509  0.00  0.00    +0.000 C 
ATOM     14  C   UNL     1      45.333   4.027   8.096  0.00  0.00    +0.000 C 
ATOM     15  C   UNL     1      45.642   2.545   8.287  0.00  0.00    +0.000 C 
ATOM     16  C   UNL     1      44.813   2.131   9.499  0.00  0.00    +0.000 C 
ENDBRANCH   9  10
ENDBRANCH   8   9
ENDBRANCH   5   8
ENDBRANCH   1   2
BRANCH   1  19
ATOM     17  O   UNL     1      49.063   8.700  14.995  0.00  0.00    +0.000 OA
ATOM     18  C   UNL     1      49.782   7.775  14.629  0.00  0.00    +0.000 C 
ATOM     19  N   UNL     1      49.787   7.307  13.341  0.00  0.00    +0.000 N 
ATOM     20  H   UNL     1      50.249   6.428  13.139  0.00  0.00    +0.000 HD
BRANCH  18  21
ATOM     21  C   UNL     1      50.740   7.141  15.547  0.00  0.00    +0.000 A 
ATOM     22  C   UNL     1      52.082   7.497  15.497  0.00  0.00    +0.000 A 
ATOM     23  S   UNL     1      53.054   6.652  16.615  0.00  0.00    +0.000 S 
ATOM     24  C   UNL     1      51.710   5.815  17.236  0.00  0.00    +0.000 A 
ATOM     25  N   UNL     1      51.848   4.930  18.260  0.00  0.00    +0.000 NA
ATOM     26  C   UNL     1      50.740   4.401  18.662  0.00  0.00    +0.000 A 
ATOM     27  N   UNL     1      49.509   4.666  18.124  0.00  0.00    +0.000 N 
ATOM     28  C   UNL     1      49.332   5.489  17.038  0.00  0.00    +0.000 A 
ATOM     29  O   UNL     1      48.238   5.591  16.492  0.00  0.00    +0.000 OA
ATOM     30  C   UNL     1      50.539   6.153  16.581  0.00  0.00    +0.000 A 
ATOM     31  H   UNL     1      48.683   4.194  18.462  0.00  0.00    +0.000 HD
ENDBRANCH  18  21
ENDBRANCH   1  19
TORSDOF 6
ENDMDL
MODEL 4
REMARK VINA RESULT:    -7.417      2.750      4.538
REMARK INTER + INTRA:         -10.912
REMARK INTER:                  -9.818
REMARK INTRA:                  -1.094
REMARK UNBOUND:                -0.894
REMARK  Name = 
REMARK  6 active torsions:
REMARK  status: ('A' for Active; 'I' for Inactive)
REMARK    1  A    between atoms: C_2  and  C_20
REMARK    2  A    between atoms: N_3  and  C_4
REMARK    3  A    between atoms: C_4  and  C_5
REMARK    4  A    between atoms: C_8  and  C_9
REMARK    5  A    between atoms: C_9  and  C_10
REMARK    6  A    between atoms: C_10  and  C_11
REMARK                            x       y       z     vdW  Elec       q    Type
REMARK                         _______ _______ _______ _____ _____    ______ ____
ROOT
ATOM      1  C   UNL     1      47.486   5.359  14.638  0.00  0.00    +0.000 C 
ENDROOT
BRANCH   1   2
ATOM      2  C   UNL     1      46.501   5.064  13.536  0.00  0.00    +0.000 A 
ATOM      3  C   UNL     1      46.129   3.743  13.259  0.00  0.00    +0.000 A 
ATOM      4  C   UNL     1      45.225   3.459  12.234  0.00  0.00    +0.000 A 
ATOM      5  C   UNL     1      44.670   4.490  11.463  0.00  0.00    +0.000 A 
ATOM      6  C   UNL     1      45.067   5.808  11.721  0.00  0.00    +0.000 A 
ATOM      7  C   UNL     1      45.977   6.092  12.742  0.00  0.00    +0.000 A 
BRANCH   5   8
ATOM      8  C   UNL     1      43.701   4.190  10.342  0.00  0.00    +0.000 C 
BRANCH   8   9
ATOM      9  C   UNL     1      44.381   4.066   8.977  0.00  0.00    +0.000 C 
BRANCH   9  10
ATOM     10  C   UNL     1      44.996   2.690   8.772  0.00  0.00    +0.000 C 
ATOM     11  O   UNL     1      44.554   1.687   9.328  0.00  0.00    +0.000 OA
ATOM     12  N   UNL     1      46.067   2.631   7.905  0.00  0.00    +0.000 N 
ATOM     13  C   UNL     1      46.730   3.731   7.230  0.00  0.00    +0.000 C 
ATOM     14  C   UNL     1      47.252   3.090   5.956  0.00  0.00    +0.000 C 
ATOM     15  C   UNL     1      47.642   1.685   6.406  0.00  0.00    +0.000 C 
ATOM     16  C   UNL     1      46.673   1.361   7.540  0.00  0.00    +0.000 C 
ENDBRANCH   9  10
ENDBRANCH   8   9
ENDBRANCH   5   8
ENDBRANCH   1   2
BRANCH   1  19
ATOM     17  O   UNL     1      49.961   6.313  15.591  0.00  0.00    +0.000 OA
ATOM     18  C   UNL     1      49.215   7.083  14.992  0.00  0.00    +0.000 C 
ATOM     19  N   UNL     1      47.969   6.714  14.555  0.00  0.00    +0.000 N 
ATOM     20  H   UNL     1      47.478   7.317  13.905  0.00  0.00    +0.000 HD
BRANCH  18  21
ATOM     21  C   UNL     1      49.591   8.483  14.754  0.00  0.00    +0.000 A 
ATOM     22  C   UNL     1      49.973   9.286  15.822  0.00  0.00    +0.000 A 
ATOM     23  S   UNL     1      50.356  10.885  15.372  0.00  0.00    +0.000 S 
ATOM     24  C   UNL     1      50.069  10.550  13.728  0.00  0.00    +0.000 A 
ATOM     25  N   UNL     1      50.244  11.507  12.778  0.00  0.00    +0.000 NA
ATOM     26  C   UNL     1      50.035  11.104  11.569  0.00  0.00    +0.000 A 
ATOM     27  N   UNL     1      49.653   9.834  11.225  0.00  0.00    +0.000 N 
ATOM     28  C   UNL     1      49.385   8.859  12.156  0.00  0.00    +0.000 A 
ATOM     29  O   UNL     1      48.908   7.780  11.822  0.00  0.00    +0.000 OA
ATOM     30  C   UNL     1      49.658   9.244  13.528  0.00  0.00    +0.000 A 
ATOM     31  H   UNL     1      49.473   9.590  10.263  0.00  0.00    +0.000 HD
ENDBRANCH  18  21
ENDBRANCH   1  19
TORSDOF 6
ENDMDL
MODEL 5
REMARK VINA RESULT:    -7.340      2.325      3.139
REMARK INTER + INTRA:         -10.808
REMARK INTER:                  -9.847
REMARK INTRA:                  -0.961
REMARK UNBOUND:                -0.894
REMARK  Name = 
REMARK  6 active torsions:
REMARK  status: ('A' for Active; 'I' for Inactive)
REMARK    1  A    between atoms: C_2  and  C_20
REMARK    2  A    between atoms: N_3  and  C_4
REMARK    3  A    between atoms: C_4  and  C_5
REMARK    4  A    between atoms: C_8  and  C_9
REMARK    5  A    between atoms: C_9  and  C_10
REMARK    6  A    between atoms: C_10  and  C_11
REMARK                            x       y       z     vdW  Elec       q    Type
REMARK                         _______ _______ _______ _____ _____    ______ ____
ROOT
ATOM      1  C   UNL     1      47.801   5.196  14.678  0.00  0.00    +0.000 C 
ENDROOT
BRANCH   1   2
ATOM      2  C   UNL     1      46.794   5.052  13.567  0.00  0.00    +0.000 A 
ATOM      3  C   UNL     1      46.025   3.887  13.459  0.00  0.00    +0.000 A 
ATOM      4  C   UNL     1      45.096   3.741  12.427  0.00  0.00    +0.000 A 
ATOM      5  C   UNL     1      44.912   4.759  11.481  0.00  0.00    +0.000 A 
ATOM      6  C   UNL     1      45.703   5.911  11.572  0.00  0.00    +0.000 A 
ATOM      7  C   UNL     1      46.638   6.054  12.600  0.00  0.00    +0.000 A 
BRANCH   5   8
ATOM      8  C   UNL     1      43.917   4.604  10.352  0.00  0.00    +0.000 C 
BRANCH   8   9
ATOM      9  C   UNL     1      44.579   4.301   9.006  0.00  0.00    +0.000 C 
BRANCH   9  10
ATOM     10  C   UNL     1      45.031   2.852   8.909  0.00  0.00    +0.000 C 
ATOM     11  O   UNL     1      44.497   1.955   9.558  0.00  0.00    +0.000 OA
ATOM     12  N   UNL     1      46.064   2.600   8.029  0.00  0.00    +0.000 N 
ATOM     13  C   UNL     1      46.825   3.558   7.249  0.00  0.00    +0.000 C 
ATOM     14  C   UNL     1      47.235   2.757   6.025  0.00  0.00    +0.000 C 
ATOM     15  C   UNL     1      47.478   1.360   6.586  0.00  0.00    +0.000 C 
ATOM     16  C   UNL     1      46.514   1.244   7.764  0.00  0.00    +0.000 C 
ENDBRANCH   9  10
ENDBRANCH   8   9
ENDBRANCH   5   8
ENDBRANCH   1   2
BRANCH   1  19
ATOM     17  O   UNL     1      50.139   6.700  15.146  0.00  0.00    +0.000 OA
ATOM     18  C   UNL     1      49.044   7.234  15.298  0.00  0.00    +0.000 C 
ATOM     19  N   UNL     1      47.863   6.553  15.153  0.00  0.00    +0.000 N 
ATOM     20  H   UNL     1      46.997   7.078  15.099  0.00  0.00    +0.000 HD
BRANCH  18  21
ATOM     21  C   UNL     1      48.929   8.641  15.707  0.00  0.00    +0.000 A 
ATOM     22  C   UNL     1      49.327   9.648  14.836  0.00  0.00    +0.000 A 
ATOM     23  S   UNL     1      49.146  11.217  15.478  0.00  0.00    +0.000 S 
ATOM     24  C   UNL     1      48.486  10.610  16.924  0.00  0.00    +0.000 A 
ATOM     25  N   UNL     1      48.081  11.449  17.915  0.00  0.00    +0.000 NA
ATOM     26  C   UNL     1      47.559  10.855  18.937  0.00  0.00    +0.000 A 
ATOM     27  N   UNL     1      47.417   9.498  19.063  0.00  0.00    +0.000 N 
ATOM     28  C   UNL     1      47.885   8.611  18.124  0.00  0.00    +0.000 A 
ATOM     29  O   UNL     1      47.872   7.402  18.335  0.00  0.00    +0.000 OA
ATOM     30  C   UNL     1      48.432   9.227  16.930  0.00  0.00    +0.000 A 
ATOM     31  H   UNL     1      47.030   9.094  19.902  0.00  0.00    +0.000 HD
ENDBRANCH  18  21
ENDBRANCH   1  19
TORSDOF 6
ENDMDL
MODEL 6
REMARK VINA RESULT:    -7.215      4.554      9.574
REMARK INTER + INTRA:         -10.640
REMARK INTER:                  -9.813
REMARK INTRA:                  -0.827
REMARK UNBOUND:                -0.894
REMARK  Name = 
REMARK  6 active torsions:
REMARK  status: ('A' for Active; 'I' for Inactive)
REMARK    1  A    between atoms: C_2  and  C_20
REMARK    2  A    between atoms: N_3  and  C_4
REMARK    3  A    between atoms: C_4  and  C_5
REMARK    4  A    between atoms: C_8  and  C_9
REMARK    5  A    between atoms: C_9  and  C_10
REMARK    6  A    between atoms: C_10  and  C_11
REMARK                            x       y       z     vdW  Elec       q    Type
REMARK                         _______ _______ _______ _____ _____    ______ ____
ROOT
ATOM      1  C   UNL     1      47.146   3.490  16.820  0.00  0.00    +0.000 C 
ENDROOT
BRANCH   1   2
ATOM      2  C   UNL     1      48.618   3.555  17.132  0.00  0.00    +0.000 A 
ATOM      3  C   UNL     1      49.400   2.394  17.091  0.00  0.00    +0.000 A 
ATOM      4  C   UNL     1      50.763   2.443  17.388  0.00  0.00    +0.000 A 
ATOM      5  C   UNL     1      51.378   3.655  17.732  0.00  0.00    +0.000 A 
ATOM      6  C   UNL     1      50.589   4.811  17.803  0.00  0.00    +0.000 A 
ATOM      7  C   UNL     1      49.223   4.760  17.512  0.00  0.00    +0.000 A 
BRANCH   5   8
ATOM      8  C   UNL     1      52.851   3.715  18.068  0.00  0.00    +0.000 C 
BRANCH   8   9
ATOM      9  C   UNL     1      53.656   2.577  17.439  0.00  0.00    +0.000 C 
BRANCH   9  10
ATOM     10  C   UNL     1      54.171   1.600  18.484  0.00  0.00    +0.000 C 
ATOM     11  O   UNL     1      54.058   1.812  19.689  0.00  0.00    +0.000 OA
ATOM     12  N   UNL     1      54.754   0.448  17.998  0.00  0.00    +0.000 N 
ATOM     13  C   UNL     1      55.009   0.092  16.614  0.00  0.00    +0.000 C 
ATOM     14  C   UNL     1      54.943  -1.425  16.630  0.00  0.00    +0.000 C 
ATOM     15  C   UNL     1      55.545  -1.787  17.984  0.00  0.00    +0.000 C 
ATOM     16  C   UNL     1      55.187  -0.613  18.892  0.00  0.00    +0.000 C 
ENDBRANCH   9  10
ENDBRANCH   8   9
ENDBRANCH   5   8
ENDBRANCH   1   2
BRANCH   1  19
ATOM     17  O   UNL     1      47.244   3.108  14.030  0.00  0.00    +0.000 OA
ATOM     18  C   UNL     1      46.804   4.165  14.473  0.00  0.00    +0.000 C 
ATOM     19  N   UNL     1      46.784   4.453  15.813  0.00  0.00    +0.000 N 
ATOM     20  H   UNL     1      46.241   5.246  16.137  0.00  0.00    +0.000 HD
BRANCH  18  21
ATOM     21  C   UNL     1      46.320   5.227  13.580  0.00  0.00    +0.000 A 
ATOM     22  C   UNL     1      47.138   6.314  13.293  0.00  0.00    +0.000 A 
ATOM     23  S   UNL     1      46.413   7.459  12.259  0.00  0.00    +0.000 S 
ATOM     24  C   UNL     1      44.999   6.523  12.120  0.00  0.00    +0.000 A 
ATOM     25  N   UNL     1      43.964   6.929  11.337  0.00  0.00    +0.000 NA
ATOM     26  C   UNL     1      42.974   6.101  11.288  0.00  0.00    +0.000 A 
ATOM     27  N   UNL     1      42.920   4.909  11.961  0.00  0.00    +0.000 N 
ATOM     28  C   UNL     1      43.906   4.497  12.825  0.00  0.00    +0.000 A 
ATOM     29  O   UNL     1      43.760   3.496  13.520  0.00  0.00    +0.000 OA
ATOM     30  C   UNL     1      45.067   5.365  12.875  0.00  0.00    +0.000 A 
ATOM     31  H   UNL     1      42.102   4.320  11.907  0.00  0.00    +0.000 HD
ENDBRANCH  18  21
ENDBRANCH   1  19
TORSDOF 6
ENDMDL
MODEL 7
REMARK VINA RESULT:    -7.161      3.956      9.064
REMARK INTER + INTRA:         -10.567
REMARK INTER:                  -9.446
REMARK INTRA:                  -1.121
REMARK UNBOUND:                -0.894
REMARK  Name = 
REMARK  6 active torsions:
REMARK  status: ('A' for Active; 'I' for Inactive)
REMARK    1  A    between atoms: C_2  and  C_20
REMARK    2  A    between atoms: N_3  and  C_4
REMARK    3  A    between atoms: C_4  and  C_5
REMARK    4  A    between atoms: C_8  and  C_9
REMARK    5  A    between atoms: C_9  and  C_10
REMARK    6  A    between atoms: C_10  and  C_11
REMARK                            x       y       z     vdW  Elec       q    Type
REMARK                         _______ _______ _______ _____ _____    ______ ____
ROOT
ATOM      1  C   UNL     1      47.336   3.287  16.896  0.00  0.00    +0.000 C 
ENDROOT
BRANCH   1   2
ATOM      2  C   UNL     1      48.813   3.223  17.188  0.00  0.00    +0.000 A 
ATOM      3  C   UNL     1      49.541   2.065  16.891  0.00  0.00    +0.000 A 
ATOM      4  C   UNL     1      50.907   1.993  17.166  0.00  0.00    +0.000 A 
ATOM      5  C   UNL     1      51.579   3.080  17.743  0.00  0.00    +0.000 A 
ATOM      6  C   UNL     1      50.844   4.227  18.068  0.00  0.00    +0.000 A 
ATOM      7  C   UNL     1      49.474   4.296  17.799  0.00  0.00    +0.000 A 
BRANCH   5   8
ATOM      8  C   UNL     1      53.057   3.006  18.057  0.00  0.00    +0.000 C 
BRANCH   8   9
ATOM      9  C   UNL     1      53.693   4.381  18.271  0.00  0.00    +0.000 C 
BRANCH   9  10
ATOM     10  C   UNL     1      54.483   4.837  17.055  0.00  0.00    +0.000 C 
ATOM     11  O   UNL     1      55.448   4.206  16.627  0.00  0.00    +0.000 OA
ATOM     12  N   UNL     1      54.038   5.991  16.444  0.00  0.00    +0.000 N 
ATOM     13  C   UNL     1      52.962   6.867  16.868  0.00  0.00    +0.000 C 
ATOM     14  C   UNL     1      52.462   7.457  15.561  0.00  0.00    +0.000 C 
ATOM     15  C   UNL     1      53.735   7.606  14.735  0.00  0.00    +0.000 C 
ATOM     16  C   UNL     1      54.639   6.471  15.210  0.00  0.00    +0.000 C 
ENDBRANCH   9  10
ENDBRANCH   8   9
ENDBRANCH   5   8
ENDBRANCH   1   2
BRANCH   1  19
ATOM     17  O   UNL     1      47.327   3.040  14.088  0.00  0.00    +0.000 OA
ATOM     18  C   UNL     1      46.996   4.108  14.595  0.00  0.00    +0.000 C 
ATOM     19  N   UNL     1      47.037   4.328  15.948  0.00  0.00    +0.000 N 
ATOM     20  H   UNL     1      46.576   5.148  16.326  0.00  0.00    +0.000 HD
BRANCH  18  21
ATOM     21  C   UNL     1      46.587   5.253  13.770  0.00  0.00    +0.000 A 
ATOM     22  C   UNL     1      47.444   6.335  13.618  0.00  0.00    +0.000 A 
ATOM     23  S   UNL     1      46.805   7.582  12.646  0.00  0.00    +0.000 S 
ATOM     24  C   UNL     1      45.379   6.700  12.356  0.00  0.00    +0.000 A 
ATOM     25  N   UNL     1      44.397   7.199  11.556  0.00  0.00    +0.000 NA
ATOM     26  C   UNL     1      43.392   6.406  11.386  0.00  0.00    +0.000 A 
ATOM     27  N   UNL     1      43.273   5.164  11.955  0.00  0.00    +0.000 N 
ATOM     28  C   UNL     1      44.200   4.655  12.832  0.00  0.00    +0.000 A 
ATOM     29  O   UNL     1      43.993   3.606  13.432  0.00  0.00    +0.000 OA
ATOM     30  C   UNL     1      45.377   5.483  13.015  0.00  0.00    +0.000 A 
ATOM     31  H   UNL     1      42.446   4.605  11.809  0.00  0.00    +0.000 HD
ENDBRANCH  18  21
ENDBRANCH   1  19
TORSDOF 6
ENDMDL
MODEL 8
REMARK VINA RESULT:    -7.130      2.835      8.803
REMARK INTER + INTRA:         -10.525
REMARK INTER:                  -9.198
REMARK INTRA:                  -1.326
REMARK UNBOUND:                -0.894
REMARK  Name = 
REMARK  6 active torsions:
REMARK  status: ('A' for Active; 'I' for Inactive)
REMARK    1  A    between atoms: C_2  and  C_20
REMARK    2  A    between atoms: N_3  and  C_4
REMARK    3  A    between atoms: C_4  and  C_5
REMARK    4  A    between atoms: C_8  and  C_9
REMARK    5  A    between atoms: C_9  and  C_10
REMARK    6  A    between atoms: C_10  and  C_11
REMARK                            x       y       z     vdW  Elec       q    Type
REMARK                         _______ _______ _______ _____ _____    ______ ____
ROOT
ATOM      1  C   UNL     1      47.621   7.838  11.781  0.00  0.00    +0.000 C 
ENDROOT
BRANCH   1   2
ATOM      2  C   UNL     1      48.228   7.959  13.154  0.00  0.00    +0.000 A 
ATOM      3  C   UNL     1      49.387   7.243  13.478  0.00  0.00    +0.000 A 
ATOM      4  C   UNL     1      49.951   7.341  14.751  0.00  0.00    +0.000 A 
ATOM      5  C   UNL     1      49.371   8.160  15.730  0.00  0.00    +0.000 A 
ATOM      6  C   UNL     1      48.194   8.851  15.415  0.00  0.00    +0.000 A 
ATOM      7  C   UNL     1      47.626   8.747  14.142  0.00  0.00    +0.000 A 
BRANCH   5   8
ATOM      8  C   UNL     1      49.968   8.262  17.116  0.00  0.00    +0.000 C 
BRANCH   8   9
ATOM      9  C   UNL     1      49.336   7.290  18.114  0.00  0.00    +0.000 C 
BRANCH   9  10
ATOM     10  C   UNL     1      49.999   5.922  18.072  0.00  0.00    +0.000 C 
ATOM     11  O   UNL     1      51.117   5.723  18.543  0.00  0.00    +0.000 OA
ATOM     12  N   UNL     1      49.260   4.911  17.494  0.00  0.00    +0.000 N 
ATOM     13  C   UNL     1      47.964   5.010  16.848  0.00  0.00    +0.000 C 
ATOM     14  C   UNL     1      47.357   3.638  17.082  0.00  0.00    +0.000 C 
ATOM     15  C   UNL     1      48.559   2.703  16.991  0.00  0.00    +0.000 C 
ATOM     16  C   UNL     1      49.735   3.537  17.490  0.00  0.00    +0.000 C 
ENDBRANCH   9  10
ENDBRANCH   8   9
ENDBRANCH   5   8
ENDBRANCH   1   2
BRANCH   1  19
ATOM     17  O   UNL     1      44.836   7.502  12.055  0.00  0.00    +0.000 OA
ATOM     18  C   UNL     1      45.525   6.538  11.731  0.00  0.00    +0.000 C 
ATOM     19  N   UNL     1      46.891   6.604  11.641  0.00  0.00    +0.000 N 
ATOM     20  H   UNL     1      47.390   5.847  11.188  0.00  0.00    +0.000 HD
BRANCH  18  21
ATOM     21  C   UNL     1      44.926   5.221  11.475  0.00  0.00    +0.000 A 
ATOM     22  C   UNL     1      44.178   4.599  12.467  0.00  0.00    +0.000 A 
ATOM     23  S   UNL     1      43.575   3.071  12.010  0.00  0.00    +0.000 S 
ATOM     24  C   UNL     1      44.253   3.206  10.455  0.00  0.00    +0.000 A 
ATOM     25  N   UNL     1      44.083   2.225   9.529  0.00  0.00    +0.000 NA
ATOM     26  C   UNL     1      44.612   2.478   8.378  0.00  0.00    +0.000 A 
ATOM     27  N   UNL     1      45.309   3.618   8.075  0.00  0.00    +0.000 N 
ATOM     28  C   UNL     1      45.575   4.597   9.001  0.00  0.00    +0.000 A 
ATOM     29  O   UNL     1      46.322   5.533   8.735  0.00  0.00    +0.000 OA
ATOM     30  C   UNL     1      44.955   4.388  10.296  0.00  0.00    +0.000 A 
ATOM     31  H   UNL     1      45.727   3.742   7.164  0.00  0.00    +0.000 HD
ENDBRANCH  18  21
ENDBRANCH   1  19
TORSDOF 6
ENDMDL
MODEL 9
REMARK VINA RESULT:    -6.974      3.367      5.237
REMARK INTER + INTRA:         -10.314
REMARK INTER:                  -9.365
REMARK INTRA:                  -0.949
REMARK UNBOUND:                -0.894
REMARK  Name = 
REMARK  6 active torsions:
REMARK  status: ('A' for Active; 'I' for Inactive)
REMARK    1  A    between atoms: C_2  and  C_20
REMARK    2  A    between atoms: N_3  and  C_4
REMARK    3  A    between atoms: C_4  and  C_5
REMARK    4  A    between atoms: C_8  and  C_9
REMARK    5  A    between atoms: C_9  and  C_10
REMARK    6  A    between atoms: C_10  and  C_11
REMARK                            x       y       z     vdW  Elec       q    Type
REMARK                         _______ _______ _______ _____ _____    ______ ____
ROOT
ATOM      1  C   UNL     1      47.890   3.614  17.511  0.00  0.00    +0.000 C 
ENDROOT
BRANCH   1   2
ATOM      2  C   UNL     1      47.768   4.385  16.223  0.00  0.00    +0.000 A 
ATOM      3  C   UNL     1      47.123   3.816  15.119  0.00  0.00    +0.000 A 
ATOM      4  C   UNL     1      47.014   4.520  13.918  0.00  0.00    +0.000 A 
ATOM      5  C   UNL     1      47.546   5.810  13.794  0.00  0.00    +0.000 A 
ATOM      6  C   UNL     1      48.219   6.367  14.889  0.00  0.00    +0.000 A 
ATOM      7  C   UNL     1      48.334   5.660  16.089  0.00  0.00    +0.000 A 
BRANCH   5   8
ATOM      8  C   UNL     1      47.445   6.575  12.493  0.00  0.00    +0.000 C 
BRANCH   8   9
ATOM      9  C   UNL     1      46.000   6.814  12.049  0.00  0.00    +0.000 C 
BRANCH   9  10
ATOM     10  C   UNL     1      45.549   5.798  11.011  0.00  0.00    +0.000 C 
ATOM     11  O   UNL     1      46.034   5.757   9.882  0.00  0.00    +0.000 OA
ATOM     12  N   UNL     1      44.578   4.908  11.420  0.00  0.00    +0.000 N 
ATOM     13  C   UNL     1      43.876   4.874  12.690  0.00  0.00    +0.000 C 
ATOM     14  C   UNL     1      43.546   3.403  12.863  0.00  0.00    +0.000 C 
ATOM     15  C   UNL     1      43.258   2.938  11.439  0.00  0.00    +0.000 C 
ATOM     16  C   UNL     1      44.140   3.821  10.560  0.00  0.00    +0.000 C 
ENDBRANCH   9  10
ENDBRANCH   8   9
ENDBRANCH   5   8
ENDBRANCH   1   2
BRANCH   1  19
ATOM     17  O   UNL     1      49.499   1.719  16.183  0.00  0.00    +0.000 OA
ATOM     18  C   UNL     1      49.996   2.408  17.069  0.00  0.00    +0.000 C 
ATOM     19  N   UNL     1      49.265   3.305  17.805  0.00  0.00    +0.000 N 
ATOM     20  H   UNL     1      49.753   3.979  18.383  0.00  0.00    +0.000 HD
BRANCH  18  21
ATOM     21  C   UNL     1      51.411   2.272  17.442  0.00  0.00    +0.000 A 
ATOM     22  C   UNL     1      51.966   1.008  17.591  0.00  0.00    +0.000 A 
ATOM     23  S   UNL     1      53.610   1.033  18.045  0.00  0.00    +0.000 S 
ATOM     24  C   UNL     1      53.650   2.734  18.014  0.00  0.00    +0.000 A 
ATOM     25  N   UNL     1      54.797   3.412  18.287  0.00  0.00    +0.000 NA
ATOM     26  C   UNL     1      54.696   4.696  18.183  0.00  0.00    +0.000 A 
ATOM     27  N   UNL     1      53.548   5.363  17.843  0.00  0.00    +0.000 N 
ATOM     28  C   UNL     1      52.349   4.725  17.639  0.00  0.00    +0.000 A 
ATOM     29  O   UNL     1      51.313   5.362  17.480  0.00  0.00    +0.000 OA
ATOM     30  C   UNL     1      52.419   3.277  17.690  0.00  0.00    +0.000 A 
ATOM     31  H   UNL     1      53.526   6.372  17.811  0.00  0.00    +0.000 HD
ENDBRANCH  18  21
ENDBRANCH   1  19
TORSDOF 6
ENDMDL
