MODEL 1
REMARK VINA RESULT:    -8.343      0.000      0.000
REMARK INTER + INTRA:         -12.779
REMARK INTER:                 -11.514
REMARK INTRA:                  -1.265
REMARK UNBOUND:                -1.265
REMARK  Name = 
REMARK  7 active torsions:
REMARK  status: ('A' for Active; 'I' for Inactive)
REMARK    1  A    between atoms: C_2  and  C_20
REMARK    2  A    between atoms: N_3  and  C_4
REMARK    3  A    between atoms: C_4  and  C_5
REMARK    4  A    between atoms: C_8  and  C_9
REMARK    5  A    between atoms: C_9  and  C_10
REMARK    6  A    between atoms: C_10  and  O_11
REMARK    7  A    between atoms: C_10  and  C_12
REMARK                            x       y       z     vdW  Elec       q    Type
REMARK                         _______ _______ _______ _____ _____    ______ ____
ROOT
ATOM      1  C   UNL     1      46.660   8.401  13.063  0.00  0.00    +0.000 C 
ENDROOT
BRANCH   1   2
ATOM      2  C   UNL     1      46.020   7.264  12.291  0.00  0.00    +0.000 A 
ATOM      3  N   UNL     1      46.684   6.765  11.231  0.00  0.00    +0.000 NA
ATOM      4  C   UNL     1      46.031   5.848  10.487  0.00  0.00    +0.000 A 
ATOM      5  C   UNL     1      44.751   5.412  10.749  0.00  0.00    +0.000 A 
ATOM      6  C   UNL     1      44.159   5.996  11.852  0.00  0.00    +0.000 A 
ATOM      7  N   UNL     1      44.750   6.937  12.615  0.00  0.00    +0.000 NA
BRANCH   5   8
ATOM      8  C   UNL     1      44.071   4.341   9.945  0.00  0.00    +0.000 C 
BRANCH   8   9
ATOM      9  C   UNL     1      44.868   3.021   9.957  0.00  0.00    +0.000 C 
BRANCH   9  10
ATOM     10  C   UNL     1      45.585   2.674   8.664  0.00  0.00    +0.000 A 
ATOM     11  C   UNL     1      45.811   3.691   7.719  0.00  0.00    +0.000 A 
ATOM     12  C   UNL     1      46.540   3.446   6.555  0.00  0.00    +0.000 A 
ATOM     13  C   UNL     1      47.061   2.177   6.315  0.00  0.00    +0.000 A 
ATOM     14  C   UNL     1      46.851   1.158   7.242  0.00  0.00    +0.000 A 
ATOM     15  C   UNL     1      46.122   1.404   8.409  0.00  0.00    +0.000 A 
ENDBRANCH   9  10
BRANCH   9  16
ATOM     16  O   UNL     1      43.972   1.950  10.261  0.00  0.00    +0.000 OA
ATOM     17  H   UNL     1      44.210   1.193   9.699  0.00  0.00    +0.000 HD
ENDBRANCH   9  16
ENDBRANCH   8   9
ENDBRANCH   5   8
ENDBRANCH   1   2
BRANCH   1  20
ATOM     18  O   UNL     1      49.255   7.243  13.559  0.00  0.00    +0.000 OA
ATOM     19  C   UNL     1      48.410   7.306  14.445  0.00  0.00    +0.000 C 
ATOM     20  N   UNL     1      47.189   7.910  14.316  0.00  0.00    +0.000 N 
ATOM     21  H   UNL     1      46.477   7.704  15.007  0.00  0.00    +0.000 HD
BRANCH  19  22
ATOM     22  C   UNL     1      48.487   6.561  15.693  0.00  0.00    +0.000 A 
ATOM     23  C   UNL     1      49.064   7.075  16.837  0.00  0.00    +0.000 A 
ATOM     24  S   UNL     1      49.527   5.830  17.925  0.00  0.00    +0.000 S 
ATOM     25  C   UNL     1      48.835   4.626  16.934  0.00  0.00    +0.000 A 
ATOM     26  N   UNL     1      48.989   3.297  17.175  0.00  0.00    +0.000 NA
ATOM     27  C   UNL     1      48.352   2.532  16.348  0.00  0.00    +0.000 A 
ATOM     28  N   UNL     1      47.532   2.973  15.337  0.00  0.00    +0.000 N 
ATOM     29  C   UNL     1      47.329   4.306  15.068  0.00  0.00    +0.000 A 
ATOM     30  O   UNL     1      46.523   4.684  14.228  0.00  0.00    +0.000 OA
ATOM     31  C   UNL     1      48.135   5.186  15.886  0.00  0.00    +0.000 A 
ATOM     32  H   UNL     1      46.986   2.325  14.788  0.00  0.00    +0.000 HD
ENDBRANCH  19  22
ENDBRANCH   1  20
TORSDOF 7
ENDMDL
MODEL 2
REMARK VINA RESULT:    -7.989      2.102      3.573
REMARK INTER + INTRA:         -12.290
REMARK INTER:                 -11.268
REMARK INTRA:                  -1.022
REMARK UNBOUND:                -1.265
REMARK  Name = 
REMARK  7 active torsions:
REMARK  status: ('A' for Active; 'I' for Inactive)
REMARK    1  A    between atoms: C_2  and  C_20
REMARK    2  A    between atoms: N_3  and  C_4
REMARK    3  A    between atoms: C_4  and  C_5
REMARK    4  A    between atoms: C_8  and  C_9
REMARK    5  A    between atoms: C_9  and  C_10
REMARK    6  A    between atoms: C_10  and  O_11
REMARK    7  A    between atoms: C_10  and  C_12
REMARK                            x       y       z     vdW  Elec       q    Type
REMARK                         _______ _______ _______ _____ _____    ______ ____
ROOT
ATOM      1  C   UNL     1      47.182   4.172  15.710  0.00  0.00    +0.000 C 
ENDROOT
BRANCH   1   2
ATOM      2  C   UNL     1      46.802   4.476  14.274  0.00  0.00    +0.000 A 
ATOM      3  N   UNL     1      47.179   5.662  13.756  0.00  0.00    +0.000 NA
ATOM      4  C   UNL     1      46.713   5.957  12.525  0.00  0.00    +0.000 A 
ATOM      5  C   UNL     1      45.889   5.131  11.793  0.00  0.00    +0.000 A 
ATOM      6  C   UNL     1      45.555   3.947  12.422  0.00  0.00    +0.000 A 
ATOM      7  N   UNL     1      45.965   3.610  13.661  0.00  0.00    +0.000 NA
BRANCH   5   8
ATOM      8  C   UNL     1      45.438   5.455  10.397  0.00  0.00    +0.000 C 
BRANCH   8   9
ATOM      9  C   UNL     1      44.647   4.291   9.765  0.00  0.00    +0.000 C 
BRANCH   9  10
ATOM     10  C   UNL     1      45.416   3.433   8.777  0.00  0.00    +0.000 A 
ATOM     11  C   UNL     1      46.125   4.064   7.739  0.00  0.00    +0.000 A 
ATOM     12  C   UNL     1      46.918   3.330   6.856  0.00  0.00    +0.000 A 
ATOM     13  C   UNL     1      47.020   1.947   6.997  0.00  0.00    +0.000 A 
ATOM     14  C   UNL     1      46.328   1.307   8.023  0.00  0.00    +0.000 A 
ATOM     15  C   UNL     1      45.535   2.042   8.908  0.00  0.00    +0.000 A 
ENDBRANCH   9  10
BRANCH   9  16
ATOM     16  O   UNL     1      43.510   4.828   9.087  0.00  0.00    +0.000 OA
ATOM     17  H   UNL     1      42.811   4.977   9.746  0.00  0.00    +0.000 HD
ENDBRANCH   9  16
ENDBRANCH   8   9
ENDBRANCH   5   8
ENDBRANCH   1   2
BRANCH   1  20
ATOM     18  O   UNL     1      49.810   4.337  16.886  0.00  0.00    +0.000 OA
ATOM     19  C   UNL     1      49.045   5.294  16.910  0.00  0.00    +0.000 C 
ATOM     20  N   UNL     1      47.816   5.325  16.307  0.00  0.00    +0.000 N 
ATOM     21  H   UNL     1      47.167   6.053  16.581  0.00  0.00    +0.000 HD
BRANCH  19  22
ATOM     22  C   UNL     1      49.230   6.459  17.764  0.00  0.00    +0.000 A 
ATOM     23  C   UNL     1      49.542   6.362  19.104  0.00  0.00    +0.000 A 
ATOM     24  S   UNL     1      49.134   7.798  19.954  0.00  0.00    +0.000 S 
ATOM     25  C   UNL     1      48.673   8.588  18.513  0.00  0.00    +0.000 A 
ATOM     26  N   UNL     1      48.074   9.808  18.503  0.00  0.00    +0.000 NA
ATOM     27  C   UNL     1      47.842  10.274  17.318  0.00  0.00    +0.000 A 
ATOM     28  N   UNL     1      48.203   9.658  16.144  0.00  0.00    +0.000 N 
ATOM     29  C   UNL     1      48.827   8.434  16.104  0.00  0.00    +0.000 A 
ATOM     30  O   UNL     1      49.227   7.942  15.057  0.00  0.00    +0.000 OA
ATOM     31  C   UNL     1      48.976   7.823  17.407  0.00  0.00    +0.000 A 
ATOM     32  H   UNL     1      48.080  10.119  15.254  0.00  0.00    +0.000 HD
ENDBRANCH  19  22
ENDBRANCH   1  20
TORSDOF 7
ENDMDL
MODEL 3
REMARK VINA RESULT:    -7.940      1.421      1.558
REMARK INTER + INTRA:         -12.223
REMARK INTER:                 -11.257
REMARK INTRA:                  -0.966
REMARK UNBOUND:                -1.265
REMARK  Name = 
REMARK  7 active torsions:
REMARK  status: ('A' for Active; 'I' for Inactive)
REMARK    1  A    between atoms: C_2  and  C_20
REMARK    2  A    between atoms: N_3  and  C_4
REMARK    3  A    between atoms: C_4  and  C_5
REMARK    4  A    between atoms: C_8  and  C_9
REMARK    5  A    between atoms: C_9  and  C_10
REMARK    6  A    between atoms: C_10  and  O_11
REMARK    7  A    between atoms: C_10  and  C_12
REMARK                            x       y       z     vdW  Elec       q    Type
REMARK                         _______ _______ _______ _____ _____    ______ ____
ROOT
ATOM      1  C   UNL     1      47.850   7.212  13.905  0.00  0.00    +0.000 C 
ENDROOT
BRANCH   1   2
ATOM      2  C   UNL     1      47.013   6.395  12.940  0.00  0.00    +0.000 A 
ATOM      3  N   UNL     1      46.710   6.940  11.745  0.00  0.00    +0.000 NA
ATOM      4  C   UNL     1      45.857   6.246  10.965  0.00  0.00    +0.000 A 
ATOM      5  C   UNL     1      45.291   5.041  11.321  0.00  0.00    +0.000 A 
ATOM      6  C   UNL     1      45.661   4.579  12.570  0.00  0.00    +0.000 A 
ATOM      7  N   UNL     1      46.486   5.242  13.405  0.00  0.00    +0.000 NA
BRANCH   5   8
ATOM      8  C   UNL     1      44.395   4.255  10.406  0.00  0.00    +0.000 C 
BRANCH   8   9
ATOM      9  C   UNL     1      44.945   2.839  10.142  0.00  0.00    +0.000 C 
BRANCH   9  10
ATOM     10  C   UNL     1      45.613   2.634   8.795  0.00  0.00    +0.000 A 
ATOM     11  C   UNL     1      45.820   3.749   7.963  0.00  0.00    +0.000 A 
ATOM     12  C   UNL     1      46.506   3.630   6.753  0.00  0.00    +0.000 A 
ATOM     13  C   UNL     1      47.002   2.391   6.354  0.00  0.00    +0.000 A 
ATOM     14  C   UNL     1      46.810   1.277   7.167  0.00  0.00    +0.000 A 
ATOM     15  C   UNL     1      46.124   1.395   8.379  0.00  0.00    +0.000 A 
ENDBRANCH   9  10
BRANCH   9  16
ATOM     16  O   UNL     1      43.868   1.906  10.243  0.00  0.00    +0.000 OA
ATOM     17  H   UNL     1      44.228   1.071  10.589  0.00  0.00    +0.000 HD
ENDBRANCH   9  16
ENDBRANCH   8   9
ENDBRANCH   5   8
ENDBRANCH   1   2
BRANCH   1  20
ATOM     18  O   UNL     1      48.431   8.035  16.607  0.00  0.00    +0.000 OA
ATOM     19  C   UNL     1      48.598   6.875  16.249  0.00  0.00    +0.000 C 
ATOM     20  N   UNL     1      48.272   6.386  15.013  0.00  0.00    +0.000 N 
ATOM     21  H   UNL     1      48.663   5.494  14.733  0.00  0.00    +0.000 HD
BRANCH  19  22
ATOM     22  C   UNL     1      49.367   5.895  17.005  0.00  0.00    +0.000 A 
ATOM     23  C   UNL     1      50.519   6.217  17.691  0.00  0.00    +0.000 A 
ATOM     24  S   UNL     1      51.491   4.830  17.979  0.00  0.00    +0.000 S 
ATOM     25  C   UNL     1      50.311   3.794  17.314  0.00  0.00    +0.000 A 
ATOM     26  N   UNL     1      50.533   2.471  17.096  0.00  0.00    +0.000 NA
ATOM     27  C   UNL     1      49.508   1.831  16.632  0.00  0.00    +0.000 A 
ATOM     28  N   UNL     1      48.267   2.380  16.417  0.00  0.00    +0.000 N 
ATOM     29  C   UNL     1      47.989   3.707  16.641  0.00  0.00    +0.000 A 
ATOM     30  O   UNL     1      46.857   4.161  16.537  0.00  0.00    +0.000 OA
ATOM     31  C   UNL     1      49.150   4.479  17.029  0.00  0.00    +0.000 A 
ATOM     32  H   UNL     1      47.483   1.805  16.146  0.00  0.00    +0.000 HD
ENDBRANCH  19  22
ENDBRANCH   1  20
TORSDOF 7
ENDMDL
MODEL 4
REMARK VINA RESULT:    -7.887      2.630      3.542
REMARK INTER + INTRA:         -12.150
REMARK INTER:                 -11.055
REMARK INTRA:                  -1.095
REMARK UNBOUND:                -1.265
REMARK  Name = 
REMARK  7 active torsions:
REMARK  status: ('A' for Active; 'I' for Inactive)
REMARK    1  A    between atoms: C_2  and  C_20
REMARK    2  A    between atoms: N_3  and  C_4
REMARK    3  A    between atoms: C_4  and  C_5
REMARK    4  A    between atoms: C_8  and  C_9
REMARK    5  A    between atoms: C_9  and  C_10
REMARK    6  A    between atoms: C_10  and  O_11
REMARK    7  A    between atoms: C_10  and  C_12
REMARK                            x       y       z     vdW  Elec       q    Type
REMARK                         _______ _______ _______ _____ _____    ______ ____
ROOT
ATOM      1  C   UNL     1      47.158   4.498  15.448  0.00  0.00    +0.000 C 
ENDROOT
BRANCH   1   2
ATOM      2  C   UNL     1      46.751   4.698  14.001  0.00  0.00    +0.000 A 
ATOM      3  N   UNL     1      47.133   5.834  13.386  0.00  0.00    +0.000 NA
ATOM      4  C   UNL     1      46.645   6.042  12.146  0.00  0.00    +0.000 A 
ATOM      5  C   UNL     1      45.794   5.175  11.496  0.00  0.00    +0.000 A 
ATOM      6  C   UNL     1      45.458   4.048  12.221  0.00  0.00    +0.000 A 
ATOM      7  N   UNL     1      45.890   3.801  13.473  0.00  0.00    +0.000 NA
BRANCH   5   8
ATOM      8  C   UNL     1      45.318   5.398  10.089  0.00  0.00    +0.000 C 
BRANCH   8   9
ATOM      9  C   UNL     1      44.704   4.120   9.482  0.00  0.00    +0.000 C 
BRANCH   9  10
ATOM     10  C   UNL     1      45.635   3.292   8.616  0.00  0.00    +0.000 A 
ATOM     11  C   UNL     1      45.636   1.893   8.764  0.00  0.00    +0.000 A 
ATOM     12  C   UNL     1      46.409   1.079   7.934  0.00  0.00    +0.000 A 
ATOM     13  C   UNL     1      47.194   1.650   6.935  0.00  0.00    +0.000 A 
ATOM     14  C   UNL     1      47.202   3.034   6.771  0.00  0.00    +0.000 A 
ATOM     15  C   UNL     1      46.428   3.849   7.601  0.00  0.00    +0.000 A 
ENDBRANCH   9  10
BRANCH   9  16
ATOM     16  O   UNL     1      43.578   4.490   8.684  0.00  0.00    +0.000 OA
ATOM     17  H   UNL     1      43.861   5.196   8.078  0.00  0.00    +0.000 HD
ENDBRANCH   9  16
ENDBRANCH   8   9
ENDBRANCH   5   8
ENDBRANCH   1   2
BRANCH   1  20
ATOM     18  O   UNL     1      49.643   4.397  16.909  0.00  0.00    +0.000 OA
ATOM     19  C   UNL     1      49.107   5.468  16.644  0.00  0.00    +0.000 C 
ATOM     20  N   UNL     1      47.974   5.607  15.888  0.00  0.00    +0.000 N 
ATOM     21  H   UNL     1      47.479   6.490  15.926  0.00  0.00    +0.000 HD
BRANCH  19  22
ATOM     22  C   UNL     1      49.466   6.732  17.271  0.00  0.00    +0.000 A 
ATOM     23  C   UNL     1      50.449   7.562  16.772  0.00  0.00    +0.000 A 
ATOM     24  S   UNL     1      51.043   8.633  17.976  0.00  0.00    +0.000 S 
ATOM     25  C   UNL     1      49.897   8.082  19.114  0.00  0.00    +0.000 A 
ATOM     26  N   UNL     1      49.919   8.459  20.419  0.00  0.00    +0.000 NA
ATOM     27  C   UNL     1      48.943   7.982  21.124  0.00  0.00    +0.000 A 
ATOM     28  N   UNL     1      47.919   7.209  20.631  0.00  0.00    +0.000 N 
ATOM     29  C   UNL     1      47.844   6.820  19.315  0.00  0.00    +0.000 A 
ATOM     30  O   UNL     1      46.878   6.213  18.871  0.00  0.00    +0.000 OA
ATOM     31  C   UNL     1      48.992   7.221  18.531  0.00  0.00    +0.000 A 
ATOM     32  H   UNL     1      47.135   6.950  21.213  0.00  0.00    +0.000 HD
ENDBRANCH  19  22
ENDBRANCH   1  20
TORSDOF 7
ENDMDL
MODEL 5
REMARK VINA RESULT:    -7.869      2.129      3.820
REMARK INTER + INTRA:         -12.125
REMARK INTER:                 -11.445
REMARK INTRA:                  -0.679
REMARK UNBOUND:                -1.265
REMARK  Name = 
REMARK  7 active torsions:
REMARK  status: ('A' for Active; 'I' for Inactive)
REMARK    1  A    between atoms: C_2  and  C_20
REMARK    2  A    between atoms: N_3  and  C_4
REMARK    3  A    between atoms: C_4  and  C_5
REMARK    4  A    between atoms: C_8  and  C_9
REMARK    5  A    between atoms: C_9  and  C_10
REMARK    6  A    between atoms: C_10  and  O_11
REMARK    7  A    between atoms: C_10  and  C_12
REMARK                            x       y       z     vdW  Elec       q    Type
REMARK                         _______ _______ _______ _____ _____    ______ ____
ROOT
ATOM      1  C   UNL     1      46.706   4.829  14.934  0.00  0.00    +0.000 C 
ENDROOT
BRANCH   1   2
ATOM      2  C   UNL     1      45.907   4.548  13.677  0.00  0.00    +0.000 A 
ATOM      3  N   UNL     1      46.032   3.335  13.104  0.00  0.00    +0.000 NA
ATOM      4  C   UNL     1      45.414   3.162  11.918  0.00  0.00    +0.000 A 
ATOM      5  C   UNL     1      44.684   4.139  11.278  0.00  0.00    +0.000 A 
ATOM      6  C   UNL     1      44.629   5.347  11.946  0.00  0.00    +0.000 A 
ATOM      7  N   UNL     1      45.249   5.588  13.118  0.00  0.00    +0.000 NA
BRANCH   5   8
ATOM      8  C   UNL     1      43.949   3.900   9.989  0.00  0.00    +0.000 C 
BRANCH   8   9
ATOM      9  C   UNL     1      44.768   4.363   8.767  0.00  0.00    +0.000 C 
BRANCH   9  10
ATOM     10  C   UNL     1      45.731   3.338   8.195  0.00  0.00    +0.000 A 
ATOM     11  C   UNL     1      45.576   1.987   8.553  0.00  0.00    +0.000 A 
ATOM     12  C   UNL     1      46.378   0.994   7.989  0.00  0.00    +0.000 A 
ATOM     13  C   UNL     1      47.350   1.334   7.051  0.00  0.00    +0.000 A 
ATOM     14  C   UNL     1      47.515   2.667   6.681  0.00  0.00    +0.000 A 
ATOM     15  C   UNL     1      46.711   3.662   7.245  0.00  0.00    +0.000 A 
ENDBRANCH   9  10
BRANCH   9  16
ATOM     16  O   UNL     1      45.526   5.516   9.138  0.00  0.00    +0.000 OA
ATOM     17  H   UNL     1      46.260   5.607   8.505  0.00  0.00    +0.000 HD
ENDBRANCH   9  16
ENDBRANCH   8   9
ENDBRANCH   5   8
ENDBRANCH   1   2
BRANCH   1  20
ATOM     18  O   UNL     1      49.197   5.467  16.239  0.00  0.00    +0.000 OA
ATOM     19  C   UNL     1      48.671   6.254  15.460  0.00  0.00    +0.000 C 
ATOM     20  N   UNL     1      47.536   5.996  14.740  0.00  0.00    +0.000 N 
ATOM     21  H   UNL     1      47.050   6.778  14.317  0.00  0.00    +0.000 HD
BRANCH  19  22
ATOM     22  C   UNL     1      49.047   7.656  15.346  0.00  0.00    +0.000 A 
ATOM     23  C   UNL     1      49.285   8.458  16.443  0.00  0.00    +0.000 A 
ATOM     24  S   UNL     1      49.132  10.124  16.052  0.00  0.00    +0.000 S 
ATOM     25  C   UNL     1      48.887   9.774  14.400  0.00  0.00    +0.000 A 
ATOM     26  N   UNL     1      48.538  10.722  13.492  0.00  0.00    +0.000 NA
ATOM     27  C   UNL     1      48.444  10.283  12.278  0.00  0.00    +0.000 A 
ATOM     28  N   UNL     1      48.722   8.997  11.881  0.00  0.00    +0.000 N 
ATOM     29  C   UNL     1      49.098   8.009  12.759  0.00  0.00    +0.000 A 
ATOM     30  O   UNL     1      49.433   6.895  12.379  0.00  0.00    +0.000 OA
ATOM     31  C   UNL     1      49.077   8.433  14.143  0.00  0.00    +0.000 A 
ATOM     32  H   UNL     1      48.724   8.742  10.904  0.00  0.00    +0.000 HD
ENDBRANCH  19  22
ENDBRANCH   1  20
TORSDOF 7
ENDMDL
MODEL 6
REMARK VINA RESULT:    -7.696      1.399      1.953
REMARK INTER + INTRA:         -11.885
REMARK INTER:                 -10.941
REMARK INTRA:                  -0.945
REMARK UNBOUND:                -1.265
REMARK  Name = 
REMARK  7 active torsions:
REMARK  status: ('A' for Active; 'I' for Inactive)
REMARK    1  A    between atoms: C_2  and  C_20
REMARK    2  A    between atoms: N_3  and  C_4
REMARK    3  A    between atoms: C_4  and  C_5
REMARK    4  A    between atoms: C_8  and  C_9
REMARK    5  A    between atoms: C_9  and  C_10
REMARK    6  A    between atoms: C_10  and  O_11
REMARK    7  A    between atoms: C_10  and  C_12
REMARK                            x       y       z     vdW  Elec       q    Type
REMARK                         _______ _______ _______ _____ _____    ______ ____
ROOT
ATOM      1  C   UNL     1      47.533   8.136  13.359  0.00  0.00    +0.000 C 
ENDROOT
BRANCH   1   2
ATOM      2  C   UNL     1      46.614   7.044  12.846  0.00  0.00    +0.000 A 
ATOM      3  N   UNL     1      45.284   7.229  12.957  0.00  0.00    +0.000 NA
ATOM      4  C   UNL     1      44.500   6.187  12.615  0.00  0.00    +0.000 A 
ATOM      5  C   UNL     1      44.978   4.973  12.172  0.00  0.00    +0.000 A 
ATOM      6  C   UNL     1      46.356   4.888  12.105  0.00  0.00    +0.000 A 
ATOM      7  N   UNL     1      47.191   5.884  12.461  0.00  0.00    +0.000 NA
BRANCH   5   8
ATOM      8  C   UNL     1      44.081   3.851  11.733  0.00  0.00    +0.000 C 
BRANCH   8   9
ATOM      9  C   UNL     1      43.746   3.938  10.230  0.00  0.00    +0.000 C 
BRANCH   9  10
ATOM     10  C   UNL     1      44.834   3.459   9.286  0.00  0.00    +0.000 A 
ATOM     11  C   UNL     1      45.093   2.080   9.193  0.00  0.00    +0.000 A 
ATOM     12  C   UNL     1      46.021   1.580   8.278  0.00  0.00    +0.000 A 
ATOM     13  C   UNL     1      46.706   2.452   7.435  0.00  0.00    +0.000 A 
ATOM     14  C   UNL     1      46.458   3.821   7.510  0.00  0.00    +0.000 A 
ATOM     15  C   UNL     1      45.529   4.322   8.425  0.00  0.00    +0.000 A 
ENDBRANCH   9  10
BRANCH   9  16
ATOM     16  O   UNL     1      43.454   5.299   9.907  0.00  0.00    +0.000 OA
ATOM     17  H   UNL     1      44.273   5.813  10.015  0.00  0.00    +0.000 HD
ENDBRANCH   9  16
ENDBRANCH   8   9
ENDBRANCH   5   8
ENDBRANCH   1   2
BRANCH   1  20
ATOM     18  O   UNL     1      49.743   6.786  14.627  0.00  0.00    +0.000 OA
ATOM     19  C   UNL     1      48.813   7.234  15.287  0.00  0.00    +0.000 C 
ATOM     20  N   UNL     1      47.769   7.956  14.774  0.00  0.00    +0.000 N 
ATOM     21  H   UNL     1      46.941   8.073  15.345  0.00  0.00    +0.000 HD
BRANCH  19  22
ATOM     22  C   UNL     1      48.562   6.883  16.677  0.00  0.00    +0.000 A 
ATOM     23  C   UNL     1      48.689   7.787  17.712  0.00  0.00    +0.000 A 
ATOM     24  S   UNL     1      48.903   6.995  19.221  0.00  0.00    +0.000 S 
ATOM     25  C   UNL     1      48.688   5.459  18.510  0.00  0.00    +0.000 A 
ATOM     26  N   UNL     1      48.890   4.300  19.191  0.00  0.00    +0.000 NA
ATOM     27  C   UNL     1      48.630   3.232  18.506  0.00  0.00    +0.000 A 
ATOM     28  N   UNL     1      48.135   3.218  17.224  0.00  0.00    +0.000 N 
ATOM     29  C   UNL     1      47.896   4.364  16.504  0.00  0.00    +0.000 A 
ATOM     30  O   UNL     1      47.367   4.340  15.400  0.00  0.00    +0.000 OA
ATOM     31  C   UNL     1      48.307   5.570  17.190  0.00  0.00    +0.000 A 
ATOM     32  H   UNL     1      47.861   2.354  16.780  0.00  0.00    +0.000 HD
ENDBRANCH  19  22
ENDBRANCH   1  20
TORSDOF 7
ENDMDL
MODEL 7
REMARK VINA RESULT:    -7.276      3.481      8.257
REMARK INTER + INTRA:         -11.307
REMARK INTER:                 -10.313
REMARK INTRA:                  -0.994
REMARK UNBOUND:                -1.265
REMARK  Name = 
REMARK  7 active torsions:
REMARK  status: ('A' for Active; 'I' for Inactive)
REMARK    1  A    between atoms: C_2  and  C_20
REMARK    2  A    between atoms: N_3  and  C_4
REMARK    3  A    between atoms: C_4  and  C_5
REMARK    4  A    between atoms: C_8  and  C_9
REMARK    5  A    between atoms: C_9  and  C_10
REMARK    6  A    between atoms: C_10  and  O_11
REMARK    7  A    between atoms: C_10  and  C_12
REMARK                            x       y       z     vdW  Elec       q    Type
REMARK                         _______ _______ _______ _____ _____    ______ ____
ROOT
ATOM      1  C   UNL     1      47.466   6.548  12.933  0.00  0.00    +0.000 C 
ENDROOT
BRANCH   1   2
ATOM      2  C   UNL     1      47.808   5.829  14.223  0.00  0.00    +0.000 A 
ATOM      3  N   UNL     1      47.126   4.707  14.524  0.00  0.00    +0.000 NA
ATOM      4  C   UNL     1      47.359   4.166  15.737  0.00  0.00    +0.000 A 
ATOM      5  C   UNL     1      48.234   4.693  16.662  0.00  0.00    +0.000 A 
ATOM      6  C   UNL     1      48.872   5.849  16.256  0.00  0.00    +0.000 A 
ATOM      7  N   UNL     1      48.658   6.451  15.069  0.00  0.00    +0.000 NA
BRANCH   5   8
ATOM      8  C   UNL     1      48.527   4.034  17.980  0.00  0.00    +0.000 C 
BRANCH   8   9
ATOM      9  C   UNL     1      49.949   4.358  18.481  0.00  0.00    +0.000 C 
BRANCH   9  10
ATOM     10  C   UNL     1      51.023   3.354  18.101  0.00  0.00    +0.000 A 
ATOM     11  C   UNL     1      52.360   3.630  18.439  0.00  0.00    +0.000 A 
ATOM     12  C   UNL     1      53.374   2.704  18.190  0.00  0.00    +0.000 A 
ATOM     13  C   UNL     1      53.068   1.479  17.601  0.00  0.00    +0.000 A 
ATOM     14  C   UNL     1      51.748   1.187  17.263  0.00  0.00    +0.000 A 
ATOM     15  C   UNL     1      50.732   2.114  17.512  0.00  0.00    +0.000 A 
ENDBRANCH   9  10
BRANCH   9  16
ATOM     16  O   UNL     1      49.920   4.449  19.906  0.00  0.00    +0.000 OA
ATOM     17  H   UNL     1      49.817   5.387  20.142  0.00  0.00    +0.000 HD
ENDBRANCH   9  16
ENDBRANCH   8   9
ENDBRANCH   5   8
ENDBRANCH   1   2
BRANCH   1  20
ATOM     18  O   UNL     1      45.067   7.280  11.509  0.00  0.00    +0.000 OA
ATOM     19  C   UNL     1      45.466   6.121  11.523  0.00  0.00    +0.000 C 
ATOM     20  N   UNL     1      46.633   5.706  12.105  0.00  0.00    +0.000 N 
ATOM     21  H   UNL     1      46.757   4.715  12.275  0.00  0.00    +0.000 HD
BRANCH  19  22
ATOM     22  C   UNL     1      44.657   4.980  11.118  0.00  0.00    +0.000 A 
ATOM     23  C   UNL     1      43.622   4.487  11.884  0.00  0.00    +0.000 A 
ATOM     24  S   UNL     1      43.249   2.861  11.473  0.00  0.00    +0.000 S 
ATOM     25  C   UNL     1      44.372   2.869  10.188  0.00  0.00    +0.000 A 
ATOM     26  N   UNL     1      44.692   1.750   9.486  0.00  0.00    +0.000 NA
ATOM     27  C   UNL     1      45.524   1.954   8.516  0.00  0.00    +0.000 A 
ATOM     28  N   UNL     1      46.021   3.181   8.148  0.00  0.00    +0.000 N 
ATOM     29  C   UNL     1      45.711   4.343   8.815  0.00  0.00    +0.000 A 
ATOM     30  O   UNL     1      46.085   5.439   8.420  0.00  0.00    +0.000 OA
ATOM     31  C   UNL     1      44.893   4.129   9.990  0.00  0.00    +0.000 A 
ATOM     32  H   UNL     1      46.590   3.287   7.321  0.00  0.00    +0.000 HD
ENDBRANCH  19  22
ENDBRANCH   1  20
TORSDOF 7
ENDMDL
MODEL 8
REMARK VINA RESULT:    -7.224      2.481      3.346
REMARK INTER + INTRA:         -11.235
REMARK INTER:                 -10.722
REMARK INTRA:                  -0.513
REMARK UNBOUND:                -1.265
REMARK  Name = 
REMARK  7 active torsions:
REMARK  status: ('A' for Active; 'I' for Inactive)
REMARK    1  A    between atoms: C_2  and  C_20
REMARK    2  A    between atoms: N_3  and  C_4
REMARK    3  A    between atoms: C_4  and  C_5
REMARK    4  A    between atoms: C_8  and  C_9
REMARK    5  A    between atoms: C_9  and  C_10
REMARK    6  A    between atoms: C_10  and  O_11
REMARK    7  A    between atoms: C_10  and  C_12
REMARK                            x       y       z     vdW  Elec       q    Type
REMARK                         _______ _______ _______ _____ _____    ______ ____
ROOT
ATOM      1  C   UNL     1      48.102   6.598  14.045  0.00  0.00    +0.000 C 
ENDROOT
BRANCH   1   2
ATOM      2  C   UNL     1      46.952   5.755  13.531  0.00  0.00    +0.000 A 
ATOM      3  N   UNL     1      47.123   4.420  13.465  0.00  0.00    +0.000 NA
ATOM      4  C   UNL     1      46.133   3.714  12.881  0.00  0.00    +0.000 A 
ATOM      5  C   UNL     1      44.989   4.275  12.357  0.00  0.00    +0.000 A 
ATOM      6  C   UNL     1      44.920   5.650  12.468  0.00  0.00    +0.000 A 
ATOM      7  N   UNL     1      45.889   6.411  13.015  0.00  0.00    +0.000 NA
BRANCH   5   8
ATOM      8  C   UNL     1      43.872   3.459  11.771  0.00  0.00    +0.000 C 
BRANCH   8   9
ATOM      9  C   UNL     1      43.641   3.788  10.283  0.00  0.00    +0.000 C 
BRANCH   9  10
ATOM     10  C   UNL     1      44.772   3.411   9.343  0.00  0.00    +0.000 A 
ATOM     11  C   UNL     1      45.088   2.051   9.172  0.00  0.00    +0.000 A 
ATOM     12  C   UNL     1      46.060   1.645   8.256  0.00  0.00    +0.000 A 
ATOM     13  C   UNL     1      46.733   2.595   7.490  0.00  0.00    +0.000 A 
ATOM     14  C   UNL     1      46.430   3.946   7.644  0.00  0.00    +0.000 A 
ATOM     15  C   UNL     1      45.457   4.353   8.560  0.00  0.00    +0.000 A 
ENDBRANCH   9  10
BRANCH   9  16
ATOM     16  O   UNL     1      43.417   5.193  10.157  0.00  0.00    +0.000 OA
ATOM     17  H   UNL     1      44.059   5.541   9.514  0.00  0.00    +0.000 HD
ENDBRANCH   9  16
ENDBRANCH   8   9
ENDBRANCH   5   8
ENDBRANCH   1   2
BRANCH   1  20
ATOM     18  O   UNL     1      50.534   6.678  15.594  0.00  0.00    +0.000 OA
ATOM     19  C   UNL     1      49.462   6.389  16.113  0.00  0.00    +0.000 C 
ATOM     20  N   UNL     1      48.254   6.407  15.470  0.00  0.00    +0.000 N 
ATOM     21  H   UNL     1      47.473   5.929  15.904  0.00  0.00    +0.000 HD
BRANCH  19  22
ATOM     22  C   UNL     1      49.337   5.776  17.428  0.00  0.00    +0.000 A 
ATOM     23  C   UNL     1      49.427   4.414  17.629  0.00  0.00    +0.000 A 
ATOM     24  S   UNL     1      48.686   3.942  19.106  0.00  0.00    +0.000 S 
ATOM     25  C   UNL     1      48.373   5.564  19.533  0.00  0.00    +0.000 A 
ATOM     26  N   UNL     1      47.623   5.908  20.613  0.00  0.00    +0.000 NA
ATOM     27  C   UNL     1      47.534   7.184  20.811  0.00  0.00    +0.000 A 
ATOM     28  N   UNL     1      48.171   8.145  20.062  0.00  0.00    +0.000 N 
ATOM     29  C   UNL     1      48.955   7.845  18.974  0.00  0.00    +0.000 A 
ATOM     30  O   UNL     1      49.591   8.702  18.375  0.00  0.00    +0.000 OA
ATOM     31  C   UNL     1      48.963   6.436  18.643  0.00  0.00    +0.000 A 
ATOM     32  H   UNL     1      48.139   9.118  20.327  0.00  0.00    +0.000 HD
ENDBRANCH  19  22
ENDBRANCH   1  20
TORSDOF 7
ENDMDL
MODEL 9
REMARK VINA RESULT:    -6.918      2.920      4.169
REMARK INTER + INTRA:         -10.812
REMARK INTER:                  -9.804
REMARK INTRA:                  -1.009
REMARK UNBOUND:                -1.265
REMARK  Name = 
REMARK  7 active torsions:
REMARK  status: ('A' for Active; 'I' for Inactive)
REMARK    1  A    between atoms: C_2  and  C_20
REMARK    2  A    between atoms: N_3  and  C_4
REMARK    3  A    between atoms: C_4  and  C_5
REMARK    4  A    between atoms: C_8  and  C_9
REMARK    5  A    between atoms: C_9  and  C_10
REMARK    6  A    between atoms: C_10  and  O_11
REMARK    7  A    between atoms: C_10  and  C_12
REMARK                            x       y       z     vdW  Elec       q    Type
REMARK                         _______ _______ _______ _____ _____    ______ ____
ROOT
ATOM      1  C   UNL     1      47.804   4.301  16.270  0.00  0.00    +0.000 C 
ENDROOT
BRANCH   1   2
ATOM      2  C   UNL     1      47.285   4.686  14.898  0.00  0.00    +0.000 A 
ATOM      3  N   UNL     1      47.786   5.794  14.318  0.00  0.00    +0.000 NA
ATOM      4  C   UNL     1      47.210   6.182  13.162  0.00  0.00    +0.000 A 
ATOM      5  C   UNL     1      46.160   5.521  12.563  0.00  0.00    +0.000 A 
ATOM      6  C   UNL     1      45.717   4.405  13.246  0.00  0.00    +0.000 A 
ATOM      7  N   UNL     1      46.233   3.986  14.419  0.00  0.00    +0.000 NA
BRANCH   5   8
ATOM      8  C   UNL     1      45.580   5.936  11.240  0.00  0.00    +0.000 C 
BRANCH   8   9
ATOM      9  C   UNL     1      44.572   4.898  10.705  0.00  0.00    +0.000 C 
BRANCH   9  10
ATOM     10  C   UNL     1      45.091   3.984   9.609  0.00  0.00    +0.000 A 
ATOM     11  C   UNL     1      45.768   4.551   8.515  0.00  0.00    +0.000 A 
ATOM     12  C   UNL     1      46.340   3.750   7.525  0.00  0.00    +0.000 A 
ATOM     13  C   UNL     1      46.248   2.362   7.614  0.00  0.00    +0.000 A 
ATOM     14  C   UNL     1      45.584   1.783   8.694  0.00  0.00    +0.000 A 
ATOM     15  C   UNL     1      45.012   2.585   9.685  0.00  0.00    +0.000 A 
ENDBRANCH   9  10
BRANCH   9  16
ATOM     16  O   UNL     1      43.434   5.592  10.193  0.00  0.00    +0.000 OA
ATOM     17  H   UNL     1      43.724   6.120   9.429  0.00  0.00    +0.000 HD
ENDBRANCH   9  16
ENDBRANCH   8   9
ENDBRANCH   5   8
ENDBRANCH   1   2
BRANCH   1  20
ATOM     18  O   UNL     1      47.228   5.683  18.735  0.00  0.00    +0.000 OA
ATOM     19  C   UNL     1      48.132   6.056  17.997  0.00  0.00    +0.000 C 
ATOM     20  N   UNL     1      48.522   5.412  16.854  0.00  0.00    +0.000 N 
ATOM     21  H   UNL     1      49.103   5.916  16.194  0.00  0.00    +0.000 HD
BRANCH  19  22
ATOM     22  C   UNL     1      48.782   7.355  18.103  0.00  0.00    +0.000 A 
ATOM     23  C   UNL     1      48.236   8.510  17.584  0.00  0.00    +0.000 A 
ATOM     24  S   UNL     1      49.430   9.721  17.340  0.00  0.00    +0.000 S 
ATOM     25  C   UNL     1      50.639   8.752  18.055  0.00  0.00    +0.000 A 
ATOM     26  N   UNL     1      51.954   9.097  18.052  0.00  0.00    +0.000 NA
ATOM     27  C   UNL     1      52.720   8.267  18.683  0.00  0.00    +0.000 A 
ATOM     28  N   UNL     1      52.287   7.156  19.364  0.00  0.00    +0.000 N 
ATOM     29  C   UNL     1      50.966   6.778  19.413  0.00  0.00    +0.000 A 
ATOM     30  O   UNL     1      50.583   5.840  20.101  0.00  0.00    +0.000 OA
ATOM     31  C   UNL     1      50.102   7.607  18.601  0.00  0.00    +0.000 A 
ATOM     32  H   UNL     1      52.924   6.602  19.919  0.00  0.00    +0.000 HD
ENDBRANCH  19  22
ENDBRANCH   1  20
TORSDOF 7
ENDMDL
