MODEL 1
REMARK VINA RESULT:    -9.001      0.000      0.000
REMARK INTER + INTRA:         -12.548
REMARK INTER:                 -11.895
REMARK INTRA:                  -0.653
REMARK UNBOUND:                -0.653
REMARK  Name = 
REMARK  6 active torsions:
REMARK  status: ('A' for Active; 'I' for Inactive)
REMARK    1  A    between atoms: C_2  and  C_19
REMARK    2  A    between atoms: N_3  and  C_4
REMARK    3  A    between atoms: C_4  and  C_5
REMARK    4  A    between atoms: C_8  and  C_9
REMARK    5  A    between atoms: C_9  and  O_10
REMARK    6  A    between atoms: C_9  and  C_11
REMARK                            x       y       z     vdW  Elec       q    Type
REMARK                         _______ _______ _______ _____ _____    ______ ____
ROOT
ATOM      1  C   UNL     1      45.603   7.592  12.500  0.00  0.00    +0.000 C 
ENDROOT
BRANCH   1   2
ATOM      2  C   UNL     1      45.220   6.435  11.625  0.00  0.00    +0.000 A 
ATOM      3  C   UNL     1      45.938   6.154  10.470  0.00  0.00    +0.000 A 
ATOM      4  N   UNL     1      45.668   5.091   9.677  0.00  0.00    +0.000 NA
ATOM      5  C   UNL     1      44.617   4.316  10.059  0.00  0.00    +0.000 A 
ATOM      6  C   UNL     1      43.866   4.633  11.188  0.00  0.00    +0.000 A 
ATOM      7  N   UNL     1      44.148   5.683  11.995  0.00  0.00    +0.000 NA
BRANCH   5   8
ATOM      8  C   UNL     1      44.366   3.025   9.301  0.00  0.00    +0.000 C 
BRANCH   8   9
ATOM      9  C   UNL     1      45.414   2.668   8.250  0.00  0.00    +0.000 A 
ATOM     10  C   UNL     1      46.080   1.431   8.351  0.00  0.00    +0.000 A 
ATOM     11  C   UNL     1      47.035   1.050   7.407  0.00  0.00    +0.000 A 
ATOM     12  C   UNL     1      47.341   1.896   6.345  0.00  0.00    +0.000 A 
ATOM     13  C   UNL     1      46.697   3.123   6.227  0.00  0.00    +0.000 A 
ATOM     14  C   UNL     1      45.743   3.507   7.172  0.00  0.00    +0.000 A 
ENDBRANCH   8   9
BRANCH   8  15
ATOM     15  O   UNL     1      44.217   1.943  10.232  0.00  0.00    +0.000 OA
ATOM     16  H   UNL     1      45.034   1.418  10.202  0.00  0.00    +0.000 HD
ENDBRANCH   8  15
ENDBRANCH   5   8
ENDBRANCH   1   2
BRANCH   1  19
ATOM     17  O   UNL     1      48.410   7.439  12.639  0.00  0.00    +0.000 OA
ATOM     18  C   UNL     1      47.746   7.088  13.611  0.00  0.00    +0.000 C 
ATOM     19  N   UNL     1      46.383   7.176  13.636  0.00  0.00    +0.000 N 
ATOM     20  H   UNL     1      45.863   6.877  14.450  0.00  0.00    +0.000 HD
BRANCH  18  21
ATOM     21  C   UNL     1      48.368   6.604  14.843  0.00  0.00    +0.000 A 
ATOM     22  C   UNL     1      49.419   7.297  15.422  0.00  0.00    +0.000 A 
ATOM     23  S   UNL     1      49.965   6.599  16.882  0.00  0.00    +0.000 S 
ATOM     24  C   UNL     1      48.841   5.326  16.762  0.00  0.00    +0.000 A 
ATOM     25  N   UNL     1      48.772   4.355  17.712  0.00  0.00    +0.000 NA
ATOM     26  C   UNL     1      47.893   3.438  17.477  0.00  0.00    +0.000 A 
ATOM     27  N   UNL     1      47.081   3.398  16.373  0.00  0.00    +0.000 N 
ATOM     28  C   UNL     1      47.100   4.365  15.398  0.00  0.00    +0.000 A 
ATOM     29  O   UNL     1      46.330   4.316  14.445  0.00  0.00    +0.000 OA
ATOM     30  C   UNL     1      48.065   5.427  15.622  0.00  0.00    +0.000 A 
ATOM     31  H   UNL     1      46.411   2.654  16.247  0.00  0.00    +0.000 HD
ENDBRANCH  18  21
ENDBRANCH   1  19
TORSDOF 6
ENDMDL
MODEL 2
REMARK VINA RESULT:    -8.822      0.676      0.997
REMARK INTER + INTRA:         -12.312
REMARK INTER:                 -11.683
REMARK INTRA:                  -0.628
REMARK UNBOUND:                -0.653
REMARK  Name = 
REMARK  6 active torsions:
REMARK  status: ('A' for Active; 'I' for Inactive)
REMARK    1  A    between atoms: C_2  and  C_19
REMARK    2  A    between atoms: N_3  and  C_4
REMARK    3  A    between atoms: C_4  and  C_5
REMARK    4  A    between atoms: C_8  and  C_9
REMARK    5  A    between atoms: C_9  and  O_10
REMARK    6  A    between atoms: C_9  and  C_11
REMARK                            x       y       z     vdW  Elec       q    Type
REMARK                         _______ _______ _______ _____ _____    ______ ____
ROOT
ATOM      1  C   UNL     1      46.049   7.530  12.738  0.00  0.00    +0.000 C 
ENDROOT
BRANCH   1   2
ATOM      2  C   UNL     1      45.700   6.369  11.854  0.00  0.00    +0.000 A 
ATOM      3  C   UNL     1      44.929   5.320  12.336  0.00  0.00    +0.000 A 
ATOM      4  N   UNL     1      44.541   4.277  11.565  0.00  0.00    +0.000 NA
ATOM      5  C   UNL     1      44.982   4.294  10.278  0.00  0.00    +0.000 A 
ATOM      6  C   UNL     1      45.801   5.320   9.814  0.00  0.00    +0.000 A 
ATOM      7  N   UNL     1      46.172   6.375  10.578  0.00  0.00    +0.000 NA
BRANCH   5   8
ATOM      8  C   UNL     1      44.452   3.239   9.325  0.00  0.00    +0.000 C 
BRANCH   8   9
ATOM      9  C   UNL     1      45.445   2.744   8.276  0.00  0.00    +0.000 A 
ATOM     10  C   UNL     1      46.008   1.463   8.428  0.00  0.00    +0.000 A 
ATOM     11  C   UNL     1      46.908   0.958   7.489  0.00  0.00    +0.000 A 
ATOM     12  C   UNL     1      47.261   1.722   6.381  0.00  0.00    +0.000 A 
ATOM     13  C   UNL     1      46.718   2.992   6.211  0.00  0.00    +0.000 A 
ATOM     14  C   UNL     1      45.819   3.499   7.152  0.00  0.00    +0.000 A 
ENDBRANCH   8   9
BRANCH   8  15
ATOM     15  O   UNL     1      43.938   2.128  10.076  0.00  0.00    +0.000 OA
ATOM     16  H   UNL     1      43.742   2.447  10.972  0.00  0.00    +0.000 HD
ENDBRANCH   8  15
ENDBRANCH   5   8
ENDBRANCH   1   2
BRANCH   1  19
ATOM     17  O   UNL     1      48.781   6.863  12.855  0.00  0.00    +0.000 OA
ATOM     18  C   UNL     1      48.101   6.771  13.874  0.00  0.00    +0.000 C 
ATOM     19  N   UNL     1      46.780   7.120  13.907  0.00  0.00    +0.000 N 
ATOM     20  H   UNL     1      46.246   7.030  14.761  0.00  0.00    +0.000 HD
BRANCH  18  21
ATOM     21  C   UNL     1      48.669   6.335  15.150  0.00  0.00    +0.000 A 
ATOM     22  C   UNL     1      49.737   7.016  15.715  0.00  0.00    +0.000 A 
ATOM     23  S   UNL     1      50.213   6.385  17.228  0.00  0.00    +0.000 S 
ATOM     24  C   UNL     1      49.034   5.159  17.155  0.00  0.00    +0.000 A 
ATOM     25  N   UNL     1      48.897   4.252  18.159  0.00  0.00    +0.000 NA
ATOM     26  C   UNL     1      47.983   3.363  17.956  0.00  0.00    +0.000 A 
ATOM     27  N   UNL     1      47.197   3.291  16.835  0.00  0.00    +0.000 N 
ATOM     28  C   UNL     1      47.285   4.194  15.804  0.00  0.00    +0.000 A 
ATOM     29  O   UNL     1      46.538   4.122  14.835  0.00  0.00    +0.000 OA
ATOM     30  C   UNL     1      48.292   5.224  15.990  0.00  0.00    +0.000 A 
ATOM     31  H   UNL     1      46.497   2.572  16.736  0.00  0.00    +0.000 HD
ENDBRANCH  18  21
ENDBRANCH   1  19
TORSDOF 6
ENDMDL
MODEL 3
REMARK VINA RESULT:    -8.446      2.007      2.501
REMARK INTER + INTRA:         -11.816
REMARK INTER:                 -11.241
REMARK INTRA:                  -0.574
REMARK UNBOUND:                -0.653
REMARK  Name = 
REMARK  6 active torsions:
REMARK  status: ('A' for Active; 'I' for Inactive)
REMARK    1  A    between atoms: C_2  and  C_19
REMARK    2  A    between atoms: N_3  and  C_4
REMARK    3  A    between atoms: C_4  and  C_5
REMARK    4  A    between atoms: C_8  and  C_9
REMARK    5  A    between atoms: C_9  and  O_10
REMARK    6  A    between atoms: C_9  and  C_11
REMARK                            x       y       z     vdW  Elec       q    Type
REMARK                         _______ _______ _______ _____ _____    ______ ____
ROOT
ATOM      1  C   UNL     1      47.021   6.584  13.284  0.00  0.00    +0.000 C 
ENDROOT
BRANCH   1   2
ATOM      2  C   UNL     1      46.275   5.702  12.328  0.00  0.00    +0.000 A 
ATOM      3  C   UNL     1      46.007   6.129  11.033  0.00  0.00    +0.000 A 
ATOM      4  N   UNL     1      45.387   5.351  10.116  0.00  0.00    +0.000 NA
ATOM      5  C   UNL     1      45.003   4.118  10.544  0.00  0.00    +0.000 A 
ATOM      6  C   UNL     1      45.224   3.715  11.859  0.00  0.00    +0.000 A 
ATOM      7  N   UNL     1      45.864   4.483  12.772  0.00  0.00    +0.000 NA
BRANCH   5   8
ATOM      8  C   UNL     1      44.448   3.145   9.521  0.00  0.00    +0.000 C 
BRANCH   8   9
ATOM      9  C   UNL     1      45.421   2.722   8.423  0.00  0.00    +0.000 A 
ATOM     10  C   UNL     1      45.973   1.428   8.469  0.00  0.00    +0.000 A 
ATOM     11  C   UNL     1      46.856   0.988   7.482  0.00  0.00    +0.000 A 
ATOM     12  C   UNL     1      47.201   1.831   6.429  0.00  0.00    +0.000 A 
ATOM     13  C   UNL     1      46.668   3.114   6.364  0.00  0.00    +0.000 A 
ATOM     14  C   UNL     1      45.787   3.557   7.354  0.00  0.00    +0.000 A 
ENDBRANCH   8   9
BRANCH   8  15
ATOM     15  O   UNL     1      43.932   1.985  10.191  0.00  0.00    +0.000 OA
ATOM     16  H   UNL     1      43.043   1.815   9.837  0.00  0.00    +0.000 HD
ENDBRANCH   8  15
ENDBRANCH   5   8
ENDBRANCH   1   2
BRANCH   1  19
ATOM     17  O   UNL     1      49.343   6.552  14.875  0.00  0.00    +0.000 OA
ATOM     18  C   UNL     1      48.339   5.968  15.275  0.00  0.00    +0.000 C 
ATOM     19  N   UNL     1      47.162   5.978  14.582  0.00  0.00    +0.000 N 
ATOM     20  H   UNL     1      46.352   5.486  14.937  0.00  0.00    +0.000 HD
BRANCH  18  21
ATOM     21  C   UNL     1      48.308   5.266  16.558  0.00  0.00    +0.000 A 
ATOM     22  C   UNL     1      48.223   3.883  16.602  0.00  0.00    +0.000 A 
ATOM     23  S   UNL     1      48.255   3.256  18.191  0.00  0.00    +0.000 S 
ATOM     24  C   UNL     1      48.342   4.816  18.867  0.00  0.00    +0.000 A 
ATOM     25  N   UNL     1      48.401   4.998  20.214  0.00  0.00    +0.000 NA
ATOM     26  C   UNL     1      48.434   6.234  20.587  0.00  0.00    +0.000 A 
ATOM     27  N   UNL     1      48.405   7.308  19.735  0.00  0.00    +0.000 N 
ATOM     28  C   UNL     1      48.365   7.175  18.369  0.00  0.00    +0.000 A 
ATOM     29  O   UNL     1      48.380   8.159  17.638  0.00  0.00    +0.000 OA
ATOM     30  C   UNL     1      48.338   5.802  17.898  0.00  0.00    +0.000 A 
ATOM     31  H   UNL     1      48.435   8.253  20.088  0.00  0.00    +0.000 HD
ENDBRANCH  18  21
ENDBRANCH   1  19
TORSDOF 6
ENDMDL
MODEL 4
REMARK VINA RESULT:    -8.161      2.148      3.449
REMARK INTER + INTRA:         -11.438
REMARK INTER:                 -10.911
REMARK INTRA:                  -0.527
REMARK UNBOUND:                -0.653
REMARK  Name = 
REMARK  6 active torsions:
REMARK  status: ('A' for Active; 'I' for Inactive)
REMARK    1  A    between atoms: C_2  and  C_19
REMARK    2  A    between atoms: N_3  and  C_4
REMARK    3  A    between atoms: C_4  and  C_5
REMARK    4  A    between atoms: C_8  and  C_9
REMARK    5  A    between atoms: C_9  and  O_10
REMARK    6  A    between atoms: C_9  and  C_11
REMARK                            x       y       z     vdW  Elec       q    Type
REMARK                         _______ _______ _______ _____ _____    ______ ____
ROOT
ATOM      1  C   UNL     1      46.553   4.370  14.681  0.00  0.00    +0.000 C 
ENDROOT
BRANCH   1   2
ATOM      2  C   UNL     1      46.077   4.444  13.260  0.00  0.00    +0.000 A 
ATOM      3  C   UNL     1      46.366   5.551  12.474  0.00  0.00    +0.000 A 
ATOM      4  N   UNL     1      46.006   5.643  11.172  0.00  0.00    +0.000 NA
ATOM      5  C   UNL     1      45.306   4.589  10.673  0.00  0.00    +0.000 A 
ATOM      6  C   UNL     1      44.971   3.504  11.480  0.00  0.00    +0.000 A 
ATOM      7  N   UNL     1      45.348   3.401  12.777  0.00  0.00    +0.000 NA
BRANCH   5   8
ATOM      8  C   UNL     1      45.015   4.562   9.184  0.00  0.00    +0.000 C 
BRANCH   8   9
ATOM      9  C   UNL     1      45.731   3.468   8.395  0.00  0.00    +0.000 A 
ATOM     10  C   UNL     1      46.561   3.842   7.321  0.00  0.00    +0.000 A 
ATOM     11  C   UNL     1      47.249   2.882   6.578  0.00  0.00    +0.000 A 
ATOM     12  C   UNL     1      47.123   1.533   6.894  0.00  0.00    +0.000 A 
ATOM     13  C   UNL     1      46.307   1.141   7.951  0.00  0.00    +0.000 A 
ATOM     14  C   UNL     1      45.615   2.100   8.694  0.00  0.00    +0.000 A 
ENDBRANCH   8   9
BRANCH   8  15
ATOM     15  O   UNL     1      43.598   4.471   8.973  0.00  0.00    +0.000 OA
ATOM     16  H   UNL     1      43.458   4.028   8.120  0.00  0.00    +0.000 HD
ENDBRANCH   8  15
ENDBRANCH   5   8
ENDBRANCH   1   2
BRANCH   1  19
ATOM     17  O   UNL     1      48.696   4.430  16.505  0.00  0.00    +0.000 OA
ATOM     18  C   UNL     1      48.331   5.479  15.980  0.00  0.00    +0.000 C 
ATOM     19  N   UNL     1      47.330   5.523  15.051  0.00  0.00    +0.000 N 
ATOM     20  H   UNL     1      47.050   6.403  14.638  0.00  0.00    +0.000 HD
BRANCH  18  21
ATOM     21  C   UNL     1      48.982   6.758  16.264  0.00  0.00    +0.000 A 
ATOM     22  C   UNL     1      49.015   7.261  17.556  0.00  0.00    +0.000 A 
ATOM     23  S   UNL     1      49.868   8.734  17.684  0.00  0.00    +0.000 S 
ATOM     24  C   UNL     1      50.182   8.766  16.011  0.00  0.00    +0.000 A 
ATOM     25  N   UNL     1      50.890   9.781  15.446  0.00  0.00    +0.000 NA
ATOM     26  C   UNL     1      51.026   9.690  14.165  0.00  0.00    +0.000 A 
ATOM     27  N   UNL     1      50.514   8.679  13.394  0.00  0.00    +0.000 N 
ATOM     28  C   UNL     1      49.811   7.623  13.921  0.00  0.00    +0.000 A 
ATOM     29  O   UNL     1      49.402   6.716  13.204  0.00  0.00    +0.000 OA
ATOM     30  C   UNL     1      49.639   7.673  15.362  0.00  0.00    +0.000 A 
ATOM     31  H   UNL     1      50.657   8.662  12.395  0.00  0.00    +0.000 HD
ENDBRANCH  18  21
ENDBRANCH   1  19
TORSDOF 6
ENDMDL
MODEL 5
REMARK VINA RESULT:    -7.903      2.550      3.394
REMARK INTER + INTRA:         -11.098
REMARK INTER:                 -10.353
REMARK INTRA:                  -0.744
REMARK UNBOUND:                -0.653
REMARK  Name = 
REMARK  6 active torsions:
REMARK  status: ('A' for Active; 'I' for Inactive)
REMARK    1  A    between atoms: C_2  and  C_19
REMARK    2  A    between atoms: N_3  and  C_4
REMARK    3  A    between atoms: C_4  and  C_5
REMARK    4  A    between atoms: C_8  and  C_9
REMARK    5  A    between atoms: C_9  and  O_10
REMARK    6  A    between atoms: C_9  and  C_11
REMARK                            x       y       z     vdW  Elec       q    Type
REMARK                         _______ _______ _______ _____ _____    ______ ____
ROOT
ATOM      1  C   UNL     1      46.056   5.869  13.590  0.00  0.00    +0.000 C 
ENDROOT
BRANCH   1   2
ATOM      2  C   UNL     1      45.570   5.032  12.445  0.00  0.00    +0.000 A 
ATOM      3  C   UNL     1      45.377   5.593  11.189  0.00  0.00    +0.000 A 
ATOM      4  N   UNL     1      44.993   4.870  10.111  0.00  0.00    +0.000 NA
ATOM      5  C   UNL     1      44.770   3.547  10.332  0.00  0.00    +0.000 A 
ATOM      6  C   UNL     1      44.912   2.998  11.604  0.00  0.00    +0.000 A 
ATOM      7  N   UNL     1      45.317   3.715  12.680  0.00  0.00    +0.000 NA
BRANCH   5   8
ATOM      8  C   UNL     1      44.493   2.658   9.134  0.00  0.00    +0.000 C 
BRANCH   8   9
ATOM      9  C   UNL     1      45.630   2.550   8.120  0.00  0.00    +0.000 A 
ATOM     10  C   UNL     1      46.368   1.353   8.056  0.00  0.00    +0.000 A 
ATOM     11  C   UNL     1      47.407   1.198   7.137  0.00  0.00    +0.000 A 
ATOM     12  C   UNL     1      47.726   2.234   6.265  0.00  0.00    +0.000 A 
ATOM     13  C   UNL     1      47.011   3.427   6.312  0.00  0.00    +0.000 A 
ATOM     14  C   UNL     1      45.973   3.584   7.234  0.00  0.00    +0.000 A 
ENDBRANCH   8   9
BRANCH   8  15
ATOM     15  O   UNL     1      44.113   1.349   9.585  0.00  0.00    +0.000 OA
ATOM     16  H   UNL     1      43.853   0.835   8.802  0.00  0.00    +0.000 HD
ENDBRANCH   8  15
ENDBRANCH   5   8
ENDBRANCH   1   2
BRANCH   1  19
ATOM     17  O   UNL     1      46.483   8.631  13.256  0.00  0.00    +0.000 OA
ATOM     18  C   UNL     1      47.427   7.861  13.106  0.00  0.00    +0.000 C 
ATOM     19  N   UNL     1      47.310   6.513  13.296  0.00  0.00    +0.000 N 
ATOM     20  H   UNL     1      48.106   5.903  13.162  0.00  0.00    +0.000 HD
BRANCH  18  21
ATOM     21  C   UNL     1      48.771   8.333  12.770  0.00  0.00    +0.000 A 
ATOM     22  C   UNL     1      48.990   9.074  11.619  0.00  0.00    +0.000 A 
ATOM     23  S   UNL     1      50.612   9.576  11.439  0.00  0.00    +0.000 S 
ATOM     24  C   UNL     1      51.078   8.782  12.871  0.00  0.00    +0.000 A 
ATOM     25  N   UNL     1      52.365   8.817  13.309  0.00  0.00    +0.000 NA
ATOM     26  C   UNL     1      52.580   8.148  14.393  0.00  0.00    +0.000 A 
ATOM     27  N   UNL     1      51.627   7.439  15.076  0.00  0.00    +0.000 N 
ATOM     28  C   UNL     1      50.311   7.390  14.684  0.00  0.00    +0.000 A 
ATOM     29  O   UNL     1      49.478   6.778  15.344  0.00  0.00    +0.000 OA
ATOM     30  C   UNL     1      50.015   8.138  13.475  0.00  0.00    +0.000 A 
ATOM     31  H   UNL     1      51.857   6.937  15.920  0.00  0.00    +0.000 HD
ENDBRANCH  18  21
ENDBRANCH   1  19
TORSDOF 6
ENDMDL
MODEL 6
REMARK VINA RESULT:    -7.540      2.868      3.636
REMARK INTER + INTRA:         -10.617
REMARK INTER:                  -9.918
REMARK INTRA:                  -0.699
REMARK UNBOUND:                -0.653
REMARK  Name = 
REMARK  6 active torsions:
REMARK  status: ('A' for Active; 'I' for Inactive)
REMARK    1  A    between atoms: C_2  and  C_19
REMARK    2  A    between atoms: N_3  and  C_4
REMARK    3  A    between atoms: C_4  and  C_5
REMARK    4  A    between atoms: C_8  and  C_9
REMARK    5  A    between atoms: C_9  and  O_10
REMARK    6  A    between atoms: C_9  and  C_11
REMARK                            x       y       z     vdW  Elec       q    Type
REMARK                         _______ _______ _______ _____ _____    ______ ____
ROOT
ATOM      1  C   UNL     1      47.764   4.442  15.275  0.00  0.00    +0.000 C 
ENDROOT
BRANCH   1   2
ATOM      2  C   UNL     1      46.822   4.410  14.109  0.00  0.00    +0.000 A 
ATOM      3  C   UNL     1      46.337   5.589  13.558  0.00  0.00    +0.000 A 
ATOM      4  N   UNL     1      45.529   5.616  12.472  0.00  0.00    +0.000 NA
ATOM      5  C   UNL     1      45.183   4.405  11.958  0.00  0.00    +0.000 A 
ATOM      6  C   UNL     1      45.627   3.224  12.547  0.00  0.00    +0.000 A 
ATOM      7  N   UNL     1      46.453   3.194  13.620  0.00  0.00    +0.000 NA
BRANCH   5   8
ATOM      8  C   UNL     1      44.413   4.375  10.652  0.00  0.00    +0.000 C 
BRANCH   8   9
ATOM      9  C   UNL     1      45.127   3.697   9.484  0.00  0.00    +0.000 A 
ATOM     10  C   UNL     1      45.776   4.502   8.528  0.00  0.00    +0.000 A 
ATOM     11  C   UNL     1      46.455   3.931   7.452  0.00  0.00    +0.000 A 
ATOM     12  C   UNL     1      46.501   2.547   7.310  0.00  0.00    +0.000 A 
ATOM     13  C   UNL     1      45.865   1.733   8.243  0.00  0.00    +0.000 A 
ATOM     14  C   UNL     1      45.182   2.303   9.319  0.00  0.00    +0.000 A 
ENDBRANCH   8   9
BRANCH   8  15
ATOM     15  O   UNL     1      43.131   3.765  10.863  0.00  0.00    +0.000 OA
ATOM     16  H   UNL     1      43.158   2.882  10.458  0.00  0.00    +0.000 HD
ENDBRANCH   8  15
ENDBRANCH   5   8
ENDBRANCH   1   2
BRANCH   1  19
ATOM     17  O   UNL     1      49.899   6.201  15.791  0.00  0.00    +0.000 OA
ATOM     18  C   UNL     1      48.788   6.467  16.240  0.00  0.00    +0.000 C 
ATOM     19  N   UNL     1      47.693   5.687  15.994  0.00  0.00    +0.000 N 
ATOM     20  H   UNL     1      46.791   5.931  16.379  0.00  0.00    +0.000 HD
BRANCH  18  21
ATOM     21  C   UNL     1      48.535   7.675  17.025  0.00  0.00    +0.000 A 
ATOM     22  C   UNL     1      48.687   8.930  16.456  0.00  0.00    +0.000 A 
ATOM     23  S   UNL     1      48.290  10.206  17.519  0.00  0.00    +0.000 S 
ATOM     24  C   UNL     1      47.943   9.121  18.785  0.00  0.00    +0.000 A 
ATOM     25  N   UNL     1      47.534   9.567  20.003  0.00  0.00    +0.000 NA
ATOM     26  C   UNL     1      47.335   8.635  20.875  0.00  0.00    +0.000 A 
ATOM     27  N   UNL     1      47.515   7.296  20.643  0.00  0.00    +0.000 N 
ATOM     28  C   UNL     1      47.908   6.797  19.425  0.00  0.00    +0.000 A 
ATOM     29  O   UNL     1      48.020   5.589  19.244  0.00  0.00    +0.000 OA
ATOM     30  C   UNL     1      48.134   7.805  18.405  0.00  0.00    +0.000 A 
ATOM     31  H   UNL     1      47.341   6.614  21.366  0.00  0.00    +0.000 HD
ENDBRANCH  18  21
ENDBRANCH   1  19
TORSDOF 6
ENDMDL
MODEL 7
REMARK VINA RESULT:    -7.116      2.338      3.258
REMARK INTER + INTRA:         -10.058
REMARK INTER:                  -9.328
REMARK INTRA:                  -0.730
REMARK UNBOUND:                -0.653
REMARK  Name = 
REMARK  6 active torsions:
REMARK  status: ('A' for Active; 'I' for Inactive)
REMARK    1  A    between atoms: C_2  and  C_19
REMARK    2  A    between atoms: N_3  and  C_4
REMARK    3  A    between atoms: C_4  and  C_5
REMARK    4  A    between atoms: C_8  and  C_9
REMARK    5  A    between atoms: C_9  and  O_10
REMARK    6  A    between atoms: C_9  and  C_11
REMARK                            x       y       z     vdW  Elec       q    Type
REMARK                         _______ _______ _______ _____ _____    ______ ____
ROOT
ATOM      1  C   UNL     1      47.727   7.695  13.816  0.00  0.00    +0.000 C 
ENDROOT
BRANCH   1   2
ATOM      2  C   UNL     1      46.740   6.927  12.988  0.00  0.00    +0.000 A 
ATOM      3  C   UNL     1      45.859   7.589  12.143  0.00  0.00    +0.000 A 
ATOM      4  N   UNL     1      44.987   6.941  11.336  0.00  0.00    +0.000 NA
ATOM      5  C   UNL     1      44.996   5.583  11.419  0.00  0.00    +0.000 A 
ATOM      6  C   UNL     1      45.844   4.925  12.307  0.00  0.00    +0.000 A 
ATOM      7  N   UNL     1      46.732   5.571  13.101  0.00  0.00    +0.000 NA
BRANCH   5   8
ATOM      8  C   UNL     1      44.157   4.799  10.428  0.00  0.00    +0.000 C 
BRANCH   8   9
ATOM      9  C   UNL     1      44.943   3.939   9.439  0.00  0.00    +0.000 A 
ATOM     10  C   UNL     1      44.885   2.538   9.565  0.00  0.00    +0.000 A 
ATOM     11  C   UNL     1      45.572   1.709   8.678  0.00  0.00    +0.000 A 
ATOM     12  C   UNL     1      46.328   2.262   7.649  0.00  0.00    +0.000 A 
ATOM     13  C   UNL     1      46.400   3.644   7.507  0.00  0.00    +0.000 A 
ATOM     14  C   UNL     1      45.715   4.476   8.395  0.00  0.00    +0.000 A 
ENDBRANCH   8   9
BRANCH   8  15
ATOM     15  O   UNL     1      43.209   3.987  11.136  0.00  0.00    +0.000 OA
ATOM     16  H   UNL     1      42.464   3.817  10.536  0.00  0.00    +0.000 HD
ENDBRANCH   8  15
ENDBRANCH   5   8
ENDBRANCH   1   2
BRANCH   1  19
ATOM     17  O   UNL     1      48.491   8.433  16.423  0.00  0.00    +0.000 OA
ATOM     18  C   UNL     1      48.764   7.306  16.019  0.00  0.00    +0.000 C 
ATOM     19  N   UNL     1      48.387   6.859  14.784  0.00  0.00    +0.000 N 
ATOM     20  H   UNL     1      48.629   5.925  14.479  0.00  0.00    +0.000 HD
BRANCH  18  21
ATOM     21  C   UNL     1      49.465   6.330  16.854  0.00  0.00    +0.000 A 
ATOM     22  C   UNL     1      48.763   5.536  17.749  0.00  0.00    +0.000 A 
ATOM     23  S   UNL     1      49.755   4.426  18.585  0.00  0.00    +0.000 S 
ATOM     24  C   UNL     1      51.156   5.001  17.808  0.00  0.00    +0.000 A 
ATOM     25  N   UNL     1      52.378   4.466  18.072  0.00  0.00    +0.000 NA
ATOM     26  C   UNL     1      53.354   5.019  17.432  0.00  0.00    +0.000 A 
ATOM     27  N   UNL     1      53.221   6.065  16.557  0.00  0.00    +0.000 N 
ATOM     28  C   UNL     1      52.007   6.625  16.243  0.00  0.00    +0.000 A 
ATOM     29  O   UNL     1      51.924   7.534  15.423  0.00  0.00    +0.000 OA
ATOM     30  C   UNL     1      50.875   6.030  16.929  0.00  0.00    +0.000 A 
ATOM     31  H   UNL     1      54.024   6.454  16.084  0.00  0.00    +0.000 HD
ENDBRANCH  18  21
ENDBRANCH   1  19
TORSDOF 6
ENDMDL
MODEL 8
REMARK VINA RESULT:    -6.971      3.824      8.746
REMARK INTER + INTRA:          -9.865
REMARK INTER:                  -9.090
REMARK INTRA:                  -0.775
REMARK UNBOUND:                -0.653
REMARK  Name = 
REMARK  6 active torsions:
REMARK  status: ('A' for Active; 'I' for Inactive)
REMARK    1  A    between atoms: C_2  and  C_19
REMARK    2  A    between atoms: N_3  and  C_4
REMARK    3  A    between atoms: C_4  and  C_5
REMARK    4  A    between atoms: C_8  and  C_9
REMARK    5  A    between atoms: C_9  and  O_10
REMARK    6  A    between atoms: C_9  and  C_11
REMARK                            x       y       z     vdW  Elec       q    Type
REMARK                         _______ _______ _______ _____ _____    ______ ____
ROOT
ATOM      1  C   UNL     1      47.300   3.441  16.557  0.00  0.00    +0.000 C 
ENDROOT
BRANCH   1   2
ATOM      2  C   UNL     1      48.693   3.830  16.954  0.00  0.00    +0.000 A 
ATOM      3  C   UNL     1      49.003   5.152  17.245  0.00  0.00    +0.000 A 
ATOM      4  N   UNL     1      50.230   5.546  17.661  0.00  0.00    +0.000 NA
ATOM      5  C   UNL     1      51.170   4.567  17.749  0.00  0.00    +0.000 A 
ATOM      6  C   UNL     1      50.870   3.251  17.403  0.00  0.00    +0.000 A 
ATOM      7  N   UNL     1      49.638   2.851  17.008  0.00  0.00    +0.000 NA
BRANCH   5   8
ATOM      8  C   UNL     1      52.515   4.917  18.358  0.00  0.00    +0.000 C 
BRANCH   8   9
ATOM      9  C   UNL     1      53.649   5.142  17.360  0.00  0.00    +0.000 A 
ATOM     10  C   UNL     1      54.721   4.230  17.337  0.00  0.00    +0.000 A 
ATOM     11  C   UNL     1      55.774   4.383  16.434  0.00  0.00    +0.000 A 
ATOM     12  C   UNL     1      55.775   5.447  15.537  0.00  0.00    +0.000 A 
ATOM     13  C   UNL     1      54.726   6.361  15.544  0.00  0.00    +0.000 A 
ATOM     14  C   UNL     1      53.673   6.212  16.449  0.00  0.00    +0.000 A 
ENDBRANCH   8   9
BRANCH   8  15
ATOM     15  O   UNL     1      52.373   6.067  19.206  0.00  0.00    +0.000 OA
ATOM     16  H   UNL     1      53.245   6.254  19.591  0.00  0.00    +0.000 HD
ENDBRANCH   8  15
ENDBRANCH   5   8
ENDBRANCH   1   2
BRANCH   1  19
ATOM     17  O   UNL     1      47.188   3.152  13.760  0.00  0.00    +0.000 OA
ATOM     18  C   UNL     1      46.747   4.178  14.270  0.00  0.00    +0.000 C 
ATOM     19  N   UNL     1      46.724   4.372  15.622  0.00  0.00    +0.000 N 
ATOM     20  H   UNL     1      46.356   5.229  16.013  0.00  0.00    +0.000 HD
BRANCH  18  21
ATOM     21  C   UNL     1      46.154   5.251  13.471  0.00  0.00    +0.000 A 
ATOM     22  C   UNL     1      46.845   6.434  13.257  0.00  0.00    +0.000 A 
ATOM     23  S   UNL     1      46.005   7.532  12.255  0.00  0.00    +0.000 S 
ATOM     24  C   UNL     1      44.677   6.477  12.112  0.00  0.00    +0.000 A 
ATOM     25  N   UNL     1      43.587   6.813  11.370  0.00  0.00    +0.000 NA
ATOM     26  C   UNL     1      42.644   5.930  11.374  0.00  0.00    +0.000 A 
ATOM     27  N   UNL     1      42.687   4.744  12.060  0.00  0.00    +0.000 N 
ATOM     28  C   UNL     1      43.772   4.353  12.805  0.00  0.00    +0.000 A 
ATOM     29  O   UNL     1      43.789   3.266  13.372  0.00  0.00    +0.000 OA
ATOM     30  C   UNL     1      44.866   5.307  12.823  0.00  0.00    +0.000 A 
ATOM     31  H   UNL     1      41.917   4.093  12.022  0.00  0.00    +0.000 HD
ENDBRANCH  18  21
ENDBRANCH   1  19
TORSDOF 6
ENDMDL
MODEL 9
REMARK VINA RESULT:    -6.738      3.479      7.884
REMARK INTER + INTRA:          -9.558
REMARK INTER:                  -8.819
REMARK INTRA:                  -0.738
REMARK UNBOUND:                -0.653
REMARK  Name = 
REMARK  6 active torsions:
REMARK  status: ('A' for Active; 'I' for Inactive)
REMARK    1  A    between atoms: C_2  and  C_19
REMARK    2  A    between atoms: N_3  and  C_4
REMARK    3  A    between atoms: C_4  and  C_5
REMARK    4  A    between atoms: C_8  and  C_9
REMARK    5  A    between atoms: C_9  and  O_10
REMARK    6  A    between atoms: C_9  and  C_11
REMARK                            x       y       z     vdW  Elec       q    Type
REMARK                         _______ _______ _______ _____ _____    ______ ____
ROOT
ATOM      1  C   UNL     1      43.966   3.451  11.815  0.00  0.00    +0.000 C 
ENDROOT
BRANCH   1   2
ATOM      2  C   UNL     1      44.602   4.744  12.234  0.00  0.00    +0.000 A 
ATOM      3  C   UNL     1      45.537   4.773  13.259  0.00  0.00    +0.000 A 
ATOM      4  N   UNL     1      46.180   5.903  13.638  0.00  0.00    +0.000 NA
ATOM      5  C   UNL     1      45.832   7.036  12.970  0.00  0.00    +0.000 A 
ATOM      6  C   UNL     1      44.853   7.012  11.979  0.00  0.00    +0.000 A 
ATOM      7  N   UNL     1      44.225   5.879  11.584  0.00  0.00    +0.000 NA
BRANCH   5   8
ATOM      8  C   UNL     1      46.628   8.299  13.239  0.00  0.00    +0.000 C 
BRANCH   8   9
ATOM      9  C   UNL     1      47.950   8.414  12.484  0.00  0.00    +0.000 A 
ATOM     10  C   UNL     1      48.310   9.659  11.934  0.00  0.00    +0.000 A 
ATOM     11  C   UNL     1      49.514   9.820  11.248  0.00  0.00    +0.000 A 
ATOM     12  C   UNL     1      50.382   8.742  11.099  0.00  0.00    +0.000 A 
ATOM     13  C   UNL     1      50.046   7.502  11.632  0.00  0.00    +0.000 A 
ATOM     14  C   UNL     1      48.839   7.338  12.317  0.00  0.00    +0.000 A 
ENDBRANCH   8   9
BRANCH   8  15
ATOM     15  O   UNL     1      45.811   9.448  12.974  0.00  0.00    +0.000 OA
ATOM     16  H   UNL     1      46.279   9.995  12.321  0.00  0.00    +0.000 HD
ENDBRANCH   8  15
ENDBRANCH   5   8
ENDBRANCH   1   2
BRANCH   1  19
ATOM     17  O   UNL     1      43.831   3.752   9.020  0.00  0.00    +0.000 OA
ATOM     18  C   UNL     1      44.603   2.922   9.492  0.00  0.00    +0.000 C 
ATOM     19  N   UNL     1      44.758   2.750  10.839  0.00  0.00    +0.000 N 
ATOM     20  H   UNL     1      45.401   2.057  11.198  0.00  0.00    +0.000 HD
BRANCH  18  21
ATOM     21  C   UNL     1      45.464   2.092   8.649  0.00  0.00    +0.000 A 
ATOM     22  C   UNL     1      45.405   0.709   8.728  0.00  0.00    +0.000 A 
ATOM     23  S   UNL     1      46.447  -0.074   7.625  0.00  0.00    +0.000 S 
ATOM     24  C   UNL     1      47.039   1.411   7.039  0.00  0.00    +0.000 A 
ATOM     25  N   UNL     1      47.978   1.457   6.056  0.00  0.00    +0.000 NA
ATOM     26  C   UNL     1      48.355   2.649   5.732  0.00  0.00    +0.000 A 
ATOM     27  N   UNL     1      47.885   3.801   6.306  0.00  0.00    +0.000 N 
ATOM     28  C   UNL     1      46.923   3.807   7.287  0.00  0.00    +0.000 A 
ATOM     29  O   UNL     1      46.498   4.860   7.749  0.00  0.00    +0.000 OA
ATOM     30  C   UNL     1      46.457   2.489   7.680  0.00  0.00    +0.000 A 
ATOM     31  H   UNL     1      48.218   4.705   6.007  0.00  0.00    +0.000 HD
ENDBRANCH  18  21
ENDBRANCH   1  19
TORSDOF 6
ENDMDL
