MODEL 1
REMARK VINA RESULT:    -7.127      0.000      0.000
REMARK INTER + INTRA:         -10.196
REMARK INTER:                  -9.210
REMARK INTRA:                  -0.986
REMARK UNBOUND:                -0.986
REMARK  Name = 
REMARK  7 active torsions:
REMARK  status: ('A' for Active; 'I' for Inactive)
REMARK    1  A    between atoms: C_1  and  C_2
REMARK    2  A    between atoms: C_2  and  N_3
REMARK    3  A    between atoms: C_2  and  C_17
REMARK    4  A    between atoms: C_4  and  C_6
REMARK    5  A    between atoms: N_12  and  C_13
REMARK    6  A    between atoms: C_20  and  O_21
REMARK    7  A    between atoms: O_21  and  C_22
REMARK                            x       y       z     vdW  Elec       q    Type
REMARK                         _______ _______ _______ _____ _____    ______ ____
ROOT
ATOM      1  C   UNL     1      47.159   4.236  16.330  0.00  0.00    +0.000 C 
ATOM      2  C   UNL     1      47.662   4.954  15.077  0.00  0.00    +0.000 C 
ENDROOT
BRANCH   2   3
ATOM      3  C   UNL     1      46.770   4.691  13.869  0.00  0.00    +0.000 A 
ATOM      4  C   UNL     1      46.371   5.760  13.068  0.00  0.00    +0.000 A 
ATOM      5  C   UNL     1      45.581   5.511  11.948  0.00  0.00    +0.000 A 
ATOM      6  C   UNL     1      45.229   4.203  11.632  0.00  0.00    +0.000 A 
ATOM      7  C   UNL     1      45.614   3.205  12.512  0.00  0.00    +0.000 A 
ATOM      8  N   UNL     1      46.365   3.417  13.621  0.00  0.00    +0.000 NA
BRANCH   6   9
ATOM      9  O   UNL     1      44.468   3.847  10.547  0.00  0.00    +0.000 OA
BRANCH   9  10
ATOM     10  C   UNL     1      45.127   3.397   9.411  0.00  0.00    +0.000 A 
ATOM     11  C   UNL     1      45.515   4.344   8.475  0.00  0.00    +0.000 A 
ATOM     12  N   UNL     1      46.197   4.020   7.346  0.00  0.00    +0.000 NA
ATOM     13  C   UNL     1      46.461   2.702   7.194  0.00  0.00    +0.000 A 
ATOM     14  C   UNL     1      46.048   1.751   8.112  0.00  0.00    +0.000 A 
ATOM     15  N   UNL     1      45.362   2.074   9.231  0.00  0.00    +0.000 NA
ENDBRANCH   9  10
ENDBRANCH   6   9
ENDBRANCH   2   3
BRANCH   2  16
ATOM     16  N   UNL     1      47.779   6.378  15.345  0.00  0.00    +0.000 N 
ATOM     17  C   UNL     1      48.989   7.002  15.498  0.00  0.00    +0.000 C 
ATOM     18  O   UNL     1      50.050   6.384  15.453  0.00  0.00    +0.000 OA
ATOM     19  H   UNL     1      46.956   6.935  15.130  0.00  0.00    +0.000 HD
BRANCH  17  20
ATOM     20  C   UNL     1      48.960   8.441  15.789  0.00  0.00    +0.000 A 
ATOM     21  C   UNL     1      49.406   9.337  14.825  0.00  0.00    +0.000 A 
ATOM     22  S   UNL     1      49.321  10.967  15.314  0.00  0.00    +0.000 S 
ATOM     23  C   UNL     1      48.652  10.537  16.817  0.00  0.00    +0.000 A 
ATOM     24  N   UNL     1      48.305  11.488  17.719  0.00  0.00    +0.000 NA
ATOM     25  C   UNL     1      47.783  11.028  18.809  0.00  0.00    +0.000 A 
ATOM     26  N   UNL     1      47.582   9.695  19.100  0.00  0.00    +0.000 N 
ATOM     27  C   UNL     1      47.010   9.295  20.369  0.00  0.00    +0.000 C 
ATOM     28  C   UNL     1      47.968   8.692  18.216  0.00  0.00    +0.000 A 
ATOM     29  O   UNL     1      47.872   7.497  18.484  0.00  0.00    +0.000 OA
ATOM     30  C   UNL     1      48.525   9.168  16.959  0.00  0.00    +0.000 A 
ENDBRANCH  17  20
ENDBRANCH   2  16
TORSDOF 5
ENDMDL
MODEL 2
REMARK VINA RESULT:    -6.991      2.654      3.950
REMARK INTER + INTRA:         -10.020
REMARK INTER:                  -8.940
REMARK INTRA:                  -1.080
REMARK UNBOUND:                -0.986
REMARK  Name = 
REMARK  7 active torsions:
REMARK  status: ('A' for Active; 'I' for Inactive)
REMARK    1  A    between atoms: C_1  and  C_2
REMARK    2  A    between atoms: C_2  and  N_3
REMARK    3  A    between atoms: C_2  and  C_17
REMARK    4  A    between atoms: C_4  and  C_6
REMARK    5  A    between atoms: N_12  and  C_13
REMARK    6  A    between atoms: C_20  and  O_21
REMARK    7  A    between atoms: O_21  and  C_22
REMARK                            x       y       z     vdW  Elec       q    Type
REMARK                         _______ _______ _______ _____ _____    ______ ____
ROOT
ATOM      1  C   UNL     1      47.779   9.416  12.734  0.00  0.00    +0.000 C 
ATOM      2  C   UNL     1      47.119   8.328  13.583  0.00  0.00    +0.000 C 
ENDROOT
BRANCH   2   3
ATOM      3  C   UNL     1      46.288   7.368  12.741  0.00  0.00    +0.000 A 
ATOM      4  C   UNL     1      45.292   7.875  11.908  0.00  0.00    +0.000 A 
ATOM      5  C   UNL     1      44.555   6.995  11.118  0.00  0.00    +0.000 A 
ATOM      6  C   UNL     1      44.844   5.635  11.151  0.00  0.00    +0.000 A 
ATOM      7  C   UNL     1      45.806   5.206  12.049  0.00  0.00    +0.000 A 
ATOM      8  N   UNL     1      46.526   6.034  12.847  0.00  0.00    +0.000 NA
BRANCH   6   9
ATOM      9  O   UNL     1      44.191   4.688  10.403  0.00  0.00    +0.000 OA
BRANCH   9  10
ATOM     10  C   UNL     1      44.930   3.970   9.473  0.00  0.00    +0.000 A 
ATOM     11  C   UNL     1      44.940   2.588   9.588  0.00  0.00    +0.000 A 
ATOM     12  N   UNL     1      45.599   1.787   8.712  0.00  0.00    +0.000 NA
ATOM     13  C   UNL     1      46.259   2.435   7.725  0.00  0.00    +0.000 A 
ATOM     14  C   UNL     1      46.275   3.817   7.627  0.00  0.00    +0.000 A 
ATOM     15  N   UNL     1      45.625   4.613   8.504  0.00  0.00    +0.000 NA
ENDBRANCH   9  10
ENDBRANCH   6   9
ENDBRANCH   2   3
BRANCH   2  16
ATOM     16  N   UNL     1      48.137   7.619  14.342  0.00  0.00    +0.000 N 
ATOM     17  C   UNL     1      48.631   8.087  15.530  0.00  0.00    +0.000 C 
ATOM     18  O   UNL     1      48.267   9.159  16.009  0.00  0.00    +0.000 OA
ATOM     19  H   UNL     1      48.255   6.637  14.106  0.00  0.00    +0.000 HD
BRANCH  17  20
ATOM     20  C   UNL     1      49.673   7.281  16.178  0.00  0.00    +0.000 A 
ATOM     21  C   UNL     1      50.921   7.846  16.413  0.00  0.00    +0.000 A 
ATOM     22  S   UNL     1      52.024   6.783  17.159  0.00  0.00    +0.000 S 
ATOM     23  C   UNL     1      50.863   5.542  17.229  0.00  0.00    +0.000 A 
ATOM     24  N   UNL     1      51.160   4.347  17.797  0.00  0.00    +0.000 NA
ATOM     25  C   UNL     1      50.180   3.502  17.808  0.00  0.00    +0.000 A 
ATOM     26  N   UNL     1      48.922   3.726  17.291  0.00  0.00    +0.000 N 
ATOM     27  C   UNL     1      47.910   2.692  17.339  0.00  0.00    +0.000 C 
ATOM     28  C   UNL     1      48.599   4.924  16.662  0.00  0.00    +0.000 A 
ATOM     29  O   UNL     1      47.512   5.120  16.125  0.00  0.00    +0.000 OA
ATOM     30  C   UNL     1      49.661   5.919  16.661  0.00  0.00    +0.000 A 
ENDBRANCH  17  20
ENDBRANCH   2  16
TORSDOF 5
ENDMDL
MODEL 3
REMARK VINA RESULT:    -6.938      1.684      2.712
REMARK INTER + INTRA:          -9.952
REMARK INTER:                  -8.956
REMARK INTRA:                  -0.996
REMARK UNBOUND:                -0.986
REMARK  Name = 
REMARK  7 active torsions:
REMARK  status: ('A' for Active; 'I' for Inactive)
REMARK    1  A    between atoms: C_1  and  C_2
REMARK    2  A    between atoms: C_2  and  N_3
REMARK    3  A    between atoms: C_2  and  C_17
REMARK    4  A    between atoms: C_4  and  C_6
REMARK    5  A    between atoms: N_12  and  C_13
REMARK    6  A    between atoms: C_20  and  O_21
REMARK    7  A    between atoms: O_21  and  C_22
REMARK                            x       y       z     vdW  Elec       q    Type
REMARK                         _______ _______ _______ _____ _____    ______ ____
ROOT
ATOM      1  C   UNL     1      46.983   4.052  16.379  0.00  0.00    +0.000 C 
ATOM      2  C   UNL     1      47.614   4.687  15.139  0.00  0.00    +0.000 C 
ENDROOT
BRANCH   2   3
ATOM      3  C   UNL     1      46.736   4.527  13.903  0.00  0.00    +0.000 A 
ATOM      4  C   UNL     1      46.369   5.657  13.174  0.00  0.00    +0.000 A 
ATOM      5  C   UNL     1      45.592   5.502  12.028  0.00  0.00    +0.000 A 
ATOM      6  C   UNL     1      45.222   4.226  11.616  0.00  0.00    +0.000 A 
ATOM      7  C   UNL     1      45.576   3.162  12.428  0.00  0.00    +0.000 A 
ATOM      8  N   UNL     1      46.314   3.281  13.560  0.00  0.00    +0.000 NA
BRANCH   6   9
ATOM      9  O   UNL     1      44.472   3.962  10.497  0.00  0.00    +0.000 OA
BRANCH   9  10
ATOM     10  C   UNL     1      45.128   3.471   9.377  0.00  0.00    +0.000 A 
ATOM     11  C   UNL     1      45.557   4.388   8.429  0.00  0.00    +0.000 A 
ATOM     12  N   UNL     1      46.239   4.022   7.314  0.00  0.00    +0.000 NA
ATOM     13  C   UNL     1      46.461   2.694   7.186  0.00  0.00    +0.000 A 
ATOM     14  C   UNL     1      46.006   1.773   8.116  0.00  0.00    +0.000 A 
ATOM     15  N   UNL     1      45.320   2.138   9.222  0.00  0.00    +0.000 NA
ENDBRANCH   9  10
ENDBRANCH   6   9
ENDBRANCH   2   3
BRANCH   2  16
ATOM     16  N   UNL     1      47.902   6.088  15.402  0.00  0.00    +0.000 N 
ATOM     17  C   UNL     1      49.090   6.507  15.940  0.00  0.00    +0.000 C 
ATOM     18  O   UNL     1      49.972   5.716  16.267  0.00  0.00    +0.000 OA
ATOM     19  H   UNL     1      47.314   6.757  14.912  0.00  0.00    +0.000 HD
BRANCH  17  20
ATOM     20  C   UNL     1      49.239   7.949  16.175  0.00  0.00    +0.000 A 
ATOM     21  C   UNL     1      49.541   8.401  17.454  0.00  0.00    +0.000 A 
ATOM     22  S   UNL     1      49.669  10.096  17.568  0.00  0.00    +0.000 S 
ATOM     23  C   UNL     1      49.361  10.285  15.906  0.00  0.00    +0.000 A 
ATOM     24  N   UNL     1      49.363  11.516  15.336  0.00  0.00    +0.000 NA
ATOM     25  C   UNL     1      49.141  11.516  14.062  0.00  0.00    +0.000 A 
ATOM     26  N   UNL     1      48.901  10.399  13.290  0.00  0.00    +0.000 N 
ATOM     27  C   UNL     1      48.640  10.525  11.871  0.00  0.00    +0.000 C 
ATOM     28  C   UNL     1      48.848   9.127  13.851  0.00  0.00    +0.000 A 
ATOM     29  O   UNL     1      48.559   8.126  13.200  0.00  0.00    +0.000 OA
ATOM     30  C   UNL     1      49.130   9.076  15.277  0.00  0.00    +0.000 A 
ENDBRANCH  17  20
ENDBRANCH   2  16
TORSDOF 5
ENDMDL
MODEL 4
REMARK VINA RESULT:    -6.938      3.018      4.035
REMARK INTER + INTRA:          -9.952
REMARK INTER:                  -9.796
REMARK INTRA:                  -0.156
REMARK UNBOUND:                -0.986
REMARK  Name = 
REMARK  7 active torsions:
REMARK  status: ('A' for Active; 'I' for Inactive)
REMARK    1  A    between atoms: C_1  and  C_2
REMARK    2  A    between atoms: C_2  and  N_3
REMARK    3  A    between atoms: C_2  and  C_17
REMARK    4  A    between atoms: C_4  and  C_6
REMARK    5  A    between atoms: N_12  and  C_13
REMARK    6  A    between atoms: C_20  and  O_21
REMARK    7  A    between atoms: O_21  and  C_22
REMARK                            x       y       z     vdW  Elec       q    Type
REMARK                         _______ _______ _______ _____ _____    ______ ____
ROOT
ATOM      1  C   UNL     1      47.166   8.051  12.252  0.00  0.00    +0.000 C 
ATOM      2  C   UNL     1      46.024   7.130  12.687  0.00  0.00    +0.000 C 
ENDROOT
BRANCH   2   3
ATOM      3  C   UNL     1      45.625   6.153  11.588  0.00  0.00    +0.000 A 
ATOM      4  C   UNL     1      44.645   5.195  11.848  0.00  0.00    +0.000 A 
ATOM      5  C   UNL     1      44.263   4.324  10.831  0.00  0.00    +0.000 A 
ATOM      6  C   UNL     1      44.840   4.441   9.571  0.00  0.00    +0.000 A 
ATOM      7  C   UNL     1      45.847   5.378   9.412  0.00  0.00    +0.000 A 
ATOM      8  N   UNL     1      46.257   6.227  10.388  0.00  0.00    +0.000 NA
BRANCH   6   9
ATOM      9  O   UNL     1      44.524   3.645   8.498  0.00  0.00    +0.000 OA
BRANCH   9  10
ATOM     10  C   UNL     1      45.544   2.907   7.915  0.00  0.00    +0.000 A 
ATOM     11  C   UNL     1      45.827   1.661   8.456  0.00  0.00    +0.000 A 
ATOM     12  N   UNL     1      46.778   0.840   7.943  0.00  0.00    +0.000 NA
ATOM     13  C   UNL     1      47.441   1.329   6.871  0.00  0.00    +0.000 A 
ATOM     14  C   UNL     1      47.182   2.586   6.347  0.00  0.00    +0.000 A 
ATOM     15  N   UNL     1      46.240   3.406   6.865  0.00  0.00    +0.000 NA
ENDBRANCH   9  10
ENDBRANCH   6   9
ENDBRANCH   2   3
BRANCH   2  16
ATOM     16  N   UNL     1      46.401   6.430  13.904  0.00  0.00    +0.000 N 
ATOM     17  C   UNL     1      47.607   5.796  14.046  0.00  0.00    +0.000 C 
ATOM     18  O   UNL     1      48.430   5.752  13.135  0.00  0.00    +0.000 OA
ATOM     19  H   UNL     1      45.865   6.671  14.734  0.00  0.00    +0.000 HD
BRANCH  17  20
ATOM     20  C   UNL     1      47.848   5.108  15.321  0.00  0.00    +0.000 A 
ATOM     21  C   UNL     1      47.201   3.906  15.576  0.00  0.00    +0.000 A 
ATOM     22  S   UNL     1      47.573   3.238  17.099  0.00  0.00    +0.000 S 
ATOM     23  C   UNL     1      48.640   4.513  17.457  0.00  0.00    +0.000 A 
ATOM     24  N   UNL     1      49.332   4.530  18.623  0.00  0.00    +0.000 NA
ATOM     25  C   UNL     1      50.128   5.540  18.758  0.00  0.00    +0.000 A 
ATOM     26  N   UNL     1      50.296   6.556  17.841  0.00  0.00    +0.000 N 
ATOM     27  C   UNL     1      51.200   7.654  18.113  0.00  0.00    +0.000 C 
ATOM     28  C   UNL     1      49.568   6.592  16.656  0.00  0.00    +0.000 A 
ATOM     29  O   UNL     1      49.641   7.525  15.859  0.00  0.00    +0.000 OA
ATOM     30  C   UNL     1      48.688   5.453  16.445  0.00  0.00    +0.000 A 
ENDBRANCH  17  20
ENDBRANCH   2  16
TORSDOF 5
ENDMDL
MODEL 5
REMARK VINA RESULT:    -6.838      2.351      3.681
REMARK INTER + INTRA:          -9.823
REMARK INTER:                  -8.958
REMARK INTRA:                  -0.865
REMARK UNBOUND:                -0.986
REMARK  Name = 
REMARK  7 active torsions:
REMARK  status: ('A' for Active; 'I' for Inactive)
REMARK    1  A    between atoms: C_1  and  C_2
REMARK    2  A    between atoms: C_2  and  N_3
REMARK    3  A    between atoms: C_2  and  C_17
REMARK    4  A    between atoms: C_4  and  C_6
REMARK    5  A    between atoms: N_12  and  C_13
REMARK    6  A    between atoms: C_20  and  O_21
REMARK    7  A    between atoms: O_21  and  C_22
REMARK                            x       y       z     vdW  Elec       q    Type
REMARK                         _______ _______ _______ _____ _____    ______ ____
ROOT
ATOM      1  C   UNL     1      49.534   7.764  13.263  0.00  0.00    +0.000 C 
ATOM      2  C   UNL     1      48.112   7.978  13.785  0.00  0.00    +0.000 C 
ENDROOT
BRANCH   2   3
ATOM      3  C   UNL     1      47.080   7.207  12.969  0.00  0.00    +0.000 A 
ATOM      4  C   UNL     1      46.173   7.909  12.176  0.00  0.00    +0.000 A 
ATOM      5  C   UNL     1      45.252   7.199  11.409  0.00  0.00    +0.000 A 
ATOM      6  C   UNL     1      45.271   5.808  11.425  0.00  0.00    +0.000 A 
ATOM      7  C   UNL     1      46.163   5.189  12.284  0.00  0.00    +0.000 A 
ATOM      8  N   UNL     1      47.058   5.851  13.059  0.00  0.00    +0.000 NA
BRANCH   6   9
ATOM      9  O   UNL     1      44.420   5.014  10.697  0.00  0.00    +0.000 OA
BRANCH   9  10
ATOM     10  C   UNL     1      44.969   4.202   9.715  0.00  0.00    +0.000 A 
ATOM     11  C   UNL     1      44.840   2.829   9.870  0.00  0.00    +0.000 A 
ATOM     12  N   UNL     1      45.307   1.943   8.954  0.00  0.00    +0.000 NA
ATOM     13  C   UNL     1      45.920   2.495   7.882  0.00  0.00    +0.000 A 
ATOM     14  C   UNL     1      46.077   3.864   7.740  0.00  0.00    +0.000 A 
ATOM     15  N   UNL     1      45.619   4.745   8.657  0.00  0.00    +0.000 NA
ENDBRANCH   9  10
ENDBRANCH   6   9
ENDBRANCH   2   3
BRANCH   2  16
ATOM     16  N   UNL     1      48.049   7.614  15.191  0.00  0.00    +0.000 N 
ATOM     17  C   UNL     1      48.501   8.440  16.186  0.00  0.00    +0.000 C 
ATOM     18  O   UNL     1      49.021   9.527  15.944  0.00  0.00    +0.000 OA
ATOM     19  H   UNL     1      47.404   6.863  15.423  0.00  0.00    +0.000 HD
BRANCH  17  20
ATOM     20  C   UNL     1      48.398   7.938  17.562  0.00  0.00    +0.000 A 
ATOM     21  C   UNL     1      48.003   8.805  18.574  0.00  0.00    +0.000 A 
ATOM     22  S   UNL     1      47.942   8.078  20.114  0.00  0.00    +0.000 S 
ATOM     23  C   UNL     1      48.407   6.570  19.479  0.00  0.00    +0.000 A 
ATOM     24  N   UNL     1      48.513   5.482  20.283  0.00  0.00    +0.000 NA
ATOM     25  C   UNL     1      48.848   4.394  19.669  0.00  0.00    +0.000 A 
ATOM     26  N   UNL     1      49.105   4.282  18.319  0.00  0.00    +0.000 N 
ATOM     27  C   UNL     1      49.498   3.011  17.746  0.00  0.00    +0.000 C 
ATOM     28  C   UNL     1      49.049   5.387  17.475  0.00  0.00    +0.000 A 
ATOM     29  O   UNL     1      49.349   5.329  16.285  0.00  0.00    +0.000 OA
ATOM     30  C   UNL     1      48.638   6.625  18.117  0.00  0.00    +0.000 A 
ENDBRANCH  17  20
ENDBRANCH   2  16
TORSDOF 5
ENDMDL
MODEL 6
REMARK VINA RESULT:    -6.758      2.871      4.628
REMARK INTER + INTRA:          -9.719
REMARK INTER:                  -8.422
REMARK INTRA:                  -1.297
REMARK UNBOUND:                -0.986
REMARK  Name = 
REMARK  7 active torsions:
REMARK  status: ('A' for Active; 'I' for Inactive)
REMARK    1  A    between atoms: C_1  and  C_2
REMARK    2  A    between atoms: C_2  and  N_3
REMARK    3  A    between atoms: C_2  and  C_17
REMARK    4  A    between atoms: C_4  and  C_6
REMARK    5  A    between atoms: N_12  and  C_13
REMARK    6  A    between atoms: C_20  and  O_21
REMARK    7  A    between atoms: O_21  and  C_22
REMARK                            x       y       z     vdW  Elec       q    Type
REMARK                         _______ _______ _______ _____ _____    ______ ____
ROOT
ATOM      1  C   UNL     1      50.366   8.645  13.174  0.00  0.00    +0.000 C 
ATOM      2  C   UNL     1      49.079   8.711  13.998  0.00  0.00    +0.000 C 
ENDROOT
BRANCH   2   3
ATOM      3  C   UNL     1      47.880   8.162  13.235  0.00  0.00    +0.000 A 
ATOM      4  C   UNL     1      48.060   7.099  12.351  0.00  0.00    +0.000 A 
ATOM      5  C   UNL     1      46.956   6.581  11.679  0.00  0.00    +0.000 A 
ATOM      6  C   UNL     1      45.693   7.111  11.920  0.00  0.00    +0.000 A 
ATOM      7  C   UNL     1      45.607   8.204  12.766  0.00  0.00    +0.000 A 
ATOM      8  N   UNL     1      46.666   8.745  13.420  0.00  0.00    +0.000 NA
BRANCH   6   9
ATOM      9  O   UNL     1      44.540   6.666  11.324  0.00  0.00    +0.000 OA
BRANCH   9  10
ATOM     10  C   UNL     1      44.200   5.329  11.483  0.00  0.00    +0.000 A 
ATOM     11  C   UNL     1      43.870   4.897  12.759  0.00  0.00    +0.000 A 
ATOM     12  N   UNL     1      43.487   3.622  13.023  0.00  0.00    +0.000 NA
ATOM     13  C   UNL     1      43.464   2.796  11.951  0.00  0.00    +0.000 A 
ATOM     14  C   UNL     1      43.823   3.217  10.682  0.00  0.00    +0.000 A 
ATOM     15  N   UNL     1      44.212   4.486  10.422  0.00  0.00    +0.000 NA
ENDBRANCH   9  10
ENDBRANCH   6   9
ENDBRANCH   2   3
BRANCH   2  16
ATOM     16  N   UNL     1      49.270   8.007  15.256  0.00  0.00    +0.000 N 
ATOM     17  C   UNL     1      48.684   8.415  16.425  0.00  0.00    +0.000 C 
ATOM     18  O   UNL     1      47.989   9.426  16.486  0.00  0.00    +0.000 OA
ATOM     19  H   UNL     1      49.613   7.053  15.178  0.00  0.00    +0.000 HD
BRANCH  17  20
ATOM     20  C   UNL     1      48.981   7.623  17.626  0.00  0.00    +0.000 A 
ATOM     21  C   UNL     1      49.385   8.274  18.785  0.00  0.00    +0.000 A 
ATOM     22  S   UNL     1      49.703   7.221  20.087  0.00  0.00    +0.000 S 
ATOM     23  C   UNL     1      49.279   5.860  19.158  0.00  0.00    +0.000 A 
ATOM     24  N   UNL     1      49.301   4.618  19.701  0.00  0.00    +0.000 NA
ATOM     25  C   UNL     1      48.931   3.676  18.896  0.00  0.00    +0.000 A 
ATOM     26  N   UNL     1      48.549   3.849  17.583  0.00  0.00    +0.000 N 
ATOM     27  C   UNL     1      48.177   2.711  16.767  0.00  0.00    +0.000 C 
ATOM     28  C   UNL     1      48.558   5.104  16.982  0.00  0.00    +0.000 A 
ATOM     29  O   UNL     1      48.297   5.274  15.794  0.00  0.00    +0.000 OA
ATOM     30  C   UNL     1      48.932   6.199  17.864  0.00  0.00    +0.000 A 
ENDBRANCH  17  20
ENDBRANCH   2  16
TORSDOF 5
ENDMDL
MODEL 7
REMARK VINA RESULT:    -6.559      3.370      4.581
REMARK INTER + INTRA:          -9.462
REMARK INTER:                  -9.220
REMARK INTRA:                  -0.242
REMARK UNBOUND:                -0.986
REMARK  Name = 
REMARK  7 active torsions:
REMARK  status: ('A' for Active; 'I' for Inactive)
REMARK    1  A    between atoms: C_1  and  C_2
REMARK    2  A    between atoms: C_2  and  N_3
REMARK    3  A    between atoms: C_2  and  C_17
REMARK    4  A    between atoms: C_4  and  C_6
REMARK    5  A    between atoms: N_12  and  C_13
REMARK    6  A    between atoms: C_20  and  O_21
REMARK    7  A    between atoms: O_21  and  C_22
REMARK                            x       y       z     vdW  Elec       q    Type
REMARK                         _______ _______ _______ _____ _____    ______ ____
ROOT
ATOM      1  C   UNL     1      44.482   8.632  11.584  0.00  0.00    +0.000 C 
ATOM      2  C   UNL     1      44.849   7.305  12.251  0.00  0.00    +0.000 C 
ENDROOT
BRANCH   2   3
ATOM      3  C   UNL     1      44.826   6.142  11.266  0.00  0.00    +0.000 A 
ATOM      4  C   UNL     1      45.800   6.070  10.271  0.00  0.00    +0.000 A 
ATOM      5  C   UNL     1      45.792   4.989   9.392  0.00  0.00    +0.000 A 
ATOM      6  C   UNL     1      44.835   3.989   9.540  0.00  0.00    +0.000 A 
ATOM      7  C   UNL     1      43.868   4.167  10.515  0.00  0.00    +0.000 A 
ATOM      8  N   UNL     1      43.836   5.217  11.372  0.00  0.00    +0.000 NA
BRANCH   6   9
ATOM      9  O   UNL     1      44.749   2.878   8.739  0.00  0.00    +0.000 OA
BRANCH   9  10
ATOM     10  C   UNL     1      45.756   2.667   7.808  0.00  0.00    +0.000 A 
ATOM     11  C   UNL     1      46.552   1.542   7.965  0.00  0.00    +0.000 A 
ATOM     12  N   UNL     1      47.541   1.219   7.094  0.00  0.00    +0.000 NA
ATOM     13  C   UNL     1      47.705   2.082   6.065  0.00  0.00    +0.000 A 
ATOM     14  C   UNL     1      46.932   3.223   5.924  0.00  0.00    +0.000 A 
ATOM     15  N   UNL     1      45.952   3.547   6.797  0.00  0.00    +0.000 NA
ENDBRANCH   9  10
ENDBRANCH   6   9
ENDBRANCH   2   3
BRANCH   2  16
ATOM     16  N   UNL     1      46.149   7.426  12.893  0.00  0.00    +0.000 N 
ATOM     17  C   UNL     1      46.724   6.398  13.591  0.00  0.00    +0.000 C 
ATOM     18  O   UNL     1      46.157   5.320  13.748  0.00  0.00    +0.000 OA
ATOM     19  H   UNL     1      46.732   8.192  12.564  0.00  0.00    +0.000 HD
BRANCH  17  20
ATOM     20  C   UNL     1      48.030   6.666  14.207  0.00  0.00    +0.000 A 
ATOM     21  C   UNL     1      48.290   6.182  15.484  0.00  0.00    +0.000 A 
ATOM     22  S   UNL     1      49.841   6.584  16.066  0.00  0.00    +0.000 S 
ATOM     23  C   UNL     1      50.234   7.387  14.619  0.00  0.00    +0.000 A 
ATOM     24  N   UNL     1      51.458   7.943  14.446  0.00  0.00    +0.000 NA
ATOM     25  C   UNL     1      51.635   8.499  13.292  0.00  0.00    +0.000 A 
ATOM     26  N   UNL     1      50.697   8.569  12.284  0.00  0.00    +0.000 N 
ATOM     27  C   UNL     1      51.002   9.243  11.038  0.00  0.00    +0.000 C 
ATOM     28  C   UNL     1      49.417   8.049  12.446  0.00  0.00    +0.000 A 
ATOM     29  O   UNL     1      48.539   8.167  11.595  0.00  0.00    +0.000 OA
ATOM     30  C   UNL     1      49.187   7.380  13.717  0.00  0.00    +0.000 A 
ENDBRANCH  17  20
ENDBRANCH   2  16
TORSDOF 5
ENDMDL
MODEL 8
REMARK VINA RESULT:    -6.412      4.718      9.058
REMARK INTER + INTRA:          -9.272
REMARK INTER:                  -9.502
REMARK INTRA:                   0.231
REMARK UNBOUND:                -0.986
REMARK  Name = 
REMARK  7 active torsions:
REMARK  status: ('A' for Active; 'I' for Inactive)
REMARK    1  A    between atoms: C_1  and  C_2
REMARK    2  A    between atoms: C_2  and  N_3
REMARK    3  A    between atoms: C_2  and  C_17
REMARK    4  A    between atoms: C_4  and  C_6
REMARK    5  A    between atoms: N_12  and  C_13
REMARK    6  A    between atoms: C_20  and  O_21
REMARK    7  A    between atoms: O_21  and  C_22
REMARK                            x       y       z     vdW  Elec       q    Type
REMARK                         _______ _______ _______ _____ _____    ______ ____
ROOT
ATOM      1  C   UNL     1      47.070   2.929  17.391  0.00  0.00    +0.000 C 
ATOM      2  C   UNL     1      47.798   4.274  17.356  0.00  0.00    +0.000 C 
ENDROOT
BRANCH   2   3
ATOM      3  C   UNL     1      49.308   4.112  17.479  0.00  0.00    +0.000 A 
ATOM      4  C   UNL     1      49.868   2.838  17.396  0.00  0.00    +0.000 A 
ATOM      5  C   UNL     1      51.251   2.699  17.479  0.00  0.00    +0.000 A 
ATOM      6  C   UNL     1      52.050   3.830  17.615  0.00  0.00    +0.000 A 
ATOM      7  C   UNL     1      51.412   5.052  17.750  0.00  0.00    +0.000 A 
ATOM      8  N   UNL     1      50.067   5.219  17.694  0.00  0.00    +0.000 NA
BRANCH   6   9
ATOM      9  O   UNL     1      53.420   3.805  17.691  0.00  0.00    +0.000 OA
BRANCH   9  10
ATOM     10  C   UNL     1      54.022   2.665  18.203  0.00  0.00    +0.000 A 
ATOM     11  C   UNL     1      54.155   2.572  19.581  0.00  0.00    +0.000 A 
ATOM     12  N   UNL     1      54.695   1.487  20.192  0.00  0.00    +0.000 NA
ATOM     13  C   UNL     1      55.106   0.504  19.358  0.00  0.00    +0.000 A 
ATOM     14  C   UNL     1      55.002   0.607  17.981  0.00  0.00    +0.000 A 
ATOM     15  N   UNL     1      54.472   1.692  17.374  0.00  0.00    +0.000 NA
ENDBRANCH   9  10
ENDBRANCH   6   9
ENDBRANCH   2   3
BRANCH   2  16
ATOM     16  N   UNL     1      47.442   4.988  16.140  0.00  0.00    +0.000 N 
ATOM     17  C   UNL     1      47.340   4.366  14.924  0.00  0.00    +0.000 C 
ATOM     18  O   UNL     1      47.580   3.169  14.783  0.00  0.00    +0.000 OA
ATOM     19  H   UNL     1      46.997   5.892  16.275  0.00  0.00    +0.000 HD
BRANCH  17  20
ATOM     20  C   UNL     1      46.995   5.212  13.774  0.00  0.00    +0.000 A 
ATOM     21  C   UNL     1      47.517   6.497  13.696  0.00  0.00    +0.000 A 
ATOM     22  S   UNL     1      47.016   7.357  12.313  0.00  0.00    +0.000 S 
ATOM     23  C   UNL     1      46.113   6.030  11.750  0.00  0.00    +0.000 A 
ATOM     24  N   UNL     1      45.449   6.095  10.569  0.00  0.00    +0.000 NA
ATOM     25  C   UNL     1      44.825   5.009  10.246  0.00  0.00    +0.000 A 
ATOM     26  N   UNL     1      44.784   3.854  10.998  0.00  0.00    +0.000 N 
ATOM     27  C   UNL     1      44.028   2.705  10.545  0.00  0.00    +0.000 C 
ATOM     28  C   UNL     1      45.417   3.770  12.234  0.00  0.00    +0.000 A 
ATOM     29  O   UNL     1      45.331   2.781  12.958  0.00  0.00    +0.000 OA
ATOM     30  C   UNL     1      46.164   4.957  12.619  0.00  0.00    +0.000 A 
ENDBRANCH  17  20
ENDBRANCH   2  16
TORSDOF 5
ENDMDL
MODEL 9
REMARK VINA RESULT:    -6.084      1.808      2.571
REMARK INTER + INTRA:          -8.848
REMARK INTER:                  -8.133
REMARK INTRA:                  -0.715
REMARK UNBOUND:                -0.986
REMARK  Name = 
REMARK  7 active torsions:
REMARK  status: ('A' for Active; 'I' for Inactive)
REMARK    1  A    between atoms: C_1  and  C_2
REMARK    2  A    between atoms: C_2  and  N_3
REMARK    3  A    between atoms: C_2  and  C_17
REMARK    4  A    between atoms: C_4  and  C_6
REMARK    5  A    between atoms: N_12  and  C_13
REMARK    6  A    between atoms: C_20  and  O_21
REMARK    7  A    between atoms: O_21  and  C_22
REMARK                            x       y       z     vdW  Elec       q    Type
REMARK                         _______ _______ _______ _____ _____    ______ ____
ROOT
ATOM      1  C   UNL     1      47.619   3.309  16.448  0.00  0.00    +0.000 C 
ATOM      2  C   UNL     1      47.931   4.593  15.677  0.00  0.00    +0.000 C 
ENDROOT
BRANCH   2   3
ATOM      3  C   UNL     1      47.082   4.726  14.418  0.00  0.00    +0.000 A 
ATOM      4  C   UNL     1      46.579   3.577  13.808  0.00  0.00    +0.000 A 
ATOM      5  C   UNL     1      45.779   3.707  12.675  0.00  0.00    +0.000 A 
ATOM      6  C   UNL     1      45.472   4.974  12.190  0.00  0.00    +0.000 A 
ATOM      7  C   UNL     1      46.059   6.060  12.818  0.00  0.00    +0.000 A 
ATOM      8  N   UNL     1      46.859   5.967  13.910  0.00  0.00    +0.000 NA
BRANCH   6   9
ATOM      9  O   UNL     1      44.682   5.212  11.094  0.00  0.00    +0.000 OA
BRANCH   9  10
ATOM     10  C   UNL     1      44.941   4.489   9.937  0.00  0.00    +0.000 A 
ATOM     11  C   UNL     1      45.799   5.053   9.005  0.00  0.00    +0.000 A 
ATOM     12  N   UNL     1      46.150   4.419   7.857  0.00  0.00    +0.000 NA
ATOM     13  C   UNL     1      45.591   3.200   7.681  0.00  0.00    +0.000 A 
ATOM     14  C   UNL     1      44.710   2.648   8.596  0.00  0.00    +0.000 A 
ATOM     15  N   UNL     1      44.355   3.284   9.734  0.00  0.00    +0.000 NA
ENDBRANCH   9  10
ENDBRANCH   6   9
ENDBRANCH   2   3
BRANCH   2  16
ATOM     16  N   UNL     1      47.758   5.740  16.553  0.00  0.00    +0.000 N 
ATOM     17  C   UNL     1      48.632   6.032  17.566  0.00  0.00    +0.000 C 
ATOM     18  O   UNL     1      49.598   5.316  17.818  0.00  0.00    +0.000 OA
ATOM     19  H   UNL     1      47.137   6.467  16.207  0.00  0.00    +0.000 HD
BRANCH  17  20
ATOM     20  C   UNL     1      48.324   7.209  18.388  0.00  0.00    +0.000 A 
ATOM     21  C   UNL     1      47.943   7.031  19.713  0.00  0.00    +0.000 A 
ATOM     22  S   UNL     1      47.608   8.488  20.531  0.00  0.00    +0.000 S 
ATOM     23  C   UNL     1      47.994   9.411  19.155  0.00  0.00    +0.000 A 
ATOM     24  N   UNL     1      47.947  10.766  19.194  0.00  0.00    +0.000 NA
ATOM     25  C   UNL     1      48.290  11.345  18.090  0.00  0.00    +0.000 A 
ATOM     26  N   UNL     1      48.668  10.701  16.931  0.00  0.00    +0.000 N 
ATOM     27  C   UNL     1      49.008  11.458  15.744  0.00  0.00    +0.000 C 
ATOM     28  C   UNL     1      48.684   9.312  16.844  0.00  0.00    +0.000 A 
ATOM     29  O   UNL     1      48.942   8.715  15.802  0.00  0.00    +0.000 OA
ATOM     30  C   UNL     1      48.342   8.620  18.076  0.00  0.00    +0.000 A 
ENDBRANCH  17  20
ENDBRANCH   2  16
TORSDOF 5
ENDMDL
