MODEL 1
REMARK VINA RESULT:    -8.711      0.000      0.000
REMARK INTER + INTRA:         -14.334
REMARK INTER:                 -13.040
REMARK INTRA:                  -1.294
REMARK UNBOUND:                -1.294
REMARK  Name = 
REMARK  10 active torsions:
REMARK  status: ('A' for Active; 'I' for Inactive)
REMARK    1  A    between atoms: C_1  and  O_2
REMARK    2  A    between atoms: O_2  and  C_3
REMARK    3  A    between atoms: C_10  and  C_11
REMARK    4  A    between atoms: N_13  and  C_14
REMARK    5  A    between atoms: C_14  and  C_15
REMARK    6  A    between atoms: C_18  and  C_19
REMARK    7  A    between atoms: C_19  and  C_20
REMARK    8  A    between atoms: C_20  and  N_21
REMARK    9  A    between atoms: C_20  and  C_22
REMARK   10  A    between atoms: C_22  and  C_23
REMARK                            x       y       z     vdW  Elec       q    Type
REMARK                         _______ _______ _______ _____ _____    ______ ____
ROOT
ATOM      1  C   UNL     1      46.336   7.135  12.374  0.00  0.00    +0.000 A 
ATOM      2  C   UNL     1      45.079   6.718  12.823  0.00  0.00    +0.000 A 
ATOM      3  C   UNL     1      44.284   5.868  12.046  0.00  0.00    +0.000 A 
ATOM      4  C   UNL     1      44.722   5.414  10.795  0.00  0.00    +0.000 A 
ATOM      5  C   UNL     1      45.981   5.835  10.342  0.00  0.00    +0.000 A 
ATOM      6  C   UNL     1      46.778   6.689  11.121  0.00  0.00    +0.000 A 
ENDROOT
BRANCH   1   7
ATOM      7  C   UNL     1      47.182   8.029  13.241  0.00  0.00    +0.000 C 
BRANCH   7  10
ATOM      8  C   UNL     1      48.751   6.888  14.727  0.00  0.00    +0.000 C 
ATOM      9  O   UNL     1      49.610   6.940  13.847  0.00  0.00    +0.000 OA
ATOM     10  N   UNL     1      47.506   7.431  14.519  0.00  0.00    +0.000 N 
ATOM     11  H   UNL     1      46.787   7.368  15.230  0.00  0.00    +0.000 HD
BRANCH   8  19
ATOM     12  C   UNL     1      47.358   4.193  16.388  0.00  0.00    +0.000 A 
ATOM     13  N   UNL     1      47.081   3.147  17.198  0.00  0.00    +0.000 NA
ATOM     14  C   UNL     1      47.830   2.973  18.289  0.00  0.00    +0.000 A 
ATOM     15  N   UNL     1      48.839   3.740  18.691  0.00  0.00    +0.000 NA
ATOM     16  C   UNL     1      49.094   4.755  17.851  0.00  0.00    +0.000 A 
ATOM     17  S   UNL     1      50.333   5.851  18.227  0.00  0.00    +0.000 S 
ATOM     18  C   UNL     1      50.050   6.730  16.803  0.00  0.00    +0.000 A 
ATOM     19  C   UNL     1      49.032   6.215  16.008  0.00  0.00    +0.000 A 
ATOM     20  C   UNL     1      48.433   5.053  16.659  0.00  0.00    +0.000 A 
BRANCH  12  22
ATOM     21  C   UNL     1      47.077   3.709  14.131  0.00  0.00    +0.000 C 
ATOM     22  O   UNL     1      46.557   4.382  15.282  0.00  0.00    +0.000 OA
ENDBRANCH  12  22
ENDBRANCH   8  19
ENDBRANCH   7  10
ENDBRANCH   1   7
BRANCH   4  23
ATOM     23  C   UNL     1      43.882   4.428   9.998  0.00  0.00    +0.000 C 
BRANCH  23  24
ATOM     24  C   UNL     1      44.082   2.934  10.365  0.00  0.00    +0.000 C 
BRANCH  24  25
ATOM     25  N   UNL     1      45.196   2.789  11.325  0.00  0.00    +0.000 NA
ATOM     26  H   UNL     1      46.076   3.003  10.850  0.00  0.00    +0.000 HD
ATOM     27  H   UNL     1      45.271   1.811  11.605  0.00  0.00    +0.000 HD
ENDBRANCH  24  25
BRANCH  24  28
ATOM     28  C   UNL     1      44.242   1.993   9.144  0.00  0.00    +0.000 C 
BRANCH  28  29
ATOM     29  C   UNL     1      45.466   2.202   8.276  0.00  0.00    +0.000 A 
ATOM     30  C   UNL     1      46.371   1.156   8.042  0.00  0.00    +0.000 A 
ATOM     31  C   UNL     1      47.481   1.348   7.215  0.00  0.00    +0.000 A 
ATOM     32  C   UNL     1      47.700   2.586   6.616  0.00  0.00    +0.000 A 
ATOM     33  C   UNL     1      46.812   3.633   6.844  0.00  0.00    +0.000 A 
ATOM     34  C   UNL     1      45.699   3.440   7.664  0.00  0.00    +0.000 A 
ENDBRANCH  28  29
ENDBRANCH  24  28
ENDBRANCH  23  24
ENDBRANCH   4  23
TORSDOF 9
ENDMDL
MODEL 2
REMARK VINA RESULT:    -8.184      2.147      2.700
REMARK INTER + INTRA:         -13.544
REMARK INTER:                 -12.486
REMARK INTRA:                  -1.059
REMARK UNBOUND:                -1.294
REMARK  Name = 
REMARK  10 active torsions:
REMARK  status: ('A' for Active; 'I' for Inactive)
REMARK    1  A    between atoms: C_1  and  O_2
REMARK    2  A    between atoms: O_2  and  C_3
REMARK    3  A    between atoms: C_10  and  C_11
REMARK    4  A    between atoms: N_13  and  C_14
REMARK    5  A    between atoms: C_14  and  C_15
REMARK    6  A    between atoms: C_18  and  C_19
REMARK    7  A    between atoms: C_19  and  C_20
REMARK    8  A    between atoms: C_20  and  N_21
REMARK    9  A    between atoms: C_20  and  C_22
REMARK   10  A    between atoms: C_22  and  C_23
REMARK                            x       y       z     vdW  Elec       q    Type
REMARK                         _______ _______ _______ _____ _____    ______ ____
ROOT
ATOM      1  C   UNL     1      47.525   6.278  13.977  0.00  0.00    +0.000 A 
ATOM      2  C   UNL     1      47.041   5.081  14.515  0.00  0.00    +0.000 A 
ATOM      3  C   UNL     1      46.109   4.305  13.817  0.00  0.00    +0.000 A 
ATOM      4  C   UNL     1      45.631   4.706  12.562  0.00  0.00    +0.000 A 
ATOM      5  C   UNL     1      46.114   5.908  12.024  0.00  0.00    +0.000 A 
ATOM      6  C   UNL     1      47.048   6.687  12.725  0.00  0.00    +0.000 A 
ENDROOT
BRANCH   1   7
ATOM      7  C   UNL     1      48.548   7.081  14.738  0.00  0.00    +0.000 C 
BRANCH   7  10
ATOM      8  C   UNL     1      49.542   6.017  16.700  0.00  0.00    +0.000 C 
ATOM      9  O   UNL     1      48.632   6.467  17.396  0.00  0.00    +0.000 OA
ATOM     10  N   UNL     1      49.570   6.257  15.348  0.00  0.00    +0.000 N 
ATOM     11  H   UNL     1      50.331   5.910  14.774  0.00  0.00    +0.000 HD
BRANCH   8  19
ATOM     12  C   UNL     1      50.223   2.639  17.000  0.00  0.00    +0.000 A 
ATOM     13  N   UNL     1      50.777   1.420  17.181  0.00  0.00    +0.000 NA
ATOM     14  C   UNL     1      51.969   1.346  17.777  0.00  0.00    +0.000 A 
ATOM     15  N   UNL     1      52.691   2.363  18.238  0.00  0.00    +0.000 NA
ATOM     16  C   UNL     1      52.116   3.556  18.022  0.00  0.00    +0.000 A 
ATOM     17  S   UNL     1      52.889   4.962  18.574  0.00  0.00    +0.000 S 
ATOM     18  C   UNL     1      51.649   5.942  17.956  0.00  0.00    +0.000 A 
ATOM     19  C   UNL     1      50.636   5.240  17.310  0.00  0.00    +0.000 A 
ATOM     20  C   UNL     1      50.900   3.806  17.387  0.00  0.00    +0.000 A 
BRANCH  12  22
ATOM     21  C   UNL     1      47.939   2.817  17.395  0.00  0.00    +0.000 C 
ATOM     22  O   UNL     1      48.976   2.700  16.415  0.00  0.00    +0.000 OA
ENDBRANCH  12  22
ENDBRANCH   8  19
ENDBRANCH   7  10
ENDBRANCH   1   7
BRANCH   4  23
ATOM     23  C   UNL     1      44.680   3.814  11.781  0.00  0.00    +0.000 C 
BRANCH  23  24
ATOM     24  C   UNL     1      44.603   4.095  10.257  0.00  0.00    +0.000 C 
BRANCH  24  25
ATOM     25  N   UNL     1      43.545   5.088   9.975  0.00  0.00    +0.000 NA
ATOM     26  H   UNL     1      43.712   5.924  10.539  0.00  0.00    +0.000 HD
ATOM     27  H   UNL     1      42.649   4.721  10.295  0.00  0.00    +0.000 HD
ENDBRANCH  24  25
BRANCH  24  28
ATOM     28  C   UNL     1      44.456   2.826   9.381  0.00  0.00    +0.000 C 
BRANCH  28  29
ATOM     29  C   UNL     1      45.532   2.584   8.343  0.00  0.00    +0.000 A 
ATOM     30  C   UNL     1      45.969   3.619   7.501  0.00  0.00    +0.000 A 
ATOM     31  C   UNL     1      46.984   3.395   6.567  0.00  0.00    +0.000 A 
ATOM     32  C   UNL     1      47.571   2.136   6.461  0.00  0.00    +0.000 A 
ATOM     33  C   UNL     1      47.143   1.100   7.287  0.00  0.00    +0.000 A 
ATOM     34  C   UNL     1      46.134   1.325   8.224  0.00  0.00    +0.000 A 
ENDBRANCH  28  29
ENDBRANCH  24  28
ENDBRANCH  23  24
ENDBRANCH   4  23
TORSDOF 9
ENDMDL
MODEL 3
REMARK VINA RESULT:    -7.995      1.802      2.395
REMARK INTER + INTRA:         -13.262
REMARK INTER:                 -12.137
REMARK INTRA:                  -1.125
REMARK UNBOUND:                -1.294
REMARK  Name = 
REMARK  10 active torsions:
REMARK  status: ('A' for Active; 'I' for Inactive)
REMARK    1  A    between atoms: C_1  and  O_2
REMARK    2  A    between atoms: O_2  and  C_3
REMARK    3  A    between atoms: C_10  and  C_11
REMARK    4  A    between atoms: N_13  and  C_14
REMARK    5  A    between atoms: C_14  and  C_15
REMARK    6  A    between atoms: C_18  and  C_19
REMARK    7  A    between atoms: C_19  and  C_20
REMARK    8  A    between atoms: C_20  and  N_21
REMARK    9  A    between atoms: C_20  and  C_22
REMARK   10  A    between atoms: C_22  and  C_23
REMARK                            x       y       z     vdW  Elec       q    Type
REMARK                         _______ _______ _______ _____ _____    ______ ____
ROOT
ATOM      1  C   UNL     1      47.535   6.629  13.300  0.00  0.00    +0.000 A 
ATOM      2  C   UNL     1      46.965   6.920  12.057  0.00  0.00    +0.000 A 
ATOM      3  C   UNL     1      46.062   6.035  11.456  0.00  0.00    +0.000 A 
ATOM      4  C   UNL     1      45.707   4.832  12.080  0.00  0.00    +0.000 A 
ATOM      5  C   UNL     1      46.282   4.538  13.325  0.00  0.00    +0.000 A 
ATOM      6  C   UNL     1      47.189   5.425  13.928  0.00  0.00    +0.000 A 
ENDROOT
BRANCH   1   7
ATOM      7  C   UNL     1      48.484   7.610  13.937  0.00  0.00    +0.000 C 
BRANCH   7  10
ATOM      8  C   UNL     1      49.199   7.080  16.213  0.00  0.00    +0.000 C 
ATOM      9  O   UNL     1      50.162   6.464  15.759  0.00  0.00    +0.000 OA
ATOM     10  N   UNL     1      48.313   7.708  15.371  0.00  0.00    +0.000 N 
ATOM     11  H   UNL     1      47.504   8.196  15.738  0.00  0.00    +0.000 HD
BRANCH   8  19
ATOM     12  C   UNL     1      48.811   4.680  18.673  0.00  0.00    +0.000 A 
ATOM     13  N   UNL     1      48.719   3.981  19.825  0.00  0.00    +0.000 NA
ATOM     14  C   UNL     1      48.606   4.657  20.971  0.00  0.00    +0.000 A 
ATOM     15  N   UNL     1      48.559   5.978  21.113  0.00  0.00    +0.000 NA
ATOM     16  C   UNL     1      48.673   6.636  19.948  0.00  0.00    +0.000 A 
ATOM     17  S   UNL     1      48.603   8.331  19.942  0.00  0.00    +0.000 S 
ATOM     18  C   UNL     1      48.817   8.379  18.259  0.00  0.00    +0.000 A 
ATOM     19  C   UNL     1      48.959   7.129  17.667  0.00  0.00    +0.000 A 
ATOM     20  C   UNL     1      48.832   6.083  18.678  0.00  0.00    +0.000 A 
BRANCH  12  22
ATOM     21  C   UNL     1      47.599   3.571  17.028  0.00  0.00    +0.000 C 
ATOM     22  O   UNL     1      48.893   3.971  17.494  0.00  0.00    +0.000 OA
ENDBRANCH  12  22
ENDBRANCH   8  19
ENDBRANCH   7  10
ENDBRANCH   1   7
BRANCH   4  23
ATOM     23  C   UNL     1      44.666   3.919  11.453  0.00  0.00    +0.000 C 
BRANCH  23  24
ATOM     24  C   UNL     1      44.569   3.984   9.906  0.00  0.00    +0.000 C 
BRANCH  24  25
ATOM     25  N   UNL     1      43.393   4.781   9.500  0.00  0.00    +0.000 NA
ATOM     26  H   UNL     1      43.688   5.498   8.834  0.00  0.00    +0.000 HD
ATOM     27  H   UNL     1      43.041   5.292  10.310  0.00  0.00    +0.000 HD
ENDBRANCH  24  25
BRANCH  24  28
ATOM     28  C   UNL     1      44.602   2.601   9.206  0.00  0.00    +0.000 C 
BRANCH  28  29
ATOM     29  C   UNL     1      45.646   2.405   8.127  0.00  0.00    +0.000 A 
ATOM     30  C   UNL     1      45.916   3.417   7.192  0.00  0.00    +0.000 A 
ATOM     31  C   UNL     1      46.902   3.240   6.218  0.00  0.00    +0.000 A 
ATOM     32  C   UNL     1      47.627   2.051   6.166  0.00  0.00    +0.000 A 
ATOM     33  C   UNL     1      47.366   1.038   7.084  0.00  0.00    +0.000 A 
ATOM     34  C   UNL     1      46.385   1.218   8.061  0.00  0.00    +0.000 A 
ENDBRANCH  28  29
ENDBRANCH  24  28
ENDBRANCH  23  24
ENDBRANCH   4  23
TORSDOF 9
ENDMDL
MODEL 4
REMARK VINA RESULT:    -7.770      2.688      3.535
REMARK INTER + INTRA:         -12.926
REMARK INTER:                 -11.682
REMARK INTRA:                  -1.244
REMARK UNBOUND:                -1.294
REMARK  Name = 
REMARK  10 active torsions:
REMARK  status: ('A' for Active; 'I' for Inactive)
REMARK    1  A    between atoms: C_1  and  O_2
REMARK    2  A    between atoms: O_2  and  C_3
REMARK    3  A    between atoms: C_10  and  C_11
REMARK    4  A    between atoms: N_13  and  C_14
REMARK    5  A    between atoms: C_14  and  C_15
REMARK    6  A    between atoms: C_18  and  C_19
REMARK    7  A    between atoms: C_19  and  C_20
REMARK    8  A    between atoms: C_20  and  N_21
REMARK    9  A    between atoms: C_20  and  C_22
REMARK   10  A    between atoms: C_22  and  C_23
REMARK                            x       y       z     vdW  Elec       q    Type
REMARK                         _______ _______ _______ _____ _____    ______ ____
ROOT
ATOM      1  C   UNL     1      47.488   6.210  13.619  0.00  0.00    +0.000 A 
ATOM      2  C   UNL     1      47.130   4.930  14.053  0.00  0.00    +0.000 A 
ATOM      3  C   UNL     1      46.148   4.193  13.382  0.00  0.00    +0.000 A 
ATOM      4  C   UNL     1      45.492   4.717  12.260  0.00  0.00    +0.000 A 
ATOM      5  C   UNL     1      45.849   6.003  11.828  0.00  0.00    +0.000 A 
ATOM      6  C   UNL     1      46.833   6.743  12.501  0.00  0.00    +0.000 A 
ENDROOT
BRANCH   1   7
ATOM      7  C   UNL     1      48.568   6.972  14.344  0.00  0.00    +0.000 C 
BRANCH   7  10
ATOM      8  C   UNL     1      48.855   6.505  16.725  0.00  0.00    +0.000 C 
ATOM      9  O   UNL     1      49.712   5.665  16.449  0.00  0.00    +0.000 OA
ATOM     10  N   UNL     1      48.241   7.227  15.731  0.00  0.00    +0.000 N 
ATOM     11  H   UNL     1      47.517   7.902  15.950  0.00  0.00    +0.000 HD
BRANCH   8  19
ATOM     12  C   UNL     1      48.214   9.321  18.628  0.00  0.00    +0.000 A 
ATOM     13  N   UNL     1      47.823  10.217  19.561  0.00  0.00    +0.000 NA
ATOM     14  C   UNL     1      47.420   9.762  20.749  0.00  0.00    +0.000 A 
ATOM     15  N   UNL     1      47.369   8.492  21.138  0.00  0.00    +0.000 NA
ATOM     16  C   UNL     1      47.748   7.633  20.178  0.00  0.00    +0.000 A 
ATOM     17  S   UNL     1      47.772   5.971  20.515  0.00  0.00    +0.000 S 
ATOM     18  C   UNL     1      48.295   5.613  18.941  0.00  0.00    +0.000 A 
ATOM     19  C   UNL     1      48.450   6.728  18.124  0.00  0.00    +0.000 A 
ATOM     20  C   UNL     1      48.159   7.942  18.882  0.00  0.00    +0.000 A 
BRANCH  12  22
ATOM     21  C   UNL     1      50.078  10.007  17.420  0.00  0.00    +0.000 C 
ATOM     22  O   UNL     1      48.661   9.805  17.417  0.00  0.00    +0.000 OA
ENDBRANCH  12  22
ENDBRANCH   8  19
ENDBRANCH   7  10
ENDBRANCH   1   7
BRANCH   4  23
ATOM     23  C   UNL     1      44.485   3.874  11.496  0.00  0.00    +0.000 C 
BRANCH  23  24
ATOM     24  C   UNL     1      44.618   3.916   9.950  0.00  0.00    +0.000 C 
BRANCH  24  25
ATOM     25  N   UNL     1      43.494   4.674   9.362  0.00  0.00    +0.000 NA
ATOM     26  H   UNL     1      43.810   5.620   9.138  0.00  0.00    +0.000 HD
ATOM     27  H   UNL     1      42.765   4.791  10.066  0.00  0.00    +0.000 HD
ENDBRANCH  24  25
BRANCH  24  28
ATOM     28  C   UNL     1      44.792   2.526   9.287  0.00  0.00    +0.000 C 
BRANCH  28  29
ATOM     29  C   UNL     1      45.810   2.424   8.170  0.00  0.00    +0.000 A 
ATOM     30  C   UNL     1      46.483   1.219   7.916  0.00  0.00    +0.000 A 
ATOM     31  C   UNL     1      47.398   1.124   6.864  0.00  0.00    +0.000 A 
ATOM     32  C   UNL     1      47.653   2.232   6.058  0.00  0.00    +0.000 A 
ATOM     33  C   UNL     1      46.996   3.434   6.304  0.00  0.00    +0.000 A 
ATOM     34  C   UNL     1      46.077   3.527   7.350  0.00  0.00    +0.000 A 
ENDBRANCH  28  29
ENDBRANCH  24  28
ENDBRANCH  23  24
ENDBRANCH   4  23
TORSDOF 9
ENDMDL
MODEL 5
REMARK VINA RESULT:    -7.289      1.850      2.338
REMARK INTER + INTRA:         -12.205
REMARK INTER:                 -11.235
REMARK INTRA:                  -0.970
REMARK UNBOUND:                -1.294
REMARK  Name = 
REMARK  10 active torsions:
REMARK  status: ('A' for Active; 'I' for Inactive)
REMARK    1  A    between atoms: C_1  and  O_2
REMARK    2  A    between atoms: O_2  and  C_3
REMARK    3  A    between atoms: C_10  and  C_11
REMARK    4  A    between atoms: N_13  and  C_14
REMARK    5  A    between atoms: C_14  and  C_15
REMARK    6  A    between atoms: C_18  and  C_19
REMARK    7  A    between atoms: C_19  and  C_20
REMARK    8  A    between atoms: C_20  and  N_21
REMARK    9  A    between atoms: C_20  and  C_22
REMARK   10  A    between atoms: C_22  and  C_23
REMARK                            x       y       z     vdW  Elec       q    Type
REMARK                         _______ _______ _______ _____ _____    ______ ____
ROOT
ATOM      1  C   UNL     1      47.530   7.128  13.264  0.00  0.00    +0.000 A 
ATOM      2  C   UNL     1      47.186   5.993  14.006  0.00  0.00    +0.000 A 
ATOM      3  C   UNL     1      46.346   5.011  13.469  0.00  0.00    +0.000 A 
ATOM      4  C   UNL     1      45.823   5.138  12.175  0.00  0.00    +0.000 A 
ATOM      5  C   UNL     1      46.165   6.277  11.433  0.00  0.00    +0.000 A 
ATOM      6  C   UNL     1      47.007   7.263  11.972  0.00  0.00    +0.000 A 
ENDROOT
BRANCH   1   7
ATOM      7  C   UNL     1      48.457   8.157  13.856  0.00  0.00    +0.000 C 
BRANCH   7  10
ATOM      8  C   UNL     1      50.645   7.607  14.795  0.00  0.00    +0.000 C 
ATOM      9  O   UNL     1      51.185   8.073  13.792  0.00  0.00    +0.000 OA
ATOM     10  N   UNL     1      49.278   7.626  14.924  0.00  0.00    +0.000 N 
ATOM     11  H   UNL     1      48.827   7.221  15.737  0.00  0.00    +0.000 HD
BRANCH   8  19
ATOM     12  C   UNL     1      49.938   5.498  17.444  0.00  0.00    +0.000 A 
ATOM     13  N   UNL     1      49.970   4.627  18.477  0.00  0.00    +0.000 NA
ATOM     14  C   UNL     1      51.148   4.358  19.045  0.00  0.00    +0.000 A 
ATOM     15  N   UNL     1      52.327   4.873  18.711  0.00  0.00    +0.000 NA
ATOM     16  C   UNL     1      52.255   5.719  17.671  0.00  0.00    +0.000 A 
ATOM     17  S   UNL     1      53.666   6.491  17.131  0.00  0.00    +0.000 S 
ATOM     18  C   UNL     1      52.812   7.294  15.904  0.00  0.00    +0.000 A 
ATOM     19  C   UNL     1      51.455   6.991  15.862  0.00  0.00    +0.000 A 
ATOM     20  C   UNL     1      51.117   6.076  16.949  0.00  0.00    +0.000 A 
BRANCH  12  22
ATOM     21  C   UNL     1      47.710   4.854  17.289  0.00  0.00    +0.000 C 
ATOM     22  O   UNL     1      48.712   5.794  16.888  0.00  0.00    +0.000 OA
ENDBRANCH  12  22
ENDBRANCH   8  19
ENDBRANCH   7  10
ENDBRANCH   1   7
BRANCH   4  23
ATOM     23  C   UNL     1      44.976   4.026  11.577  0.00  0.00    +0.000 C 
BRANCH  23  24
ATOM     24  C   UNL     1      44.661   4.170  10.065  0.00  0.00    +0.000 C 
BRANCH  24  25
ATOM     25  N   UNL     1      43.463   5.014   9.872  0.00  0.00    +0.000 NA
ATOM     26  H   UNL     1      43.413   5.305   8.892  0.00  0.00    +0.000 HD
ATOM     27  H   UNL     1      43.573   5.877  10.405  0.00  0.00    +0.000 HD
ENDBRANCH  24  25
BRANCH  24  28
ATOM     28  C   UNL     1      44.550   2.824   9.305  0.00  0.00    +0.000 C 
BRANCH  28  29
ATOM     29  C   UNL     1      45.600   2.547   8.248  0.00  0.00    +0.000 A 
ATOM     30  C   UNL     1      46.250   1.305   8.185  0.00  0.00    +0.000 A 
ATOM     31  C   UNL     1      47.195   1.047   7.189  0.00  0.00    +0.000 A 
ATOM     32  C   UNL     1      47.502   2.027   6.247  0.00  0.00    +0.000 A 
ATOM     33  C   UNL     1      46.868   3.265   6.302  0.00  0.00    +0.000 A 
ATOM     34  C   UNL     1      45.919   3.520   7.293  0.00  0.00    +0.000 A 
ENDBRANCH  28  29
ENDBRANCH  24  28
ENDBRANCH  23  24
ENDBRANCH   4  23
TORSDOF 9
ENDMDL
MODEL 6
REMARK VINA RESULT:    -7.080      3.246      7.840
REMARK INTER + INTRA:         -11.893
REMARK INTER:                  -9.839
REMARK INTRA:                  -2.054
REMARK UNBOUND:                -1.294
REMARK  Name = 
REMARK  10 active torsions:
REMARK  status: ('A' for Active; 'I' for Inactive)
REMARK    1  A    between atoms: C_1  and  O_2
REMARK    2  A    between atoms: O_2  and  C_3
REMARK    3  A    between atoms: C_10  and  C_11
REMARK    4  A    between atoms: N_13  and  C_14
REMARK    5  A    between atoms: C_14  and  C_15
REMARK    6  A    between atoms: C_18  and  C_19
REMARK    7  A    between atoms: C_19  and  C_20
REMARK    8  A    between atoms: C_20  and  N_21
REMARK    9  A    between atoms: C_20  and  C_22
REMARK   10  A    between atoms: C_22  and  C_23
REMARK                            x       y       z     vdW  Elec       q    Type
REMARK                         _______ _______ _______ _____ _____    ______ ____
ROOT
ATOM      1  C   UNL     1      48.373   7.985  13.604  0.00  0.00    +0.000 A 
ATOM      2  C   UNL     1      48.037   9.002  14.503  0.00  0.00    +0.000 A 
ATOM      3  C   UNL     1      48.272   8.854  15.876  0.00  0.00    +0.000 A 
ATOM      4  C   UNL     1      48.844   7.683  16.387  0.00  0.00    +0.000 A 
ATOM      5  C   UNL     1      49.177   6.661  15.486  0.00  0.00    +0.000 A 
ATOM      6  C   UNL     1      48.941   6.809  14.110  0.00  0.00    +0.000 A 
ENDROOT
BRANCH   1   7
ATOM      7  C   UNL     1      48.135   8.181  12.129  0.00  0.00    +0.000 C 
BRANCH   7  10
ATOM      8  C   UNL     1      46.181   6.935  11.355  0.00  0.00    +0.000 C 
ATOM      9  O   UNL     1      45.455   7.857  11.728  0.00  0.00    +0.000 OA
ATOM     10  N   UNL     1      47.544   7.021  11.497  0.00  0.00    +0.000 N 
ATOM     11  H   UNL     1      48.145   6.254  11.214  0.00  0.00    +0.000 HD
BRANCH   8  19
ATOM     12  C   UNL     1      44.465   4.234  12.668  0.00  0.00    +0.000 A 
ATOM     13  N   UNL     1      43.713   3.133  12.884  0.00  0.00    +0.000 NA
ATOM     14  C   UNL     1      43.378   2.377  11.836  0.00  0.00    +0.000 A 
ATOM     15  N   UNL     1      43.718   2.582  10.568  0.00  0.00    +0.000 NA
ATOM     16  C   UNL     1      44.448   3.695  10.393  0.00  0.00    +0.000 A 
ATOM     17  S   UNL     1      44.994   4.093   8.837  0.00  0.00    +0.000 S 
ATOM     18  C   UNL     1      45.750   5.500   9.412  0.00  0.00    +0.000 A 
ATOM     19  C   UNL     1      45.597   5.710  10.779  0.00  0.00    +0.000 A 
ATOM     20  C   UNL     1      44.850   4.604  11.371  0.00  0.00    +0.000 A 
BRANCH  12  22
ATOM     21  C   UNL     1      46.164   4.679  14.191  0.00  0.00    +0.000 C 
ATOM     22  O   UNL     1      44.834   4.988  13.763  0.00  0.00    +0.000 OA
ENDBRANCH  12  22
ENDBRANCH   8  19
ENDBRANCH   7  10
ENDBRANCH   1   7
BRANCH   4  23
ATOM     23  C   UNL     1      49.165   7.568  17.869  0.00  0.00    +0.000 C 
BRANCH  23  24
ATOM     24  C   UNL     1      48.014   7.028  18.759  0.00  0.00    +0.000 C 
BRANCH  24  25
ATOM     25  N   UNL     1      47.625   8.043  19.761  0.00  0.00    +0.000 NA
ATOM     26  H   UNL     1      48.317   8.052  20.514  0.00  0.00    +0.000 HD
ATOM     27  H   UNL     1      46.750   7.759  20.201  0.00  0.00    +0.000 HD
ENDBRANCH  24  25
BRANCH  24  28
ATOM     28  C   UNL     1      48.303   5.652  19.410  0.00  0.00    +0.000 C 
BRANCH  28  29
ATOM     29  C   UNL     1      48.599   4.500  18.471  0.00  0.00    +0.000 A 
ATOM     30  C   UNL     1      47.578   3.910  17.710  0.00  0.00    +0.000 A 
ATOM     31  C   UNL     1      47.865   2.868  16.824  0.00  0.00    +0.000 A 
ATOM     32  C   UNL     1      49.171   2.403  16.691  0.00  0.00    +0.000 A 
ATOM     33  C   UNL     1      50.192   2.977  17.445  0.00  0.00    +0.000 A 
ATOM     34  C   UNL     1      49.907   4.022  18.325  0.00  0.00    +0.000 A 
ENDBRANCH  28  29
ENDBRANCH  24  28
ENDBRANCH  23  24
ENDBRANCH   4  23
TORSDOF 9
ENDMDL
MODEL 7
REMARK VINA RESULT:    -6.990      3.468      9.586
REMARK INTER + INTRA:         -11.758
REMARK INTER:                  -9.685
REMARK INTRA:                  -2.073
REMARK UNBOUND:                -1.294
REMARK  Name = 
REMARK  10 active torsions:
REMARK  status: ('A' for Active; 'I' for Inactive)
REMARK    1  A    between atoms: C_1  and  O_2
REMARK    2  A    between atoms: O_2  and  C_3
REMARK    3  A    between atoms: C_10  and  C_11
REMARK    4  A    between atoms: N_13  and  C_14
REMARK    5  A    between atoms: C_14  and  C_15
REMARK    6  A    between atoms: C_18  and  C_19
REMARK    7  A    between atoms: C_19  and  C_20
REMARK    8  A    between atoms: C_20  and  N_21
REMARK    9  A    between atoms: C_20  and  C_22
REMARK   10  A    between atoms: C_22  and  C_23
REMARK                            x       y       z     vdW  Elec       q    Type
REMARK                         _______ _______ _______ _____ _____    ______ ____
ROOT
ATOM      1  C   UNL     1      48.780   3.858  17.027  0.00  0.00    +0.000 A 
ATOM      2  C   UNL     1      49.179   5.197  16.958  0.00  0.00    +0.000 A 
ATOM      3  C   UNL     1      50.469   5.583  17.341  0.00  0.00    +0.000 A 
ATOM      4  C   UNL     1      51.395   4.641  17.807  0.00  0.00    +0.000 A 
ATOM      5  C   UNL     1      50.994   3.299  17.879  0.00  0.00    +0.000 A 
ATOM      6  C   UNL     1      49.700   2.911  17.497  0.00  0.00    +0.000 A 
ENDROOT
BRANCH   1   7
ATOM      7  C   UNL     1      47.394   3.466  16.584  0.00  0.00    +0.000 C 
BRANCH   7  10
ATOM      8  C   UNL     1      46.797   4.259  14.352  0.00  0.00    +0.000 C 
ATOM      9  O   UNL     1      47.292   3.242  13.866  0.00  0.00    +0.000 OA
ATOM     10  N   UNL     1      46.784   4.447  15.712  0.00  0.00    +0.000 N 
ATOM     11  H   UNL     1      46.401   5.295  16.116  0.00  0.00    +0.000 HD
BRANCH   8  19
ATOM     12  C   UNL     1      43.841   4.609  12.591  0.00  0.00    +0.000 A 
ATOM     13  N   UNL     1      42.768   5.046  11.896  0.00  0.00    +0.000 NA
ATOM     14  C   UNL     1      42.816   6.265  11.353  0.00  0.00    +0.000 A 
ATOM     15  N   UNL     1      43.833   7.119  11.407  0.00  0.00    +0.000 NA
ATOM     16  C   UNL     1      44.871   6.655  12.121  0.00  0.00    +0.000 A 
ATOM     17  S   UNL     1      46.268   7.607  12.268  0.00  0.00    +0.000 S 
ATOM     18  C   UNL     1      47.022   6.432  13.234  0.00  0.00    +0.000 A 
ATOM     19  C   UNL     1      46.239   5.309  13.480  0.00  0.00    +0.000 A 
ATOM     20  C   UNL     1      44.965   5.428  12.777  0.00  0.00    +0.000 A 
BRANCH  12  22
ATOM     21  C   UNL     1      43.466   2.363  12.119  0.00  0.00    +0.000 C 
ATOM     22  O   UNL     1      43.793   3.336  13.118  0.00  0.00    +0.000 OA
ENDBRANCH  12  22
ENDBRANCH   8  19
ENDBRANCH   7  10
ENDBRANCH   1   7
BRANCH   4  23
ATOM     23  C   UNL     1      52.816   5.062  18.143  0.00  0.00    +0.000 C 
BRANCH  23  24
ATOM     24  C   UNL     1      52.951   6.081  19.306  0.00  0.00    +0.000 C 
BRANCH  24  25
ATOM     25  N   UNL     1      54.371   6.432  19.515  0.00  0.00    +0.000 NA
ATOM     26  H   UNL     1      54.878   5.601  19.830  0.00  0.00    +0.000 HD
ATOM     27  H   UNL     1      54.441   7.098  20.284  0.00  0.00    +0.000 HD
ENDBRANCH  24  25
BRANCH  24  28
ATOM     28  C   UNL     1      52.263   5.640  20.623  0.00  0.00    +0.000 C 
BRANCH  28  29
ATOM     29  C   UNL     1      50.771   5.882  20.730  0.00  0.00    +0.000 A 
ATOM     30  C   UNL     1      50.226   7.150  20.471  0.00  0.00    +0.000 A 
ATOM     31  C   UNL     1      48.846   7.358  20.541  0.00  0.00    +0.000 A 
ATOM     32  C   UNL     1      47.997   6.304  20.874  0.00  0.00    +0.000 A 
ATOM     33  C   UNL     1      48.526   5.044  21.138  0.00  0.00    +0.000 A 
ATOM     34  C   UNL     1      49.904   4.834  21.061  0.00  0.00    +0.000 A 
ENDBRANCH  28  29
ENDBRANCH  24  28
ENDBRANCH  23  24
ENDBRANCH   4  23
TORSDOF 9
ENDMDL
MODEL 8
REMARK VINA RESULT:    -6.951      3.470      8.779
REMARK INTER + INTRA:         -11.699
REMARK INTER:                  -9.122
REMARK INTRA:                  -2.577
REMARK UNBOUND:                -1.294
REMARK  Name = 
REMARK  10 active torsions:
REMARK  status: ('A' for Active; 'I' for Inactive)
REMARK    1  A    between atoms: C_1  and  O_2
REMARK    2  A    between atoms: O_2  and  C_3
REMARK    3  A    between atoms: C_10  and  C_11
REMARK    4  A    between atoms: N_13  and  C_14
REMARK    5  A    between atoms: C_14  and  C_15
REMARK    6  A    between atoms: C_18  and  C_19
REMARK    7  A    between atoms: C_19  and  C_20
REMARK    8  A    between atoms: C_20  and  N_21
REMARK    9  A    between atoms: C_20  and  C_22
REMARK   10  A    between atoms: C_22  and  C_23
REMARK                            x       y       z     vdW  Elec       q    Type
REMARK                         _______ _______ _______ _____ _____    ______ ____
ROOT
ATOM      1  C   UNL     1      48.482   3.641  17.553  0.00  0.00    +0.000 A 
ATOM      2  C   UNL     1      48.450   4.480  18.670  0.00  0.00    +0.000 A 
ATOM      3  C   UNL     1      49.630   4.835  19.336  0.00  0.00    +0.000 A 
ATOM      4  C   UNL     1      50.874   4.355  18.905  0.00  0.00    +0.000 A 
ATOM      5  C   UNL     1      50.904   3.510  17.786  0.00  0.00    +0.000 A 
ATOM      6  C   UNL     1      49.722   3.153  17.119  0.00  0.00    +0.000 A 
ENDROOT
BRANCH   1   7
ATOM      7  C   UNL     1      47.201   3.296  16.839  0.00  0.00    +0.000 C 
BRANCH   7  10
ATOM      8  C   UNL     1      46.895   4.128  14.562  0.00  0.00    +0.000 C 
ATOM      9  O   UNL     1      47.325   3.061  14.122  0.00  0.00    +0.000 OA
ATOM     10  N   UNL     1      46.777   4.327  15.916  0.00  0.00    +0.000 N 
ATOM     11  H   UNL     1      46.447   5.213  16.284  0.00  0.00    +0.000 HD
BRANCH   8  19
ATOM     12  C   UNL     1      44.066   4.887  12.722  0.00  0.00    +0.000 A 
ATOM     13  N   UNL     1      43.091   5.466  11.988  0.00  0.00    +0.000 NA
ATOM     14  C   UNL     1      43.346   6.641  11.407  0.00  0.00    +0.000 A 
ATOM     15  N   UNL     1      44.487   7.321  11.457  0.00  0.00    +0.000 NA
ATOM     16  C   UNL     1      45.423   6.722  12.210  0.00  0.00    +0.000 A 
ATOM     17  S   UNL     1      46.953   7.440  12.359  0.00  0.00    +0.000 S 
ATOM     18  C   UNL     1      47.489   6.195  13.380  0.00  0.00    +0.000 A 
ATOM     19  C   UNL     1      46.530   5.222  13.644  0.00  0.00    +0.000 A 
ATOM     20  C   UNL     1      45.304   5.520  12.908  0.00  0.00    +0.000 A 
BRANCH  12  22
ATOM     21  C   UNL     1      43.536   2.664  12.293  0.00  0.00    +0.000 C 
ATOM     22  O   UNL     1      43.803   3.658  13.288  0.00  0.00    +0.000 OA
ENDBRANCH  12  22
ENDBRANCH   8  19
ENDBRANCH   7  10
ENDBRANCH   1   7
BRANCH   4  23
ATOM     23  C   UNL     1      52.152   4.811  19.590  0.00  0.00    +0.000 C 
BRANCH  23  24
ATOM     24  C   UNL     1      53.179   5.526  18.673  0.00  0.00    +0.000 C 
BRANCH  24  25
ATOM     25  N   UNL     1      54.545   5.361  19.212  0.00  0.00    +0.000 NA
ATOM     26  H   UNL     1      54.623   5.880  20.090  0.00  0.00    +0.000 HD
ATOM     27  H   UNL     1      55.211   5.803  18.578  0.00  0.00    +0.000 HD
ENDBRANCH  24  25
BRANCH  24  28
ATOM     28  C   UNL     1      52.847   7.011  18.379  0.00  0.00    +0.000 C 
BRANCH  28  29
ATOM     29  C   UNL     1      51.564   7.288  17.623  0.00  0.00    +0.000 A 
ATOM     30  C   UNL     1      51.366   6.781  16.329  0.00  0.00    +0.000 A 
ATOM     31  C   UNL     1      50.167   7.016  15.650  0.00  0.00    +0.000 A 
ATOM     32  C   UNL     1      49.157   7.761  16.254  0.00  0.00    +0.000 A 
ATOM     33  C   UNL     1      49.343   8.274  17.534  0.00  0.00    +0.000 A 
ATOM     34  C   UNL     1      50.538   8.034  18.215  0.00  0.00    +0.000 A 
ENDBRANCH  28  29
ENDBRANCH  24  28
ENDBRANCH  23  24
ENDBRANCH   4  23
TORSDOF 9
ENDMDL
MODEL 9
REMARK VINA RESULT:    -6.903      2.022      2.753
REMARK INTER + INTRA:         -11.627
REMARK INTER:                 -10.417
REMARK INTRA:                  -1.210
REMARK UNBOUND:                -1.294
REMARK  Name = 
REMARK  10 active torsions:
REMARK  status: ('A' for Active; 'I' for Inactive)
REMARK    1  A    between atoms: C_1  and  O_2
REMARK    2  A    between atoms: O_2  and  C_3
REMARK    3  A    between atoms: C_10  and  C_11
REMARK    4  A    between atoms: N_13  and  C_14
REMARK    5  A    between atoms: C_14  and  C_15
REMARK    6  A    between atoms: C_18  and  C_19
REMARK    7  A    between atoms: C_19  and  C_20
REMARK    8  A    between atoms: C_20  and  N_21
REMARK    9  A    between atoms: C_20  and  C_22
REMARK   10  A    between atoms: C_22  and  C_23
REMARK                            x       y       z     vdW  Elec       q    Type
REMARK                         _______ _______ _______ _____ _____    ______ ____
ROOT
ATOM      1  C   UNL     1      47.320   6.851  13.488  0.00  0.00    +0.000 A 
ATOM      2  C   UNL     1      46.703   6.929  12.235  0.00  0.00    +0.000 A 
ATOM      3  C   UNL     1      46.061   5.816  11.680  0.00  0.00    +0.000 A 
ATOM      4  C   UNL     1      46.021   4.592  12.360  0.00  0.00    +0.000 A 
ATOM      5  C   UNL     1      46.643   4.513  13.614  0.00  0.00    +0.000 A 
ATOM      6  C   UNL     1      47.288   5.628  14.172  0.00  0.00    +0.000 A 
ENDROOT
BRANCH   1   7
ATOM      7  C   UNL     1      47.981   8.071  14.075  0.00  0.00    +0.000 C 
BRANCH   7  10
ATOM      8  C   UNL     1      48.909   8.295  16.323  0.00  0.00    +0.000 C 
ATOM      9  O   UNL     1      47.975   9.036  16.628  0.00  0.00    +0.000 OA
ATOM     10  N   UNL     1      48.983   7.745  15.067  0.00  0.00    +0.000 N 
ATOM     11  H   UNL     1      49.764   7.154  14.803  0.00  0.00    +0.000 HD
BRANCH   8  19
ATOM     12  C   UNL     1      49.493   5.753  18.595  0.00  0.00    +0.000 A 
ATOM     13  N   UNL     1      50.012   4.871  19.478  0.00  0.00    +0.000 NA
ATOM     14  C   UNL     1      51.206   5.137  20.015  0.00  0.00    +0.000 A 
ATOM     15  N   UNL     1      51.959   6.208  19.785  0.00  0.00    +0.000 NA
ATOM     16  C   UNL     1      51.417   7.049  18.890  0.00  0.00    +0.000 A 
ATOM     17  S   UNL     1      52.234   8.485  18.501  0.00  0.00    +0.000 S 
ATOM     18  C   UNL     1      51.019   8.931  17.402  0.00  0.00    +0.000 A 
ATOM     19  C   UNL     1      49.984   8.010  17.292  0.00  0.00    +0.000 A 
ATOM     20  C   UNL     1      50.206   6.900  18.216  0.00  0.00    +0.000 A 
BRANCH  12  22
ATOM     21  C   UNL     1      47.203   5.984  18.917  0.00  0.00    +0.000 C 
ATOM     22  O   UNL     1      48.246   5.484  18.074  0.00  0.00    +0.000 OA
ENDBRANCH  12  22
ENDBRANCH   8  19
ENDBRANCH   7  10
ENDBRANCH   1   7
BRANCH   4  23
ATOM     23  C   UNL     1      45.253   3.416  11.780  0.00  0.00    +0.000 C 
BRANCH  23  24
ATOM     24  C   UNL     1      43.866   3.760  11.174  0.00  0.00    +0.000 C 
BRANCH  24  25
ATOM     25  N   UNL     1      42.872   2.738  11.563  0.00  0.00    +0.000 NA
ATOM     26  H   UNL     1      42.098   3.194  12.052  0.00  0.00    +0.000 HD
ATOM     27  H   UNL     1      43.291   2.108  12.248  0.00  0.00    +0.000 HD
ENDBRANCH  24  25
BRANCH  24  28
ATOM     28  C   UNL     1      43.881   4.001   9.643  0.00  0.00    +0.000 C 
BRANCH  28  29
ATOM     29  C   UNL     1      44.982   3.323   8.854  0.00  0.00    +0.000 A 
ATOM     30  C   UNL     1      45.157   1.931   8.909  0.00  0.00    +0.000 A 
ATOM     31  C   UNL     1      46.155   1.310   8.155  0.00  0.00    +0.000 A 
ATOM     32  C   UNL     1      46.991   2.071   7.341  0.00  0.00    +0.000 A 
ATOM     33  C   UNL     1      46.831   3.453   7.282  0.00  0.00    +0.000 A 
ATOM     34  C   UNL     1      45.829   4.073   8.030  0.00  0.00    +0.000 A 
ENDBRANCH  28  29
ENDBRANCH  24  28
ENDBRANCH  23  24
ENDBRANCH   4  23
TORSDOF 9
ENDMDL
