MODEL 1
REMARK VINA RESULT:    -7.638      0.000      0.000
REMARK INTER + INTRA:         -10.500
REMARK INTER:                 -10.093
REMARK INTRA:                  -0.407
REMARK UNBOUND:                -0.407
REMARK  Name = 
REMARK  9 active torsions:
REMARK  status: ('A' for Active; 'I' for Inactive)
REMARK    1  A    between atoms: C_1  and  C_2
REMARK    2  A    between atoms: C_2  and  C_3
REMARK    3  A    between atoms: C_2  and  C_4
REMARK    4  A    between atoms: C_2  and  C_5
REMARK    5  A    between atoms: N_7  and  C_8
REMARK    6  A    between atoms: C_8  and  C_9
REMARK    7  A    between atoms: C_12  and  C_13
REMARK    8  A    between atoms: C_13  and  C_14
REMARK    9  A    between atoms: C_14  and  N_15
REMARK                            x       y       z     vdW  Elec       q    Type
REMARK                         _______ _______ _______ _____ _____    ______ ____
ROOT
ATOM      1  C   UNL     1      46.109   7.204  12.173  0.00  0.00    +0.000 A 
ATOM      2  C   UNL     1      45.107   6.920  11.258  0.00  0.00    +0.000 A 
ATOM      3  N   UNL     1      44.818   5.579  11.300  0.00  0.00    +0.000 N 
ATOM      4  C   UNL     1      45.598   4.962  12.253  0.00  0.00    +0.000 A 
ATOM      5  C   UNL     1      45.657   3.616  12.658  0.00  0.00    +0.000 A 
ATOM      6  C   UNL     1      46.560   3.262  13.663  0.00  0.00    +0.000 A 
ATOM      7  C   UNL     1      47.377   4.218  14.250  0.00  0.00    +0.000 A 
ATOM      8  C   UNL     1      47.312   5.554  13.839  0.00  0.00    +0.000 A 
ATOM      9  C   UNL     1      46.411   5.949  12.823  0.00  0.00    +0.000 A 
ENDROOT
BRANCH   1  11
ATOM     10  C   UNL     1      47.010   8.841  13.908  0.00  0.00    +0.000 C 
ATOM     11  C   UNL     1      46.781   8.561  12.404  0.00  0.00    +0.000 C 
ATOM     12  C   UNL     1      45.886   9.692  11.859  0.00  0.00    +0.000 C 
ATOM     13  C   UNL     1      48.164   8.626  11.722  0.00  0.00    +0.000 C 
ENDBRANCH   1  11
BRANCH   3  14
ATOM     14  C   UNL     1      43.882   4.909  10.400  0.00  0.00    +0.000 C 
BRANCH  14  15
ATOM     15  C   UNL     1      44.601   4.000   9.445  0.00  0.00    +0.000 A 
ATOM     16  C   UNL     1      44.474   2.619   9.549  0.00  0.00    +0.000 A 
ATOM     17  N   UNL     1      45.193   1.752   8.797  0.00  0.00    +0.000 NA
ATOM     18  C   UNL     1      46.085   2.309   7.941  0.00  0.00    +0.000 A 
ATOM     19  C   UNL     1      46.170   3.689   7.793  0.00  0.00    +0.000 A 
ATOM     20  N   UNL     1      45.428   4.556   8.522  0.00  0.00    +0.000 NA
BRANCH  18  21
ATOM     21  C   UNL     1      47.045   1.389   7.235  0.00  0.00    +0.000 C 
BRANCH  21  22
ATOM     22  C   UNL     1      48.288   2.102   6.705  0.00  0.00    +0.000 C 
BRANCH  22  23
ATOM     23  N   UNL     1      48.376   1.964   5.250  0.00  0.00    +0.000 NA
ATOM     24  H   UNL     1      48.625   1.008   4.999  0.00  0.00    +0.000 HD
ATOM     25  H   UNL     1      49.121   2.561   4.892  0.00  0.00    +0.000 HD
ENDBRANCH  22  23
ENDBRANCH  21  22
ENDBRANCH  18  21
ENDBRANCH  14  15
ENDBRANCH   3  14
TORSDOF 6
ENDMDL
MODEL 2
REMARK VINA RESULT:    -7.133      1.107      3.091
REMARK INTER + INTRA:          -9.833
REMARK INTER:                  -9.555
REMARK INTRA:                  -0.278
REMARK UNBOUND:                -0.407
REMARK  Name = 
REMARK  9 active torsions:
REMARK  status: ('A' for Active; 'I' for Inactive)
REMARK    1  A    between atoms: C_1  and  C_2
REMARK    2  A    between atoms: C_2  and  C_3
REMARK    3  A    between atoms: C_2  and  C_4
REMARK    4  A    between atoms: C_2  and  C_5
REMARK    5  A    between atoms: N_7  and  C_8
REMARK    6  A    between atoms: C_8  and  C_9
REMARK    7  A    between atoms: C_12  and  C_13
REMARK    8  A    between atoms: C_13  and  C_14
REMARK    9  A    between atoms: C_14  and  N_15
REMARK                            x       y       z     vdW  Elec       q    Type
REMARK                         _______ _______ _______ _____ _____    ______ ____
ROOT
ATOM      1  C   UNL     1      46.500   6.913  12.517  0.00  0.00    +0.000 A 
ATOM      2  C   UNL     1      45.902   5.765  12.021  0.00  0.00    +0.000 A 
ATOM      3  N   UNL     1      44.754   6.104  11.348  0.00  0.00    +0.000 N 
ATOM      4  C   UNL     1      44.588   7.471  11.366  0.00  0.00    +0.000 A 
ATOM      5  C   UNL     1      43.578   8.278  10.812  0.00  0.00    +0.000 A 
ATOM      6  C   UNL     1      43.660   9.661  10.988  0.00  0.00    +0.000 A 
ATOM      7  C   UNL     1      44.716  10.224  11.690  0.00  0.00    +0.000 A 
ATOM      8  C   UNL     1      45.715   9.413  12.238  0.00  0.00    +0.000 A 
ATOM      9  C   UNL     1      45.664   8.008  12.081  0.00  0.00    +0.000 A 
ENDROOT
BRANCH   1  11
ATOM     10  C   UNL     1      49.049   6.988  12.533  0.00  0.00    +0.000 C 
ATOM     11  C   UNL     1      47.759   6.987  13.387  0.00  0.00    +0.000 C 
ATOM     12  C   UNL     1      47.828   5.762  14.320  0.00  0.00    +0.000 C 
ATOM     13  C   UNL     1      47.782   8.278  14.232  0.00  0.00    +0.000 C 
ENDBRANCH   1  11
BRANCH   3  14
ATOM     14  C   UNL     1      43.817   5.138  10.780  0.00  0.00    +0.000 C 
BRANCH  14  15
ATOM     15  C   UNL     1      44.495   4.243   9.782  0.00  0.00    +0.000 A 
ATOM     16  C   UNL     1      44.396   2.861   9.886  0.00  0.00    +0.000 A 
ATOM     17  N   UNL     1      45.085   2.008   9.091  0.00  0.00    +0.000 NA
ATOM     18  C   UNL     1      45.919   2.582   8.189  0.00  0.00    +0.000 A 
ATOM     19  C   UNL     1      45.974   3.963   8.042  0.00  0.00    +0.000 A 
ATOM     20  N   UNL     1      45.260   4.816   8.816  0.00  0.00    +0.000 NA
BRANCH  18  21
ATOM     21  C   UNL     1      46.852   1.680   7.426  0.00  0.00    +0.000 C 
BRANCH  21  22
ATOM     22  C   UNL     1      48.044   2.417   6.818  0.00  0.00    +0.000 C 
BRANCH  22  23
ATOM     23  N   UNL     1      48.387   1.847   5.513  0.00  0.00    +0.000 NA
ATOM     24  H   UNL     1      47.829   1.013   5.333  0.00  0.00    +0.000 HD
ATOM     25  H   UNL     1      49.362   1.549   5.514  0.00  0.00    +0.000 HD
ENDBRANCH  22  23
ENDBRANCH  21  22
ENDBRANCH  18  21
ENDBRANCH  14  15
ENDBRANCH   3  14
TORSDOF 6
ENDMDL
MODEL 3
REMARK VINA RESULT:    -6.441      1.704      2.902
REMARK INTER + INTRA:          -8.919
REMARK INTER:                  -8.908
REMARK INTRA:                  -0.011
REMARK UNBOUND:                -0.407
REMARK  Name = 
REMARK  9 active torsions:
REMARK  status: ('A' for Active; 'I' for Inactive)
REMARK    1  A    between atoms: C_1  and  C_2
REMARK    2  A    between atoms: C_2  and  C_3
REMARK    3  A    between atoms: C_2  and  C_4
REMARK    4  A    between atoms: C_2  and  C_5
REMARK    5  A    between atoms: N_7  and  C_8
REMARK    6  A    between atoms: C_8  and  C_9
REMARK    7  A    between atoms: C_12  and  C_13
REMARK    8  A    between atoms: C_13  and  C_14
REMARK    9  A    between atoms: C_14  and  N_15
REMARK                            x       y       z     vdW  Elec       q    Type
REMARK                         _______ _______ _______ _____ _____    ______ ____
ROOT
ATOM      1  C   UNL     1      44.033   8.606  11.180  0.00  0.00    +0.000 A 
ATOM      2  C   UNL     1      43.432   7.373  10.979  0.00  0.00    +0.000 A 
ATOM      3  N   UNL     1      44.256   6.382  11.452  0.00  0.00    +0.000 N 
ATOM      4  C   UNL     1      45.395   6.938  11.992  0.00  0.00    +0.000 A 
ATOM      5  C   UNL     1      46.512   6.335  12.596  0.00  0.00    +0.000 A 
ATOM      6  C   UNL     1      47.542   7.155  13.060  0.00  0.00    +0.000 A 
ATOM      7  C   UNL     1      47.461   8.534  12.932  0.00  0.00    +0.000 A 
ATOM      8  C   UNL     1      46.346   9.126  12.330  0.00  0.00    +0.000 A 
ATOM      9  C   UNL     1      45.284   8.326  11.846  0.00  0.00    +0.000 A 
ENDROOT
BRANCH   1  11
ATOM     10  C   UNL     1      43.845  11.083  11.754  0.00  0.00    +0.000 C 
ATOM     11  C   UNL     1      43.493   9.970  10.740  0.00  0.00    +0.000 C 
ATOM     12  C   UNL     1      41.956   9.919  10.631  0.00  0.00    +0.000 C 
ATOM     13  C   UNL     1      44.089  10.398   9.382  0.00  0.00    +0.000 C 
ENDBRANCH   1  11
BRANCH   3  14
ATOM     14  C   UNL     1      43.988   4.952  11.315  0.00  0.00    +0.000 C 
BRANCH  14  15
ATOM     15  C   UNL     1      44.769   4.358  10.178  0.00  0.00    +0.000 A 
ATOM     16  C   UNL     1      45.484   5.173   9.307  0.00  0.00    +0.000 A 
ATOM     17  N   UNL     1      46.103   4.705   8.197  0.00  0.00    +0.000 NA
ATOM     18  C   UNL     1      45.962   3.379   7.955  0.00  0.00    +0.000 A 
ATOM     19  C   UNL     1      45.300   2.552   8.856  0.00  0.00    +0.000 A 
ATOM     20  N   UNL     1      44.708   3.015   9.983  0.00  0.00    +0.000 NA
BRANCH  18  21
ATOM     21  C   UNL     1      46.457   2.852   6.635  0.00  0.00    +0.000 C 
BRANCH  21  22
ATOM     22  C   UNL     1      47.584   1.831   6.774  0.00  0.00    +0.000 C 
BRANCH  22  23
ATOM     23  N   UNL     1      48.496   1.915   5.632  0.00  0.00    +0.000 NA
ATOM     24  H   UNL     1      49.449   2.087   5.950  0.00  0.00    +0.000 HD
ATOM     25  H   UNL     1      48.239   2.707   5.044  0.00  0.00    +0.000 HD
ENDBRANCH  22  23
ENDBRANCH  21  22
ENDBRANCH  18  21
ENDBRANCH  14  15
ENDBRANCH   3  14
TORSDOF 6
ENDMDL
MODEL 4
REMARK VINA RESULT:    -6.037      2.527      6.538
REMARK INTER + INTRA:          -8.385
REMARK INTER:                  -7.776
REMARK INTRA:                  -0.609
REMARK UNBOUND:                -0.407
REMARK  Name = 
REMARK  9 active torsions:
REMARK  status: ('A' for Active; 'I' for Inactive)
REMARK    1  A    between atoms: C_1  and  C_2
REMARK    2  A    between atoms: C_2  and  C_3
REMARK    3  A    between atoms: C_2  and  C_4
REMARK    4  A    between atoms: C_2  and  C_5
REMARK    5  A    between atoms: N_7  and  C_8
REMARK    6  A    between atoms: C_8  and  C_9
REMARK    7  A    between atoms: C_12  and  C_13
REMARK    8  A    between atoms: C_13  and  C_14
REMARK    9  A    between atoms: C_14  and  N_15
REMARK                            x       y       z     vdW  Elec       q    Type
REMARK                         _______ _______ _______ _____ _____    ______ ____
ROOT
ATOM      1  C   UNL     1      45.451   4.328   9.429  0.00  0.00    +0.000 A 
ATOM      2  C   UNL     1      45.958   5.603   9.620  0.00  0.00    +0.000 A 
ATOM      3  N   UNL     1      45.533   6.086  10.832  0.00  0.00    +0.000 N 
ATOM      4  C   UNL     1      44.764   5.137  11.470  0.00  0.00    +0.000 A 
ATOM      5  C   UNL     1      44.121   5.168  12.720  0.00  0.00    +0.000 A 
ATOM      6  C   UNL     1      43.393   4.046  13.122  0.00  0.00    +0.000 A 
ATOM      7  C   UNL     1      43.312   2.926  12.308  0.00  0.00    +0.000 A 
ATOM      8  C   UNL     1      43.955   2.904  11.066  0.00  0.00    +0.000 A 
ATOM      9  C   UNL     1      44.699   4.023  10.625  0.00  0.00    +0.000 A 
ENDROOT
BRANCH   1  11
ATOM     10  C   UNL     1      45.983   1.994   8.550  0.00  0.00    +0.000 C 
ATOM     11  C   UNL     1      45.620   3.452   8.183  0.00  0.00    +0.000 C 
ATOM     12  C   UNL     1      46.761   4.001   7.303  0.00  0.00    +0.000 C 
ATOM     13  C   UNL     1      44.317   3.394   7.357  0.00  0.00    +0.000 C 
ENDBRANCH   1  11
BRANCH   3  14
ATOM     14  C   UNL     1      45.794   7.439  11.318  0.00  0.00    +0.000 C 
BRANCH  14  15
ATOM     15  C   UNL     1      46.874   7.443  12.362  0.00  0.00    +0.000 A 
ATOM     16  C   UNL     1      47.849   6.452  12.377  0.00  0.00    +0.000 A 
ATOM     17  N   UNL     1      48.771   6.336  13.363  0.00  0.00    +0.000 NA
ATOM     18  C   UNL     1      48.673   7.234  14.374  0.00  0.00    +0.000 A 
ATOM     19  C   UNL     1      47.737   8.262  14.331  0.00  0.00    +0.000 A 
ATOM     20  N   UNL     1      46.837   8.397  13.328  0.00  0.00    +0.000 NA
BRANCH  18  21
ATOM     21  C   UNL     1      49.540   7.021  15.586  0.00  0.00    +0.000 C 
BRANCH  21  22
ATOM     22  C   UNL     1      48.979   5.987  16.559  0.00  0.00    +0.000 C 
BRANCH  22  23
ATOM     23  N   UNL     1      47.994   5.135  15.890  0.00  0.00    +0.000 NA
ATOM     24  H   UNL     1      48.353   4.817  14.990  0.00  0.00    +0.000 HD
ATOM     25  H   UNL     1      47.151   5.673  15.692  0.00  0.00    +0.000 HD
ENDBRANCH  22  23
ENDBRANCH  21  22
ENDBRANCH  18  21
ENDBRANCH  14  15
ENDBRANCH   3  14
TORSDOF 6
ENDMDL
MODEL 5
REMARK VINA RESULT:    -5.911      4.302      7.018
REMARK INTER + INTRA:          -8.218
REMARK INTER:                  -7.822
REMARK INTRA:                  -0.397
REMARK UNBOUND:                -0.407
REMARK  Name = 
REMARK  9 active torsions:
REMARK  status: ('A' for Active; 'I' for Inactive)
REMARK    1  A    between atoms: C_1  and  C_2
REMARK    2  A    between atoms: C_2  and  C_3
REMARK    3  A    between atoms: C_2  and  C_4
REMARK    4  A    between atoms: C_2  and  C_5
REMARK    5  A    between atoms: N_7  and  C_8
REMARK    6  A    between atoms: C_8  and  C_9
REMARK    7  A    between atoms: C_12  and  C_13
REMARK    8  A    between atoms: C_13  and  C_14
REMARK    9  A    between atoms: C_14  and  N_15
REMARK                            x       y       z     vdW  Elec       q    Type
REMARK                         _______ _______ _______ _____ _____    ______ ____
ROOT
ATOM      1  C   UNL     1      48.036   6.666  13.470  0.00  0.00    +0.000 A 
ATOM      2  C   UNL     1      48.079   5.998  14.683  0.00  0.00    +0.000 A 
ATOM      3  N   UNL     1      47.103   5.033  14.708  0.00  0.00    +0.000 N 
ATOM      4  C   UNL     1      46.419   5.029  13.511  0.00  0.00    +0.000 A 
ATOM      5  C   UNL     1      45.352   4.227  13.068  0.00  0.00    +0.000 A 
ATOM      6  C   UNL     1      44.843   4.446  11.787  0.00  0.00    +0.000 A 
ATOM      7  C   UNL     1      45.380   5.430  10.970  0.00  0.00    +0.000 A 
ATOM      8  C   UNL     1      46.440   6.224  11.419  0.00  0.00    +0.000 A 
ATOM      9  C   UNL     1      46.981   6.031  12.712  0.00  0.00    +0.000 A 
ENDROOT
BRANCH   1  11
ATOM     10  C   UNL     1      48.042   9.102  12.714  0.00  0.00    +0.000 C 
ATOM     11  C   UNL     1      48.900   7.859  13.050  0.00  0.00    +0.000 C 
ATOM     12  C   UNL     1      49.709   7.506  11.786  0.00  0.00    +0.000 C 
ATOM     13  C   UNL     1      49.867   8.276  14.178  0.00  0.00    +0.000 C 
ENDBRANCH   1  11
BRANCH   3  14
ATOM     14  C   UNL     1      46.793   4.203  15.869  0.00  0.00    +0.000 C 
BRANCH  14  15
ATOM     15  C   UNL     1      48.042   3.641  16.485  0.00  0.00    +0.000 A 
ATOM     16  C   UNL     1      48.647   4.275  17.565  0.00  0.00    +0.000 A 
ATOM     17  N   UNL     1      49.837   3.884  18.080  0.00  0.00    +0.000 NA
ATOM     18  C   UNL     1      50.439   2.841  17.456  0.00  0.00    +0.000 A 
ATOM     19  C   UNL     1      49.808   2.168  16.415  0.00  0.00    +0.000 A 
ATOM     20  N   UNL     1      48.602   2.539  15.922  0.00  0.00    +0.000 NA
BRANCH  18  21
ATOM     21  C   UNL     1      51.848   2.502  17.860  0.00  0.00    +0.000 C 
BRANCH  21  22
ATOM     22  C   UNL     1      52.292   1.113  17.405  0.00  0.00    +0.000 C 
BRANCH  22  23
ATOM     23  N   UNL     1      51.689   0.081  18.250  0.00  0.00    +0.000 NA
ATOM     24  H   UNL     1      50.746   0.353  18.525  0.00  0.00    +0.000 HD
ATOM     25  H   UNL     1      52.226  -0.017  19.111  0.00  0.00    +0.000 HD
ENDBRANCH  22  23
ENDBRANCH  21  22
ENDBRANCH  18  21
ENDBRANCH  14  15
ENDBRANCH   3  14
TORSDOF 6
ENDMDL
MODEL 6
REMARK VINA RESULT:    -5.824      1.757      3.896
REMARK INTER + INTRA:          -8.104
REMARK INTER:                  -8.016
REMARK INTRA:                  -0.088
REMARK UNBOUND:                -0.407
REMARK  Name = 
REMARK  9 active torsions:
REMARK  status: ('A' for Active; 'I' for Inactive)
REMARK    1  A    between atoms: C_1  and  C_2
REMARK    2  A    between atoms: C_2  and  C_3
REMARK    3  A    between atoms: C_2  and  C_4
REMARK    4  A    between atoms: C_2  and  C_5
REMARK    5  A    between atoms: N_7  and  C_8
REMARK    6  A    between atoms: C_8  and  C_9
REMARK    7  A    between atoms: C_12  and  C_13
REMARK    8  A    between atoms: C_13  and  C_14
REMARK    9  A    between atoms: C_14  and  N_15
REMARK                            x       y       z     vdW  Elec       q    Type
REMARK                         _______ _______ _______ _____ _____    ______ ____
ROOT
ATOM      1  C   UNL     1      47.357   5.004  15.008  0.00  0.00    +0.000 A 
ATOM      2  C   UNL     1      46.226   4.629  14.300  0.00  0.00    +0.000 A 
ATOM      3  N   UNL     1      46.024   5.507  13.264  0.00  0.00    +0.000 N 
ATOM      4  C   UNL     1      47.023   6.455  13.254  0.00  0.00    +0.000 A 
ATOM      5  C   UNL     1      47.245   7.544  12.391  0.00  0.00    +0.000 A 
ATOM      6  C   UNL     1      48.356   8.359  12.619  0.00  0.00    +0.000 A 
ATOM      7  C   UNL     1      49.222   8.097  13.671  0.00  0.00    +0.000 A 
ATOM      8  C   UNL     1      48.993   7.013  14.524  0.00  0.00    +0.000 A 
ATOM      9  C   UNL     1      47.877   6.167  14.325  0.00  0.00    +0.000 A 
ENDROOT
BRANCH   1  11
ATOM     10  C   UNL     1      48.292   2.866  16.036  0.00  0.00    +0.000 C 
ATOM     11  C   UNL     1      47.903   4.344  16.277  0.00  0.00    +0.000 C 
ATOM     12  C   UNL     1      46.831   4.361  17.385  0.00  0.00    +0.000 C 
ATOM     13  C   UNL     1      49.173   5.062  16.782  0.00  0.00    +0.000 C 
ENDBRANCH   1  11
BRANCH   3  14
ATOM     14  C   UNL     1      44.869   5.476  12.370  0.00  0.00    +0.000 C 
BRANCH  14  15
ATOM     15  C   UNL     1      45.210   4.816  11.064  0.00  0.00    +0.000 A 
ATOM     16  C   UNL     1      45.687   5.565   9.995  0.00  0.00    +0.000 A 
ATOM     17  N   UNL     1      45.893   5.044   8.761  0.00  0.00    +0.000 NA
ATOM     18  C   UNL     1      45.572   3.736   8.609  0.00  0.00    +0.000 A 
ATOM     19  C   UNL     1      45.153   2.971   9.692  0.00  0.00    +0.000 A 
ATOM     20  N   UNL     1      44.978   3.483  10.933  0.00  0.00    +0.000 NA
BRANCH  18  21
ATOM     21  C   UNL     1      45.591   3.168   7.216  0.00  0.00    +0.000 C 
BRANCH  21  22
ATOM     22  C   UNL     1      46.749   2.204   6.969  0.00  0.00    +0.000 C 
BRANCH  22  23
ATOM     23  N   UNL     1      47.969   2.943   6.637  0.00  0.00    +0.000 NA
ATOM     24  H   UNL     1      48.617   2.929   7.424  0.00  0.00    +0.000 HD
ATOM     25  H   UNL     1      47.742   3.922   6.466  0.00  0.00    +0.000 HD
ENDBRANCH  22  23
ENDBRANCH  21  22
ENDBRANCH  18  21
ENDBRANCH  14  15
ENDBRANCH   3  14
TORSDOF 6
ENDMDL
MODEL 7
REMARK VINA RESULT:    -5.820      3.584      7.997
REMARK INTER + INTRA:          -8.099
REMARK INTER:                  -7.151
REMARK INTRA:                  -0.948
REMARK UNBOUND:                -0.407
REMARK  Name = 
REMARK  9 active torsions:
REMARK  status: ('A' for Active; 'I' for Inactive)
REMARK    1  A    between atoms: C_1  and  C_2
REMARK    2  A    between atoms: C_2  and  C_3
REMARK    3  A    between atoms: C_2  and  C_4
REMARK    4  A    between atoms: C_2  and  C_5
REMARK    5  A    between atoms: N_7  and  C_8
REMARK    6  A    between atoms: C_8  and  C_9
REMARK    7  A    between atoms: C_12  and  C_13
REMARK    8  A    between atoms: C_13  and  C_14
REMARK    9  A    between atoms: C_14  and  N_15
REMARK                            x       y       z     vdW  Elec       q    Type
REMARK                         _______ _______ _______ _____ _____    ______ ____
ROOT
ATOM      1  C   UNL     1      45.697   5.902  12.283  0.00  0.00    +0.000 A 
ATOM      2  C   UNL     1      46.910   5.753  12.937  0.00  0.00    +0.000 A 
ATOM      3  N   UNL     1      47.500   6.982  13.090  0.00  0.00    +0.000 N 
ATOM      4  C   UNL     1      46.684   7.961  12.566  0.00  0.00    +0.000 A 
ATOM      5  C   UNL     1      46.854   9.355  12.495  0.00  0.00    +0.000 A 
ATOM      6  C   UNL     1      45.849  10.119  11.897  0.00  0.00    +0.000 A 
ATOM      7  C   UNL     1      44.708   9.515  11.390  0.00  0.00    +0.000 A 
ATOM      8  C   UNL     1      44.548   8.127  11.464  0.00  0.00    +0.000 A 
ATOM      9  C   UNL     1      45.546   7.322  12.062  0.00  0.00    +0.000 A 
ENDROOT
BRANCH   1  11
ATOM     10  C   UNL     1      45.260   3.390  12.289  0.00  0.00    +0.000 C 
ATOM     11  C   UNL     1      44.747   4.782  11.849  0.00  0.00    +0.000 C 
ATOM     12  C   UNL     1      44.623   4.760  10.313  0.00  0.00    +0.000 C 
ATOM     13  C   UNL     1      43.347   4.959  12.475  0.00  0.00    +0.000 C 
ENDBRANCH   1  11
BRANCH   3  14
ATOM     14  C   UNL     1      48.834   7.193  13.647  0.00  0.00    +0.000 C 
BRANCH  14  15
ATOM     15  C   UNL     1      48.789   7.280  15.146  0.00  0.00    +0.000 A 
ATOM     16  C   UNL     1      48.954   6.142  15.927  0.00  0.00    +0.000 A 
ATOM     17  N   UNL     1      48.801   6.141  17.273  0.00  0.00    +0.000 NA
ATOM     18  C   UNL     1      48.440   7.323  17.830  0.00  0.00    +0.000 A 
ATOM     19  C   UNL     1      48.335   8.475  17.058  0.00  0.00    +0.000 A 
ATOM     20  N   UNL     1      48.520   8.483  15.717  0.00  0.00    +0.000 NA
BRANCH  18  21
ATOM     21  C   UNL     1      48.062   7.325  19.287  0.00  0.00    +0.000 C 
BRANCH  21  22
ATOM     22  C   UNL     1      47.503   5.988  19.770  0.00  0.00    +0.000 C 
BRANCH  22  23
ATOM     23  N   UNL     1      46.421   5.538  18.892  0.00  0.00    +0.000 NA
ATOM     24  H   UNL     1      46.319   4.525  18.945  0.00  0.00    +0.000 HD
ATOM     25  H   UNL     1      46.650   5.757  17.923  0.00  0.00    +0.000 HD
ENDBRANCH  22  23
ENDBRANCH  21  22
ENDBRANCH  18  21
ENDBRANCH  14  15
ENDBRANCH   3  14
TORSDOF 6
ENDMDL
MODEL 8
REMARK VINA RESULT:    -5.654      3.889      6.763
REMARK INTER + INTRA:          -7.879
REMARK INTER:                  -7.074
REMARK INTRA:                  -0.805
REMARK UNBOUND:                -0.407
REMARK  Name = 
REMARK  9 active torsions:
REMARK  status: ('A' for Active; 'I' for Inactive)
REMARK    1  A    between atoms: C_1  and  C_2
REMARK    2  A    between atoms: C_2  and  C_3
REMARK    3  A    between atoms: C_2  and  C_4
REMARK    4  A    between atoms: C_2  and  C_5
REMARK    5  A    between atoms: N_7  and  C_8
REMARK    6  A    between atoms: C_8  and  C_9
REMARK    7  A    between atoms: C_12  and  C_13
REMARK    8  A    between atoms: C_13  and  C_14
REMARK    9  A    between atoms: C_14  and  N_15
REMARK                            x       y       z     vdW  Elec       q    Type
REMARK                         _______ _______ _______ _____ _____    ______ ____
ROOT
ATOM      1  C   UNL     1      48.633   6.374  17.493  0.00  0.00    +0.000 A 
ATOM      2  C   UNL     1      48.635   5.836  16.216  0.00  0.00    +0.000 A 
ATOM      3  N   UNL     1      48.652   6.851  15.293  0.00  0.00    +0.000 N 
ATOM      4  C   UNL     1      48.687   8.069  15.938  0.00  0.00    +0.000 A 
ATOM      5  C   UNL     1      48.720   9.377  15.424  0.00  0.00    +0.000 A 
ATOM      6  C   UNL     1      48.748  10.445  16.323  0.00  0.00    +0.000 A 
ATOM      7  C   UNL     1      48.748  10.219  17.692  0.00  0.00    +0.000 A 
ATOM      8  C   UNL     1      48.715   8.914  18.194  0.00  0.00    +0.000 A 
ATOM      9  C   UNL     1      48.684   7.807  17.313  0.00  0.00    +0.000 A 
ENDROOT
BRANCH   1  11
ATOM     10  C   UNL     1      47.312   6.021  19.645  0.00  0.00    +0.000 C 
ATOM     11  C   UNL     1      48.546   5.601  18.813  0.00  0.00    +0.000 C 
ATOM     12  C   UNL     1      49.795   5.882  19.672  0.00  0.00    +0.000 C 
ATOM     13  C   UNL     1      48.424   4.083  18.567  0.00  0.00    +0.000 C 
ENDBRANCH   1  11
BRANCH   3  14
ATOM     14  C   UNL     1      48.559   6.654  13.849  0.00  0.00    +0.000 C 
BRANCH  14  15
ATOM     15  C   UNL     1      47.191   6.178  13.452  0.00  0.00    +0.000 A 
ATOM     16  C   UNL     1      46.218   7.081  13.038  0.00  0.00    +0.000 A 
ATOM     17  N   UNL     1      44.936   6.724  12.787  0.00  0.00    +0.000 NA
ATOM     18  C   UNL     1      44.633   5.419  12.996  0.00  0.00    +0.000 A 
ATOM     19  C   UNL     1      45.617   4.503  13.351  0.00  0.00    +0.000 A 
ATOM     20  N   UNL     1      46.907   4.855  13.570  0.00  0.00    +0.000 NA
BRANCH  18  21
ATOM     21  C   UNL     1      43.184   5.017  12.928  0.00  0.00    +0.000 C 
BRANCH  21  22
ATOM     22  C   UNL     1      42.437   5.640  11.750  0.00  0.00    +0.000 C 
BRANCH  22  23
ATOM     23  N   UNL     1      43.213   5.495  10.517  0.00  0.00    +0.000 NA
ATOM     24  H   UNL     1      42.717   5.917   9.733  0.00  0.00    +0.000 HD
ATOM     25  H   UNL     1      43.322   4.507  10.293  0.00  0.00    +0.000 HD
ENDBRANCH  22  23
ENDBRANCH  21  22
ENDBRANCH  18  21
ENDBRANCH  14  15
ENDBRANCH   3  14
TORSDOF 6
ENDMDL
MODEL 9
REMARK VINA RESULT:    -5.508      3.561      5.879
REMARK INTER + INTRA:          -7.686
REMARK INTER:                  -6.895
REMARK INTRA:                  -0.791
REMARK UNBOUND:                -0.407
REMARK  Name = 
REMARK  9 active torsions:
REMARK  status: ('A' for Active; 'I' for Inactive)
REMARK    1  A    between atoms: C_1  and  C_2
REMARK    2  A    between atoms: C_2  and  C_3
REMARK    3  A    between atoms: C_2  and  C_4
REMARK    4  A    between atoms: C_2  and  C_5
REMARK    5  A    between atoms: N_7  and  C_8
REMARK    6  A    between atoms: C_8  and  C_9
REMARK    7  A    between atoms: C_12  and  C_13
REMARK    8  A    between atoms: C_13  and  C_14
REMARK    9  A    between atoms: C_14  and  N_15
REMARK                            x       y       z     vdW  Elec       q    Type
REMARK                         _______ _______ _______ _____ _____    ______ ____
ROOT
ATOM      1  C   UNL     1      48.702   8.251  17.007  0.00  0.00    +0.000 A 
ATOM      2  C   UNL     1      48.498   8.078  15.647  0.00  0.00    +0.000 A 
ATOM      3  N   UNL     1      48.462   6.737  15.358  0.00  0.00    +0.000 N 
ATOM      4  C   UNL     1      48.614   6.005  16.516  0.00  0.00    +0.000 A 
ATOM      5  C   UNL     1      48.637   4.615  16.725  0.00  0.00    +0.000 A 
ATOM      6  C   UNL     1      48.812   4.140  18.026  0.00  0.00    +0.000 A 
ATOM      7  C   UNL     1      48.956   5.021  19.088  0.00  0.00    +0.000 A 
ATOM      8  C   UNL     1      48.932   6.402  18.871  0.00  0.00    +0.000 A 
ATOM      9  C   UNL     1      48.758   6.920  17.566  0.00  0.00    +0.000 A 
ENDROOT
BRANCH   1  11
ATOM     10  C   UNL     1      48.753  10.791  16.788  0.00  0.00    +0.000 C 
ATOM     11  C   UNL     1      48.876   9.582  17.745  0.00  0.00    +0.000 C 
ATOM     12  C   UNL     1      50.274   9.649  18.391  0.00  0.00    +0.000 C 
ATOM     13  C   UNL     1      47.798   9.765  18.835  0.00  0.00    +0.000 C 
ENDBRANCH   1  11
BRANCH   3  14
ATOM     14  C   UNL     1      48.364   6.186  14.009  0.00  0.00    +0.000 C 
BRANCH  14  15
ATOM     15  C   UNL     1      46.945   5.827  13.670  0.00  0.00    +0.000 A 
ATOM     16  C   UNL     1      46.494   4.519  13.802  0.00  0.00    +0.000 A 
ATOM     17  N   UNL     1      45.266   4.115  13.396  0.00  0.00    +0.000 NA
ATOM     18  C   UNL     1      44.494   5.064  12.812  0.00  0.00    +0.000 A 
ATOM     19  C   UNL     1      44.919   6.386  12.735  0.00  0.00    +0.000 A 
ATOM     20  N   UNL     1      46.134   6.796  13.171  0.00  0.00    +0.000 NA
BRANCH  18  21
ATOM     21  C   UNL     1      43.209   4.621  12.165  0.00  0.00    +0.000 C 
BRANCH  21  22
ATOM     22  C   UNL     1      43.399   3.499  11.147  0.00  0.00    +0.000 C 
BRANCH  22  23
ATOM     23  N   UNL     1      43.067   2.204  11.745  0.00  0.00    +0.000 NA
ATOM     24  H   UNL     1      43.475   2.127  12.676  0.00  0.00    +0.000 HD
ATOM     25  H   UNL     1      43.473   1.453  11.187  0.00  0.00    +0.000 HD
ENDBRANCH  22  23
ENDBRANCH  21  22
ENDBRANCH  18  21
ENDBRANCH  14  15
ENDBRANCH   3  14
TORSDOF 6
ENDMDL
