MODEL 1
REMARK VINA RESULT:    -8.003      0.000      0.000
REMARK INTER + INTRA:         -12.408
REMARK INTER:                 -11.278
REMARK INTRA:                  -1.131
REMARK UNBOUND:                -1.131
REMARK  Name = 
REMARK  10 active torsions:
REMARK  status: ('A' for Active; 'I' for Inactive)
REMARK    1  A    between atoms: C_1  and  C_2
REMARK    2  A    between atoms: C_5  and  C_6
REMARK    3  A    between atoms: C_8  and  O_9
REMARK    4  A    between atoms: O_9  and  C_10
REMARK    5  A    between atoms: C_10  and  C_11
REMARK    6  A    between atoms: C_11  and  C_12
REMARK    7  A    between atoms: C_11  and  C_13
REMARK    8  A    between atoms: C_11  and  C_14
REMARK    9  A    between atoms: C_17  and  C_18
REMARK   10  A    between atoms: C_24  and  C_25
REMARK                            x       y       z     vdW  Elec       q    Type
REMARK                         _______ _______ _______ _____ _____    ______ ____
ROOT
ATOM      1  C   UNL     1      48.242   6.282  14.546  0.00  0.00    +0.000 A 
ATOM      2  C   UNL     1      47.082   5.772  13.935  0.00  0.00    +0.000 A 
ATOM      3  C   UNL     1      46.738   6.119  12.637  0.00  0.00    +0.000 A 
ATOM      4  C   UNL     1      47.557   6.991  11.920  0.00  0.00    +0.000 A 
ATOM      5  C   UNL     1      48.720   7.528  12.501  0.00  0.00    +0.000 A 
ATOM      6  C   UNL     1      49.064   7.139  13.798  0.00  0.00    +0.000 A 
ENDROOT
BRANCH   1  11
ATOM      7  C   UNL     1      49.351   4.785  19.961  0.00  0.00    +0.000 C 
ATOM      8  C   UNL     1      49.082   5.224  18.558  0.00  0.00    +0.000 A 
ATOM      9  C   UNL     1      49.788   6.285  17.992  0.00  0.00    +0.000 A 
ATOM     10  C   UNL     1      49.507   6.650  16.680  0.00  0.00    +0.000 A 
ATOM     11  C   UNL     1      48.549   5.952  15.941  0.00  0.00    +0.000 A 
ATOM     12  C   UNL     1      47.899   4.910  16.608  0.00  0.00    +0.000 A 
ATOM     13  N   UNL     1      48.137   4.540  17.883  0.00  0.00    +0.000 NA
ENDBRANCH   1  11
BRANCH   5  14
ATOM     14  C   UNL     1      49.539   8.565  11.775  0.00  0.00    +0.000 C 
ATOM     15  F   UNL     1      50.279   9.342  12.616  0.00  0.00    +0.000 F 
ATOM     16  F   UNL     1      50.430   8.004  10.909  0.00  0.00    +0.000 F 
ATOM     17  F   UNL     1      48.787   9.420  11.033  0.00  0.00    +0.000 F 
ENDBRANCH   5  14
BRANCH   3  18
ATOM     18  O   UNL     1      45.607   5.715  11.986  0.00  0.00    +0.000 OA
BRANCH  18  19
ATOM     19  C   UNL     1      45.235   4.332  12.105  0.00  0.00    +0.000 C 
BRANCH  19  20
ATOM     20  C   UNL     1      44.234   3.970  10.983  0.00  0.00    +0.000 C 
ATOM     21  C   UNL     1      43.346   2.798  11.458  0.00  0.00    +0.000 C 
ATOM     22  C   UNL     1      43.303   5.176  10.719  0.00  0.00    +0.000 C 
BRANCH  20  23
ATOM     23  C   UNL     1      45.017   3.545   9.735  0.00  0.00    +0.000 A 
ATOM     24  C   UNL     1      45.249   2.204   9.409  0.00  0.00    +0.000 A 
ATOM     25  N   UNL     1      45.978   1.793   8.337  0.00  0.00    +0.000 NA
ATOM     26  C   UNL     1      46.480   2.784   7.556  0.00  0.00    +0.000 A 
ATOM     27  C   UNL     1      46.228   4.124   7.837  0.00  0.00    +0.000 A 
ATOM     28  N   UNL     1      45.485   4.522   8.916  0.00  0.00    +0.000 NA
BRANCH  26  29
ATOM     29  C   UNL     1      47.330   2.361   6.393  0.00  0.00    +0.000 C 
ATOM     30  N   UNL     1      47.184   3.028   5.193  0.00  0.00    +0.000 N 
ATOM     31  O   UNL     1      48.128   1.452   6.478  0.00  0.00    +0.000 OA
ATOM     32  H   UNL     1      46.551   3.805   5.048  0.00  0.00    +0.000 HD
ATOM     33  H   UNL     1      47.777   2.726   4.443  0.00  0.00    +0.000 HD
ENDBRANCH  26  29
ENDBRANCH  20  23
ENDBRANCH  19  20
ENDBRANCH  18  19
ENDBRANCH   3  18
TORSDOF 7
ENDMDL
MODEL 2
REMARK VINA RESULT:    -7.802      3.262      4.373
REMARK INTER + INTRA:         -12.126
REMARK INTER:                 -11.057
REMARK INTRA:                  -1.069
REMARK UNBOUND:                -1.131
REMARK  Name = 
REMARK  10 active torsions:
REMARK  status: ('A' for Active; 'I' for Inactive)
REMARK    1  A    between atoms: C_1  and  C_2
REMARK    2  A    between atoms: C_5  and  C_6
REMARK    3  A    between atoms: C_8  and  O_9
REMARK    4  A    between atoms: O_9  and  C_10
REMARK    5  A    between atoms: C_10  and  C_11
REMARK    6  A    between atoms: C_11  and  C_12
REMARK    7  A    between atoms: C_11  and  C_13
REMARK    8  A    between atoms: C_11  and  C_14
REMARK    9  A    between atoms: C_17  and  C_18
REMARK   10  A    between atoms: C_24  and  C_25
REMARK                            x       y       z     vdW  Elec       q    Type
REMARK                         _______ _______ _______ _____ _____    ______ ____
ROOT
ATOM      1  C   UNL     1      48.236   6.258  15.016  0.00  0.00    +0.000 A 
ATOM      2  C   UNL     1      47.391   5.858  13.965  0.00  0.00    +0.000 A 
ATOM      3  C   UNL     1      46.713   4.649  14.004  0.00  0.00    +0.000 A 
ATOM      4  C   UNL     1      46.871   3.810  15.107  0.00  0.00    +0.000 A 
ATOM      5  C   UNL     1      47.714   4.172  16.173  0.00  0.00    +0.000 A 
ATOM      6  C   UNL     1      48.362   5.409  16.126  0.00  0.00    +0.000 A 
ENDROOT
BRANCH   1  11
ATOM      7  C   UNL     1      51.370  11.032  14.575  0.00  0.00    +0.000 C 
ATOM      8  C   UNL     1      50.511   9.815  14.706  0.00  0.00    +0.000 A 
ATOM      9  C   UNL     1      49.120   9.917  14.700  0.00  0.00    +0.000 A 
ATOM     10  C   UNL     1      48.365   8.755  14.818  0.00  0.00    +0.000 A 
ATOM     11  C   UNL     1      48.993   7.511  14.921  0.00  0.00    +0.000 A 
ATOM     12  C   UNL     1      50.389   7.527  14.921  0.00  0.00    +0.000 A 
ATOM     13  N   UNL     1      51.151   8.635  14.824  0.00  0.00    +0.000 NA
ENDBRANCH   1  11
BRANCH   5  14
ATOM     14  C   UNL     1      47.983   3.215  17.306  0.00  0.00    +0.000 C 
ATOM     15  F   UNL     1      48.394   3.842  18.444  0.00  0.00    +0.000 F 
ATOM     16  F   UNL     1      46.873   2.505  17.655  0.00  0.00    +0.000 F 
ATOM     17  F   UNL     1      48.939   2.293  17.015  0.00  0.00    +0.000 F 
ENDBRANCH   5  14
BRANCH   3  18
ATOM     18  O   UNL     1      45.917   4.158  13.009  0.00  0.00    +0.000 OA
BRANCH  18  19
ATOM     19  C   UNL     1      45.257   5.113  12.160  0.00  0.00    +0.000 C 
BRANCH  19  20
ATOM     20  C   UNL     1      44.239   4.380  11.256  0.00  0.00    +0.000 C 
ATOM     21  C   UNL     1      43.627   3.197  12.041  0.00  0.00    +0.000 C 
ATOM     22  C   UNL     1      43.085   5.343  10.900  0.00  0.00    +0.000 C 
BRANCH  20  23
ATOM     23  C   UNL     1      44.967   3.847  10.016  0.00  0.00    +0.000 A 
ATOM     24  C   UNL     1      45.534   4.689   9.052  0.00  0.00    +0.000 A 
ATOM     25  N   UNL     1      46.144   4.251   7.918  0.00  0.00    +0.000 NA
ATOM     26  C   UNL     1      46.193   2.903   7.764  0.00  0.00    +0.000 A 
ATOM     27  C   UNL     1      45.673   2.045   8.728  0.00  0.00    +0.000 A 
ATOM     28  N   UNL     1      45.068   2.501   9.869  0.00  0.00    +0.000 NA
BRANCH  26  29
ATOM     29  C   UNL     1      46.818   2.391   6.498  0.00  0.00    +0.000 C 
ATOM     30  N   UNL     1      47.035   3.279   5.464  0.00  0.00    +0.000 N 
ATOM     31  O   UNL     1      47.128   1.227   6.361  0.00  0.00    +0.000 OA
ATOM     32  H   UNL     1      46.817   4.267   5.509  0.00  0.00    +0.000 HD
ATOM     33  H   UNL     1      47.465   2.904   4.640  0.00  0.00    +0.000 HD
ENDBRANCH  26  29
ENDBRANCH  20  23
ENDBRANCH  19  20
ENDBRANCH  18  19
ENDBRANCH   3  18
TORSDOF 7
ENDMDL
MODEL 3
REMARK VINA RESULT:    -7.183      3.515      7.549
REMARK INTER + INTRA:         -11.253
REMARK INTER:                  -9.729
REMARK INTRA:                  -1.525
REMARK UNBOUND:                -1.131
REMARK  Name = 
REMARK  10 active torsions:
REMARK  status: ('A' for Active; 'I' for Inactive)
REMARK    1  A    between atoms: C_1  and  C_2
REMARK    2  A    between atoms: C_5  and  C_6
REMARK    3  A    between atoms: C_8  and  O_9
REMARK    4  A    between atoms: O_9  and  C_10
REMARK    5  A    between atoms: C_10  and  C_11
REMARK    6  A    between atoms: C_11  and  C_12
REMARK    7  A    between atoms: C_11  and  C_13
REMARK    8  A    between atoms: C_11  and  C_14
REMARK    9  A    between atoms: C_17  and  C_18
REMARK   10  A    between atoms: C_24  and  C_25
REMARK                            x       y       z     vdW  Elec       q    Type
REMARK                         _______ _______ _______ _____ _____    ______ ____
ROOT
ATOM      1  C   UNL     1      48.022   6.712  13.092  0.00  0.00    +0.000 A 
ATOM      2  C   UNL     1      48.251   7.136  14.413  0.00  0.00    +0.000 A 
ATOM      3  C   UNL     1      49.346   7.922  14.740  0.00  0.00    +0.000 A 
ATOM      4  C   UNL     1      50.241   8.300  13.739  0.00  0.00    +0.000 A 
ATOM      5  C   UNL     1      50.050   7.887  12.409  0.00  0.00    +0.000 A 
ATOM      6  C   UNL     1      48.922   7.124  12.097  0.00  0.00    +0.000 A 
ENDROOT
BRANCH   1  11
ATOM      7  C   UNL     1      43.598   3.209  12.112  0.00  0.00    +0.000 C 
ATOM      8  C   UNL     1      44.755   4.134  12.315  0.00  0.00    +0.000 A 
ATOM      9  C   UNL     1      45.065   5.112  11.371  0.00  0.00    +0.000 A 
ATOM     10  C   UNL     1      46.146   5.952  11.611  0.00  0.00    +0.000 A 
ATOM     11  C   UNL     1      46.893   5.828  12.785  0.00  0.00    +0.000 A 
ATOM     12  C   UNL     1      46.498   4.812  13.658  0.00  0.00    +0.000 A 
ATOM     13  N   UNL     1      45.464   3.971  13.449  0.00  0.00    +0.000 NA
ENDBRANCH   1  11
BRANCH   5  14
ATOM     14  C   UNL     1      51.079   8.190  11.349  0.00  0.00    +0.000 C 
ATOM     15  F   UNL     1      52.341   8.302  11.851  0.00  0.00    +0.000 F 
ATOM     16  F   UNL     1      51.143   7.215  10.399  0.00  0.00    +0.000 F 
ATOM     17  F   UNL     1      50.835   9.347  10.679  0.00  0.00    +0.000 F 
ENDBRANCH   5  14
BRANCH   3  18
ATOM     18  O   UNL     1      49.674   8.334  16.000  0.00  0.00    +0.000 OA
BRANCH  18  19
ATOM     19  C   UNL     1      48.639   8.296  16.997  0.00  0.00    +0.000 C 
BRANCH  19  20
ATOM     20  C   UNL     1      49.167   7.574  18.258  0.00  0.00    +0.000 C 
ATOM     21  C   UNL     1      50.504   8.219  18.687  0.00  0.00    +0.000 C 
ATOM     22  C   UNL     1      48.166   7.775  19.419  0.00  0.00    +0.000 C 
BRANCH  20  23
ATOM     23  C   UNL     1      49.397   6.094  17.927  0.00  0.00    +0.000 A 
ATOM     24  C   UNL     1      50.670   5.560  17.699  0.00  0.00    +0.000 A 
ATOM     25  N   UNL     1      50.905   4.264  17.357  0.00  0.00    +0.000 NA
ATOM     26  C   UNL     1      49.804   3.477  17.256  0.00  0.00    +0.000 A 
ATOM     27  C   UNL     1      48.531   3.976  17.518  0.00  0.00    +0.000 A 
ATOM     28  N   UNL     1      48.311   5.281  17.869  0.00  0.00    +0.000 NA
BRANCH  26  29
ATOM     29  C   UNL     1      50.029   2.054  16.833  0.00  0.00    +0.000 C 
ATOM     30  N   UNL     1      50.949   1.297  17.529  0.00  0.00    +0.000 N 
ATOM     31  O   UNL     1      49.433   1.561  15.899  0.00  0.00    +0.000 OA
ATOM     32  H   UNL     1      51.474   1.633  18.327  0.00  0.00    +0.000 HD
ATOM     33  H   UNL     1      51.063   0.348  17.225  0.00  0.00    +0.000 HD
ENDBRANCH  26  29
ENDBRANCH  20  23
ENDBRANCH  19  20
ENDBRANCH  18  19
ENDBRANCH   3  18
TORSDOF 7
ENDMDL
MODEL 4
REMARK VINA RESULT:    -7.148      4.299      8.257
REMARK INTER + INTRA:         -11.204
REMARK INTER:                 -10.118
REMARK INTRA:                  -1.086
REMARK UNBOUND:                -1.131
REMARK  Name = 
REMARK  10 active torsions:
REMARK  status: ('A' for Active; 'I' for Inactive)
REMARK    1  A    between atoms: C_1  and  C_2
REMARK    2  A    between atoms: C_5  and  C_6
REMARK    3  A    between atoms: C_8  and  O_9
REMARK    4  A    between atoms: O_9  and  C_10
REMARK    5  A    between atoms: C_10  and  C_11
REMARK    6  A    between atoms: C_11  and  C_12
REMARK    7  A    between atoms: C_11  and  C_13
REMARK    8  A    between atoms: C_11  and  C_14
REMARK    9  A    between atoms: C_17  and  C_18
REMARK   10  A    between atoms: C_24  and  C_25
REMARK                            x       y       z     vdW  Elec       q    Type
REMARK                         _______ _______ _______ _____ _____    ______ ____
ROOT
ATOM      1  C   UNL     1      46.807   6.483  12.359  0.00  0.00    +0.000 A 
ATOM      2  C   UNL     1      47.040   5.832  13.584  0.00  0.00    +0.000 A 
ATOM      3  C   UNL     1      46.408   4.640  13.900  0.00  0.00    +0.000 A 
ATOM      4  C   UNL     1      45.521   4.070  12.986  0.00  0.00    +0.000 A 
ATOM      5  C   UNL     1      45.255   4.696  11.755  0.00  0.00    +0.000 A 
ATOM      6  C   UNL     1      45.929   5.880  11.444  0.00  0.00    +0.000 A 
ENDROOT
BRANCH   1  11
ATOM      7  C   UNL     1      49.433  11.423  11.136  0.00  0.00    +0.000 C 
ATOM      8  C   UNL     1      48.711  10.161  11.482  0.00  0.00    +0.000 A 
ATOM      9  C   UNL     1      47.367  10.184  11.854  0.00  0.00    +0.000 A 
ATOM     10  C   UNL     1      46.738   8.982  12.160  0.00  0.00    +0.000 A 
ATOM     11  C   UNL     1      47.438   7.776  12.075  0.00  0.00    +0.000 A 
ATOM     12  C   UNL     1      48.780   7.870  11.698  0.00  0.00    +0.000 A 
ATOM     13  N   UNL     1      49.423   9.019  11.409  0.00  0.00    +0.000 NA
ENDBRANCH   1  11
BRANCH   5  14
ATOM     14  C   UNL     1      44.206   4.150  10.820  0.00  0.00    +0.000 C 
ATOM     15  F   UNL     1      44.137   4.832   9.643  0.00  0.00    +0.000 F 
ATOM     16  F   UNL     1      44.443   2.851  10.482  0.00  0.00    +0.000 F 
ATOM     17  F   UNL     1      42.953   4.175  11.346  0.00  0.00    +0.000 F 
ENDBRANCH   5  14
BRANCH   3  18
ATOM     18  O   UNL     1      46.534   3.969  15.083  0.00  0.00    +0.000 OA
BRANCH  18  19
ATOM     19  C   UNL     1      47.810   3.372  15.371  0.00  0.00    +0.000 C 
BRANCH  19  20
ATOM     20  C   UNL     1      48.166   3.612  16.856  0.00  0.00    +0.000 C 
ATOM     21  C   UNL     1      48.096   5.127  17.154  0.00  0.00    +0.000 C 
ATOM     22  C   UNL     1      47.117   2.917  17.753  0.00  0.00    +0.000 C 
BRANCH  20  23
ATOM     23  C   UNL     1      49.591   3.107  17.115  0.00  0.00    +0.000 A 
ATOM     24  C   UNL     1      49.950   1.760  16.987  0.00  0.00    +0.000 A 
ATOM     25  N   UNL     1      51.192   1.272  17.253  0.00  0.00    +0.000 NA
ATOM     26  C   UNL     1      52.109   2.190  17.653  0.00  0.00    +0.000 A 
ATOM     27  C   UNL     1      51.786   3.541  17.749  0.00  0.00    +0.000 A 
ATOM     28  N   UNL     1      50.533   4.019  17.469  0.00  0.00    +0.000 NA
BRANCH  26  29
ATOM     29  C   UNL     1      53.474   1.673  18.001  0.00  0.00    +0.000 C 
ATOM     30  N   UNL     1      53.944   1.863  19.285  0.00  0.00    +0.000 N 
ATOM     31  O   UNL     1      54.170   1.103  17.188  0.00  0.00    +0.000 OA
ATOM     32  H   UNL     1      53.417   2.316  20.022  0.00  0.00    +0.000 HD
ATOM     33  H   UNL     1      54.855   1.493  19.483  0.00  0.00    +0.000 HD
ENDBRANCH  26  29
ENDBRANCH  20  23
ENDBRANCH  19  20
ENDBRANCH  18  19
ENDBRANCH   3  18
TORSDOF 7
ENDMDL
MODEL 5
REMARK VINA RESULT:    -6.991      4.398      8.231
REMARK INTER + INTRA:         -10.983
REMARK INTER:                  -9.585
REMARK INTRA:                  -1.397
REMARK UNBOUND:                -1.131
REMARK  Name = 
REMARK  10 active torsions:
REMARK  status: ('A' for Active; 'I' for Inactive)
REMARK    1  A    between atoms: C_1  and  C_2
REMARK    2  A    between atoms: C_5  and  C_6
REMARK    3  A    between atoms: C_8  and  O_9
REMARK    4  A    between atoms: O_9  and  C_10
REMARK    5  A    between atoms: C_10  and  C_11
REMARK    6  A    between atoms: C_11  and  C_12
REMARK    7  A    between atoms: C_11  and  C_13
REMARK    8  A    between atoms: C_11  and  C_14
REMARK    9  A    between atoms: C_17  and  C_18
REMARK   10  A    between atoms: C_24  and  C_25
REMARK                            x       y       z     vdW  Elec       q    Type
REMARK                         _______ _______ _______ _____ _____    ______ ____
ROOT
ATOM      1  C   UNL     1      46.518   6.021  12.484  0.00  0.00    +0.000 A 
ATOM      2  C   UNL     1      47.120   5.334  13.554  0.00  0.00    +0.000 A 
ATOM      3  C   UNL     1      46.820   4.007  13.820  0.00  0.00    +0.000 A 
ATOM      4  C   UNL     1      45.903   3.335  13.011  0.00  0.00    +0.000 A 
ATOM      5  C   UNL     1      45.275   3.992  11.938  0.00  0.00    +0.000 A 
ATOM      6  C   UNL     1      45.616   5.319  11.669  0.00  0.00    +0.000 A 
ENDROOT
BRANCH   1  11
ATOM      7  C   UNL     1      47.815  11.514  11.512  0.00  0.00    +0.000 C 
ATOM      8  C   UNL     1      47.433  10.096  11.793  0.00  0.00    +0.000 A 
ATOM      9  C   UNL     1      46.119   9.759  12.115  0.00  0.00    +0.000 A 
ATOM     10  C   UNL     1      45.813   8.425  12.359  0.00  0.00    +0.000 A 
ATOM     11  C   UNL     1      46.802   7.443  12.265  0.00  0.00    +0.000 A 
ATOM     12  C   UNL     1      48.084   7.893  11.941  0.00  0.00    +0.000 A 
ATOM     13  N   UNL     1      48.417   9.179  11.712  0.00  0.00    +0.000 NA
ENDBRANCH   1  11
BRANCH   5  14
ATOM     14  C   UNL     1      44.194   3.308  11.139  0.00  0.00    +0.000 C 
ATOM     15  F   UNL     1      43.370   4.185  10.500  0.00  0.00    +0.000 F 
ATOM     16  F   UNL     1      44.704   2.502  10.165  0.00  0.00    +0.000 F 
ATOM     17  F   UNL     1      43.389   2.515  11.895  0.00  0.00    +0.000 F 
ENDBRANCH   5  14
BRANCH   3  18
ATOM     18  O   UNL     1      47.315   3.280  14.865  0.00  0.00    +0.000 OA
BRANCH  18  19
ATOM     19  C   UNL     1      47.231   3.867  16.175  0.00  0.00    +0.000 C 
BRANCH  19  20
ATOM     20  C   UNL     1      48.480   3.472  16.996  0.00  0.00    +0.000 C 
ATOM     21  C   UNL     1      48.060   3.219  18.462  0.00  0.00    +0.000 C 
ATOM     22  C   UNL     1      49.055   2.146  16.447  0.00  0.00    +0.000 C 
BRANCH  20  23
ATOM     23  C   UNL     1      49.494   4.621  16.946  0.00  0.00    +0.000 A 
ATOM     24  C   UNL     1      49.136   5.931  16.608  0.00  0.00    +0.000 A 
ATOM     25  N   UNL     1      50.018   6.963  16.509  0.00  0.00    +0.000 NA
ATOM     26  C   UNL     1      51.313   6.654  16.777  0.00  0.00    +0.000 A 
ATOM     27  C   UNL     1      51.686   5.367  17.154  0.00  0.00    +0.000 A 
ATOM     28  N   UNL     1      50.786   4.340  17.257  0.00  0.00    +0.000 NA
BRANCH  26  29
ATOM     29  C   UNL     1      52.315   7.762  16.627  0.00  0.00    +0.000 C 
ATOM     30  N   UNL     1      51.949   8.892  15.925  0.00  0.00    +0.000 N 
ATOM     31  O   UNL     1      53.430   7.686  17.098  0.00  0.00    +0.000 OA
ATOM     32  H   UNL     1      51.033   9.035  15.516  0.00  0.00    +0.000 HD
ATOM     33  H   UNL     1      52.640   9.615  15.857  0.00  0.00    +0.000 HD
ENDBRANCH  26  29
ENDBRANCH  20  23
ENDBRANCH  19  20
ENDBRANCH  18  19
ENDBRANCH   3  18
TORSDOF 7
ENDMDL
MODEL 6
REMARK VINA RESULT:    -6.927      4.111      5.982
REMARK INTER + INTRA:         -10.892
REMARK INTER:                  -9.734
REMARK INTRA:                  -1.158
REMARK UNBOUND:                -1.131
REMARK  Name = 
REMARK  10 active torsions:
REMARK  status: ('A' for Active; 'I' for Inactive)
REMARK    1  A    between atoms: C_1  and  C_2
REMARK    2  A    between atoms: C_5  and  C_6
REMARK    3  A    between atoms: C_8  and  O_9
REMARK    4  A    between atoms: O_9  and  C_10
REMARK    5  A    between atoms: C_10  and  C_11
REMARK    6  A    between atoms: C_11  and  C_12
REMARK    7  A    between atoms: C_11  and  C_13
REMARK    8  A    between atoms: C_11  and  C_14
REMARK    9  A    between atoms: C_17  and  C_18
REMARK   10  A    between atoms: C_24  and  C_25
REMARK                            x       y       z     vdW  Elec       q    Type
REMARK                         _______ _______ _______ _____ _____    ______ ____
ROOT
ATOM      1  C   UNL     1      50.137   5.020  17.735  0.00  0.00    +0.000 A 
ATOM      2  C   UNL     1      49.872   5.673  16.518  0.00  0.00    +0.000 A 
ATOM      3  C   UNL     1      49.037   6.778  16.458  0.00  0.00    +0.000 A 
ATOM      4  C   UNL     1      48.445   7.254  17.628  0.00  0.00    +0.000 A 
ATOM      5  C   UNL     1      48.679   6.622  18.862  0.00  0.00    +0.000 A 
ATOM      6  C   UNL     1      49.550   5.530  18.904  0.00  0.00    +0.000 A 
ENDROOT
BRANCH   1  11
ATOM      7  C   UNL     1      53.254   0.215  17.692  0.00  0.00    +0.000 C 
ATOM      8  C   UNL     1      52.475   1.490  17.738  0.00  0.00    +0.000 A 
ATOM      9  C   UNL     1      53.073   2.680  18.153  0.00  0.00    +0.000 A 
ATOM     10  C   UNL     1      52.307   3.841  18.170  0.00  0.00    +0.000 A 
ATOM     11  C   UNL     1      50.972   3.814  17.762  0.00  0.00    +0.000 A 
ATOM     12  C   UNL     1      50.475   2.569  17.371  0.00  0.00    +0.000 A 
ATOM     13  N   UNL     1      51.184   1.423  17.356  0.00  0.00    +0.000 NA
ENDBRANCH   1  11
BRANCH   5  14
ATOM     14  C   UNL     1      47.946   7.057  20.106  0.00  0.00    +0.000 C 
ATOM     15  F   UNL     1      48.784   7.398  21.125  0.00  0.00    +0.000 F 
ATOM     16  F   UNL     1      47.164   8.152  19.887  0.00  0.00    +0.000 F 
ATOM     17  F   UNL     1      47.116   6.101  20.602  0.00  0.00    +0.000 F 
ENDBRANCH   5  14
BRANCH   3  18
ATOM     18  O   UNL     1      48.683   7.439  15.317  0.00  0.00    +0.000 OA
BRANCH  18  19
ATOM     19  C   UNL     1      48.748   6.705  14.082  0.00  0.00    +0.000 C 
BRANCH  19  20
ATOM     20  C   UNL     1      47.763   7.323  13.064  0.00  0.00    +0.000 C 
ATOM     21  C   UNL     1      47.121   8.585  13.684  0.00  0.00    +0.000 C 
ATOM     22  C   UNL     1      48.541   7.774  11.807  0.00  0.00    +0.000 C 
BRANCH  20  23
ATOM     23  C   UNL     1      46.668   6.299  12.744  0.00  0.00    +0.000 A 
ATOM     24  C   UNL     1      46.402   5.196  13.563  0.00  0.00    +0.000 A 
ATOM     25  N   UNL     1      45.471   4.243  13.285  0.00  0.00    +0.000 NA
ATOM     26  C   UNL     1      44.772   4.427  12.135  0.00  0.00    +0.000 A 
ATOM     27  C   UNL     1      44.990   5.538  11.325  0.00  0.00    +0.000 A 
ATOM     28  N   UNL     1      45.926   6.492  11.623  0.00  0.00    +0.000 NA
BRANCH  26  29
ATOM     29  C   UNL     1      43.772   3.366  11.778  0.00  0.00    +0.000 C 
ATOM     30  N   UNL     1      43.730   2.216  12.539  0.00  0.00    +0.000 N 
ATOM     31  O   UNL     1      43.011   3.491  10.841  0.00  0.00    +0.000 OA
ATOM     32  H   UNL     1      44.321   2.045  13.344  0.00  0.00    +0.000 HD
ATOM     33  H   UNL     1      43.040   1.536  12.278  0.00  0.00    +0.000 HD
ENDBRANCH  26  29
ENDBRANCH  20  23
ENDBRANCH  19  20
ENDBRANCH  18  19
ENDBRANCH   3  18
TORSDOF 7
ENDMDL
MODEL 7
REMARK VINA RESULT:    -6.594      3.435      8.447
REMARK INTER + INTRA:         -10.424
REMARK INTER:                  -9.178
REMARK INTRA:                  -1.245
REMARK UNBOUND:                -1.131
REMARK  Name = 
REMARK  10 active torsions:
REMARK  status: ('A' for Active; 'I' for Inactive)
REMARK    1  A    between atoms: C_1  and  C_2
REMARK    2  A    between atoms: C_5  and  C_6
REMARK    3  A    between atoms: C_8  and  O_9
REMARK    4  A    between atoms: O_9  and  C_10
REMARK    5  A    between atoms: C_10  and  C_11
REMARK    6  A    between atoms: C_11  and  C_12
REMARK    7  A    between atoms: C_11  and  C_13
REMARK    8  A    between atoms: C_11  and  C_14
REMARK    9  A    between atoms: C_17  and  C_18
REMARK   10  A    between atoms: C_24  and  C_25
REMARK                            x       y       z     vdW  Elec       q    Type
REMARK                         _______ _______ _______ _____ _____    ______ ____
ROOT
ATOM      1  C   UNL     1      45.528   4.932   9.847  0.00  0.00    +0.000 A 
ATOM      2  C   UNL     1      46.259   6.066  10.242  0.00  0.00    +0.000 A 
ATOM      3  C   UNL     1      45.864   6.840  11.323  0.00  0.00    +0.000 A 
ATOM      4  C   UNL     1      44.717   6.488  12.035  0.00  0.00    +0.000 A 
ATOM      5  C   UNL     1      43.956   5.365  11.665  0.00  0.00    +0.000 A 
ATOM      6  C   UNL     1      44.391   4.582  10.593  0.00  0.00    +0.000 A 
ENDROOT
BRANCH   1  11
ATOM      7  C   UNL     1      47.250   2.113   5.169  0.00  0.00    +0.000 C 
ATOM      8  C   UNL     1      46.765   2.810   6.399  0.00  0.00    +0.000 A 
ATOM      9  C   UNL     1      46.097   2.109   7.403  0.00  0.00    +0.000 A 
ATOM     10  C   UNL     1      45.672   2.801   8.531  0.00  0.00    +0.000 A 
ATOM     11  C   UNL     1      45.930   4.168   8.661  0.00  0.00    +0.000 A 
ATOM     12  C   UNL     1      46.602   4.770   7.595  0.00  0.00    +0.000 A 
ATOM     13  N   UNL     1      47.014   4.132   6.481  0.00  0.00    +0.000 NA
ENDBRANCH   1  11
BRANCH   5  14
ATOM     14  C   UNL     1      42.652   5.054  12.354  0.00  0.00    +0.000 C 
ATOM     15  F   UNL     1      42.313   3.736  12.279  0.00  0.00    +0.000 F 
ATOM     16  F   UNL     1      42.687   5.352  13.683  0.00  0.00    +0.000 F 
ATOM     17  F   UNL     1      41.597   5.745  11.845  0.00  0.00    +0.000 F 
ENDBRANCH   5  14
BRANCH   3  18
ATOM     18  O   UNL     1      46.481   7.984  11.742  0.00  0.00    +0.000 OA
BRANCH  18  19
ATOM     19  C   UNL     1      46.517   8.235  13.157  0.00  0.00    +0.000 C 
BRANCH  19  20
ATOM     20  C   UNL     1      47.952   8.006  13.684  0.00  0.00    +0.000 C 
ATOM     21  C   UNL     1      48.920   7.905  12.483  0.00  0.00    +0.000 C 
ATOM     22  C   UNL     1      48.388   9.226  14.526  0.00  0.00    +0.000 C 
BRANCH  20  23
ATOM     23  C   UNL     1      47.988   6.696  14.480  0.00  0.00    +0.000 A 
ATOM     24  C   UNL     1      47.466   5.496  13.985  0.00  0.00    +0.000 A 
ATOM     25  N   UNL     1      47.440   4.328  14.683  0.00  0.00    +0.000 NA
ATOM     26  C   UNL     1      47.978   4.379  15.929  0.00  0.00    +0.000 A 
ATOM     27  C   UNL     1      48.540   5.551  16.427  0.00  0.00    +0.000 A 
ATOM     28  N   UNL     1      48.566   6.717  15.709  0.00  0.00    +0.000 NA
BRANCH  26  29
ATOM     29  C   UNL     1      47.919   3.117  16.741  0.00  0.00    +0.000 C 
ATOM     30  N   UNL     1      46.884   2.958  17.638  0.00  0.00    +0.000 N 
ATOM     31  O   UNL     1      48.756   2.246  16.633  0.00  0.00    +0.000 OA
ATOM     32  H   UNL     1      46.140   3.634  17.774  0.00  0.00    +0.000 HD
ATOM     33  H   UNL     1      46.871   2.098  18.153  0.00  0.00    +0.000 HD
ENDBRANCH  26  29
ENDBRANCH  20  23
ENDBRANCH  19  20
ENDBRANCH  18  19
ENDBRANCH   3  18
TORSDOF 7
ENDMDL
MODEL 8
REMARK VINA RESULT:    -6.368      3.493      8.220
REMARK INTER + INTRA:         -10.105
REMARK INTER:                  -9.026
REMARK INTRA:                  -1.079
REMARK UNBOUND:                -1.131
REMARK  Name = 
REMARK  10 active torsions:
REMARK  status: ('A' for Active; 'I' for Inactive)
REMARK    1  A    between atoms: C_1  and  C_2
REMARK    2  A    between atoms: C_5  and  C_6
REMARK    3  A    between atoms: C_8  and  O_9
REMARK    4  A    between atoms: O_9  and  C_10
REMARK    5  A    between atoms: C_10  and  C_11
REMARK    6  A    between atoms: C_11  and  C_12
REMARK    7  A    between atoms: C_11  and  C_13
REMARK    8  A    between atoms: C_11  and  C_14
REMARK    9  A    between atoms: C_17  and  C_18
REMARK   10  A    between atoms: C_24  and  C_25
REMARK                            x       y       z     vdW  Elec       q    Type
REMARK                         _______ _______ _______ _____ _____    ______ ____
ROOT
ATOM      1  C   UNL     1      47.526   6.558  13.154  0.00  0.00    +0.000 A 
ATOM      2  C   UNL     1      48.162   6.288  14.379  0.00  0.00    +0.000 A 
ATOM      3  C   UNL     1      49.204   7.077  14.841  0.00  0.00    +0.000 A 
ATOM      4  C   UNL     1      49.633   8.163  14.077  0.00  0.00    +0.000 A 
ATOM      5  C   UNL     1      49.027   8.458  12.843  0.00  0.00    +0.000 A 
ATOM      6  C   UNL     1      47.958   7.669  12.413  0.00  0.00    +0.000 A 
ENDROOT
BRANCH   1  11
ATOM      7  C   UNL     1      43.368   3.019  11.426  0.00  0.00    +0.000 C 
ATOM      8  C   UNL     1      44.461   3.957  11.826  0.00  0.00    +0.000 A 
ATOM      9  C   UNL     1      44.828   5.021  11.003  0.00  0.00    +0.000 A 
ATOM     10  C   UNL     1      45.845   5.871  11.424  0.00  0.00    +0.000 A 
ATOM     11  C   UNL     1      46.470   5.669  12.657  0.00  0.00    +0.000 A 
ATOM     12  C   UNL     1      46.027   4.571  13.397  0.00  0.00    +0.000 A 
ATOM     13  N   UNL     1      45.054   3.720  13.012  0.00  0.00    +0.000 NA
ENDBRANCH   1  11
BRANCH   5  14
ATOM     14  C   UNL     1      49.568   9.553  11.958  0.00  0.00    +0.000 C 
ATOM     15  F   UNL     1      48.755   9.832  10.901  0.00  0.00    +0.000 F 
ATOM     16  F   UNL     1      49.721  10.729  12.629  0.00  0.00    +0.000 F 
ATOM     17  F   UNL     1      50.788   9.264  11.431  0.00  0.00    +0.000 F 
ENDBRANCH   5  14
BRANCH   3  18
ATOM     18  O   UNL     1      49.912   6.858  15.989  0.00  0.00    +0.000 OA
BRANCH  18  19
ATOM     19  C   UNL     1      49.467   5.792  16.845  0.00  0.00    +0.000 C 
BRANCH  19  20
ATOM     20  C   UNL     1      50.443   5.647  18.035  0.00  0.00    +0.000 C 
ATOM     21  C   UNL     1      51.527   6.744  17.935  0.00  0.00    +0.000 C 
ATOM     22  C   UNL     1      49.675   5.878  19.357  0.00  0.00    +0.000 C 
BRANCH  20  23
ATOM     23  C   UNL     1      51.106   4.266  17.971  0.00  0.00    +0.000 A 
ATOM     24  C   UNL     1      52.337   3.990  18.577  0.00  0.00    +0.000 A 
ATOM     25  N   UNL     1      52.975   2.791  18.501  0.00  0.00    +0.000 NA
ATOM     26  C   UNL     1      52.330   1.829  17.791  0.00  0.00    +0.000 A 
ATOM     27  C   UNL     1      51.086   2.068  17.214  0.00  0.00    +0.000 A 
ATOM     28  N   UNL     1      50.452   3.279  17.306  0.00  0.00    +0.000 NA
BRANCH  26  29
ATOM     29  C   UNL     1      53.033   0.511  17.649  0.00  0.00    +0.000 C 
ATOM     30  N   UNL     1      52.734  -0.496  18.544  0.00  0.00    +0.000 N 
ATOM     31  O   UNL     1      53.855   0.313  16.780  0.00  0.00    +0.000 OA
ATOM     32  H   UNL     1      52.049  -0.412  19.286  0.00  0.00    +0.000 HD
ATOM     33  H   UNL     1      53.214  -1.366  18.409  0.00  0.00    +0.000 HD
ENDBRANCH  26  29
ENDBRANCH  20  23
ENDBRANCH  19  20
ENDBRANCH  18  19
ENDBRANCH   3  18
TORSDOF 7
ENDMDL
MODEL 9
REMARK VINA RESULT:    -6.277      4.652      7.460
REMARK INTER + INTRA:          -9.976
REMARK INTER:                  -8.074
REMARK INTRA:                  -1.903
REMARK UNBOUND:                -1.131
REMARK  Name = 
REMARK  10 active torsions:
REMARK  status: ('A' for Active; 'I' for Inactive)
REMARK    1  A    between atoms: C_1  and  C_2
REMARK    2  A    between atoms: C_5  and  C_6
REMARK    3  A    between atoms: C_8  and  O_9
REMARK    4  A    between atoms: O_9  and  C_10
REMARK    5  A    between atoms: C_10  and  C_11
REMARK    6  A    between atoms: C_11  and  C_12
REMARK    7  A    between atoms: C_11  and  C_13
REMARK    8  A    between atoms: C_11  and  C_14
REMARK    9  A    between atoms: C_17  and  C_18
REMARK   10  A    between atoms: C_24  and  C_25
REMARK                            x       y       z     vdW  Elec       q    Type
REMARK                         _______ _______ _______ _____ _____    ______ ____
ROOT
ATOM      1  C   UNL     1      46.971   5.052  14.273  0.00  0.00    +0.000 A 
ATOM      2  C   UNL     1      47.551   6.099  13.533  0.00  0.00    +0.000 A 
ATOM      3  C   UNL     1      47.152   6.371  12.233  0.00  0.00    +0.000 A 
ATOM      4  C   UNL     1      46.157   5.592  11.644  0.00  0.00    +0.000 A 
ATOM      5  C   UNL     1      45.560   4.532  12.349  0.00  0.00    +0.000 A 
ATOM      6  C   UNL     1      45.954   4.297  13.669  0.00  0.00    +0.000 A 
ENDROOT
BRANCH   1  11
ATOM      7  C   UNL     1      48.910   4.067  19.571  0.00  0.00    +0.000 C 
ATOM      8  C   UNL     1      48.394   4.272  18.183  0.00  0.00    +0.000 A 
ATOM      9  C   UNL     1      47.540   3.341  17.592  0.00  0.00    +0.000 A 
ATOM     10  C   UNL     1      47.081   3.582  16.302  0.00  0.00    +0.000 A 
ATOM     11  C   UNL     1      47.456   4.744  15.622  0.00  0.00    +0.000 A 
ATOM     12  C   UNL     1      48.317   5.604  16.307  0.00  0.00    +0.000 A 
ATOM     13  N   UNL     1      48.792   5.394  17.551  0.00  0.00    +0.000 NA
ENDBRANCH   1  11
BRANCH   5  14
ATOM     14  C   UNL     1      44.574   3.612  11.675  0.00  0.00    +0.000 C 
ATOM     15  F   UNL     1      43.590   4.283  11.012  0.00  0.00    +0.000 F 
ATOM     16  F   UNL     1      45.168   2.811  10.745  0.00  0.00    +0.000 F 
ATOM     17  F   UNL     1      43.944   2.774  12.540  0.00  0.00    +0.000 F 
ENDBRANCH   5  14
BRANCH   3  18
ATOM     18  O   UNL     1      47.696   7.329  11.426  0.00  0.00    +0.000 OA
BRANCH  18  19
ATOM     19  C   UNL     1      47.869   8.642  11.984  0.00  0.00    +0.000 C 
BRANCH  19  20
ATOM     20  C   UNL     1      49.377   8.927  12.172  0.00  0.00    +0.000 C 
ATOM     21  C   UNL     1      50.191   7.840  11.434  0.00  0.00    +0.000 C 
ATOM     22  C   UNL     1      49.727  10.284  11.522  0.00  0.00    +0.000 C 
BRANCH  20  23
ATOM     23  C   UNL     1      49.709   8.886  13.668  0.00  0.00    +0.000 A 
ATOM     24  C   UNL     1      50.794   8.166  14.182  0.00  0.00    +0.000 A 
ATOM     25  N   UNL     1      51.089   8.070  15.507  0.00  0.00    +0.000 NA
ATOM     26  C   UNL     1      50.257   8.745  16.342  0.00  0.00    +0.000 A 
ATOM     27  C   UNL     1      49.197   9.501  15.851  0.00  0.00    +0.000 A 
ATOM     28  N   UNL     1      48.917   9.594  14.513  0.00  0.00    +0.000 NA
BRANCH  26  29
ATOM     29  C   UNL     1      50.530   8.618  17.813  0.00  0.00    +0.000 C 
ATOM     30  N   UNL     1      50.964   7.403  18.301  0.00  0.00    +0.000 N 
ATOM     31  O   UNL     1      50.373   9.547  18.577  0.00  0.00    +0.000 OA
ATOM     32  H   UNL     1      51.131   6.586  17.725  0.00  0.00    +0.000 HD
ATOM     33  H   UNL     1      51.147   7.360  19.285  0.00  0.00    +0.000 HD
ENDBRANCH  26  29
ENDBRANCH  20  23
ENDBRANCH  19  20
ENDBRANCH  18  19
ENDBRANCH   3  18
TORSDOF 7
ENDMDL
