MODEL 1
REMARK VINA RESULT:    -8.809      0.000      0.000
REMARK INTER + INTRA:         -12.458
REMARK INTER:                 -12.157
REMARK INTRA:                  -0.301
REMARK UNBOUND:                -0.301
REMARK  Name = 
REMARK  8 active torsions:
REMARK  status: ('A' for Active; 'I' for Inactive)
REMARK    1  A    between atoms: C_1  and  C_2
REMARK    2  A    between atoms: C_4  and  C_5
REMARK    3  A    between atoms: C_10  and  N_11
REMARK    4  A    between atoms: N_11  and  C_12
REMARK    5  A    between atoms: C_12  and  C_13
REMARK    6  A    between atoms: C_17  and  C_18
REMARK    7  A    between atoms: C_22  and  C_23
REMARK    8  A    between atoms: C_23  and  O_24
REMARK                            x       y       z     vdW  Elec       q    Type
REMARK                         _______ _______ _______ _____ _____    ______ ____
ROOT
ATOM      1  C   UNL     1      44.199   4.823  11.411  0.00  0.00    +0.000 C 
ENDROOT
BRANCH   1   2
ATOM      2  C   UNL     1      45.338   5.675  11.931  0.00  0.00    +0.000 A 
ATOM      3  C   UNL     1      45.569   6.945  11.389  0.00  0.00    +0.000 A 
ATOM      4  C   UNL     1      46.567   7.764  11.913  0.00  0.00    +0.000 A 
ATOM      5  C   UNL     1      47.332   7.327  12.994  0.00  0.00    +0.000 A 
ATOM      6  C   UNL     1      47.114   6.071  13.588  0.00  0.00    +0.000 A 
ATOM      7  C   UNL     1      46.133   5.240  13.011  0.00  0.00    +0.000 A 
BRANCH   6   8
ATOM      8  C   UNL     1      47.817   5.693  14.832  0.00  0.00    +0.000 A 
ATOM      9  C   UNL     1      48.904   6.399  15.344  0.00  0.00    +0.000 A 
ATOM     10  N   UNL     1      49.616   6.039  16.444  0.00  0.00    +0.000 NA
ATOM     11  C   UNL     1      49.224   4.916  17.084  0.00  0.00    +0.000 A 
ATOM     12  C   UNL     1      48.139   4.140  16.698  0.00  0.00    +0.000 A 
ATOM     13  C   UNL     1      47.453   4.539  15.545  0.00  0.00    +0.000 A 
BRANCH  12  14
ATOM     14  C   UNL     1      47.791   2.879  17.432  0.00  0.00    +0.000 C 
BRANCH  14  15
ATOM     15  O   UNL     1      46.399   2.807  17.717  0.00  0.00    +0.000 OA
ATOM     16  H   UNL     1      45.927   2.972  16.883  0.00  0.00    +0.000 HD
ENDBRANCH  14  15
ENDBRANCH  12  14
ENDBRANCH   6   8
ENDBRANCH   1   2
BRANCH   1  17
ATOM     17  N   UNL     1      43.996   5.037   9.981  0.00  0.00    +0.000 N 
ATOM     18  H   UNL     1      44.103   6.012   9.727  0.00  0.00    +0.000 HD
BRANCH  17  25
ATOM     19  C   UNL     1      43.936   2.128  10.346  0.00  0.00    +0.000 C 
ATOM     20  C   UNL     1      44.820   2.828   9.353  0.00  0.00    +0.000 A 
ATOM     21  C   UNL     1      45.704   2.054   8.581  0.00  0.00    +0.000 A 
ATOM     22  C   UNL     1      46.555   2.654   7.652  0.00  0.00    +0.000 A 
ATOM     23  C   UNL     1      46.473   4.028   7.539  0.00  0.00    +0.000 A 
ATOM     24  N   UNL     1      45.631   4.806   8.270  0.00  0.00    +0.000 NA
ATOM     25  C   UNL     1      44.808   4.220   9.169  0.00  0.00    +0.000 A 
BRANCH  22  26
ATOM     26  C   UNL     1      47.479   1.801   6.870  0.00  0.00    +0.000 C 
ATOM     27  N   UNL     1      48.642   2.342   6.379  0.00  0.00    +0.000 N 
ATOM     28  O   UNL     1      47.220   0.622   6.653  0.00  0.00    +0.000 OA
ATOM     29  H   UNL     1      48.952   3.292   6.508  0.00  0.00    +0.000 HD
ATOM     30  H   UNL     1      49.240   1.713   5.861  0.00  0.00    +0.000 HD
ENDBRANCH  22  26
ENDBRANCH  17  25
ENDBRANCH   1  17
TORSDOF 7
ENDMDL
MODEL 2
REMARK VINA RESULT:    -8.146      3.411      3.945
REMARK INTER + INTRA:         -11.542
REMARK INTER:                 -10.871
REMARK INTRA:                  -0.671
REMARK UNBOUND:                -0.301
REMARK  Name = 
REMARK  8 active torsions:
REMARK  status: ('A' for Active; 'I' for Inactive)
REMARK    1  A    between atoms: C_1  and  C_2
REMARK    2  A    between atoms: C_4  and  C_5
REMARK    3  A    between atoms: C_10  and  N_11
REMARK    4  A    between atoms: N_11  and  C_12
REMARK    5  A    between atoms: C_12  and  C_13
REMARK    6  A    between atoms: C_17  and  C_18
REMARK    7  A    between atoms: C_22  and  C_23
REMARK    8  A    between atoms: C_23  and  O_24
REMARK                            x       y       z     vdW  Elec       q    Type
REMARK                         _______ _______ _______ _____ _____    ______ ____
ROOT
ATOM      1  C   UNL     1      45.025   5.273  11.436  0.00  0.00    +0.000 C 
ENDROOT
BRANCH   1   2
ATOM      2  C   UNL     1      45.653   6.628  11.693  0.00  0.00    +0.000 A 
ATOM      3  C   UNL     1      44.851   7.717  12.052  0.00  0.00    +0.000 A 
ATOM      4  C   UNL     1      45.428   8.946  12.364  0.00  0.00    +0.000 A 
ATOM      5  C   UNL     1      46.814   9.093  12.333  0.00  0.00    +0.000 A 
ATOM      6  C   UNL     1      47.659   8.017  12.006  0.00  0.00    +0.000 A 
ATOM      7  C   UNL     1      47.051   6.798  11.648  0.00  0.00    +0.000 A 
BRANCH   6   8
ATOM      8  C   UNL     1      49.126   8.144  12.141  0.00  0.00    +0.000 A 
ATOM      9  C   UNL     1      49.746   8.815  13.193  0.00  0.00    +0.000 A 
ATOM     10  N   UNL     1      51.085   9.010  13.308  0.00  0.00    +0.000 NA
ATOM     11  C   UNL     1      51.863   8.502  12.328  0.00  0.00    +0.000 A 
ATOM     12  C   UNL     1      51.376   7.785  11.244  0.00  0.00    +0.000 A 
ATOM     13  C   UNL     1      49.988   7.631  11.156  0.00  0.00    +0.000 A 
BRANCH  12  14
ATOM     14  C   UNL     1      52.298   7.289  10.168  0.00  0.00    +0.000 C 
BRANCH  14  15
ATOM     15  O   UNL     1      53.353   6.500  10.706  0.00  0.00    +0.000 OA
ATOM     16  H   UNL     1      53.827   7.056  11.347  0.00  0.00    +0.000 HD
ENDBRANCH  14  15
ENDBRANCH  12  14
ENDBRANCH   6   8
ENDBRANCH   1   2
BRANCH   1  17
ATOM     17  N   UNL     1      44.439   5.213  10.100  0.00  0.00    +0.000 N 
ATOM     18  H   UNL     1      44.320   6.136   9.699  0.00  0.00    +0.000 HD
BRANCH  17  25
ATOM     19  C   UNL     1      44.097   2.307  10.294  0.00  0.00    +0.000 C 
ATOM     20  C   UNL     1      45.020   2.977   9.315  0.00  0.00    +0.000 A 
ATOM     21  C   UNL     1      45.800   2.170   8.469  0.00  0.00    +0.000 A 
ATOM     22  C   UNL     1      46.681   2.740   7.550  0.00  0.00    +0.000 A 
ATOM     23  C   UNL     1      46.734   4.119   7.523  0.00  0.00    +0.000 A 
ATOM     24  N   UNL     1      45.996   4.930   8.326  0.00  0.00    +0.000 NA
ATOM     25  C   UNL     1      45.142   4.372   9.215  0.00  0.00    +0.000 A 
BRANCH  22  26
ATOM     26  C   UNL     1      47.493   1.851   6.689  0.00  0.00    +0.000 C 
ATOM     27  N   UNL     1      48.613   2.351   6.071  0.00  0.00    +0.000 N 
ATOM     28  O   UNL     1      47.180   0.677   6.518  0.00  0.00    +0.000 OA
ATOM     29  H   UNL     1      48.961   3.293   6.152  0.00  0.00    +0.000 HD
ATOM     30  H   UNL     1      49.136   1.699   5.502  0.00  0.00    +0.000 HD
ENDBRANCH  22  26
ENDBRANCH  17  25
ENDBRANCH   1  17
TORSDOF 7
ENDMDL
MODEL 3
REMARK VINA RESULT:    -8.045      2.956      4.532
REMARK INTER + INTRA:         -11.402
REMARK INTER:                 -10.327
REMARK INTRA:                  -1.076
REMARK UNBOUND:                -0.301
REMARK  Name = 
REMARK  8 active torsions:
REMARK  status: ('A' for Active; 'I' for Inactive)
REMARK    1  A    between atoms: C_1  and  C_2
REMARK    2  A    between atoms: C_4  and  C_5
REMARK    3  A    between atoms: C_10  and  N_11
REMARK    4  A    between atoms: N_11  and  C_12
REMARK    5  A    between atoms: C_12  and  C_13
REMARK    6  A    between atoms: C_17  and  C_18
REMARK    7  A    between atoms: C_22  and  C_23
REMARK    8  A    between atoms: C_23  and  O_24
REMARK                            x       y       z     vdW  Elec       q    Type
REMARK                         _______ _______ _______ _____ _____    ______ ____
ROOT
ATOM      1  C   UNL     1      44.070   3.050  11.896  0.00  0.00    +0.000 C 
ENDROOT
BRANCH   1   2
ATOM      2  C   UNL     1      45.112   3.927  12.560  0.00  0.00    +0.000 A 
ATOM      3  C   UNL     1      46.169   3.345  13.270  0.00  0.00    +0.000 A 
ATOM      4  C   UNL     1      47.172   4.140  13.819  0.00  0.00    +0.000 A 
ATOM      5  C   UNL     1      47.135   5.524  13.651  0.00  0.00    +0.000 A 
ATOM      6  C   UNL     1      46.107   6.148  12.920  0.00  0.00    +0.000 A 
ATOM      7  C   UNL     1      45.078   5.328  12.415  0.00  0.00    +0.000 A 
BRANCH   6   8
ATOM      8  C   UNL     1      46.172   7.591  12.610  0.00  0.00    +0.000 A 
ATOM      9  C   UNL     1      47.257   8.401  12.943  0.00  0.00    +0.000 A 
ATOM     10  N   UNL     1      47.318   9.742  12.737  0.00  0.00    +0.000 NA
ATOM     11  C   UNL     1      46.244  10.320  12.156  0.00  0.00    +0.000 A 
ATOM     12  C   UNL     1      45.115   9.625  11.746  0.00  0.00    +0.000 A 
ATOM     13  C   UNL     1      45.089   8.249  12.002  0.00  0.00    +0.000 A 
BRANCH  12  14
ATOM     14  C   UNL     1      43.940  10.342  11.149  0.00  0.00    +0.000 C 
BRANCH  14  15
ATOM     15  O   UNL     1      43.380   9.613  10.062  0.00  0.00    +0.000 OA
ATOM     16  H   UNL     1      42.518   9.274  10.360  0.00  0.00    +0.000 HD
ENDBRANCH  14  15
ENDBRANCH  12  14
ENDBRANCH   6   8
ENDBRANCH   1   2
BRANCH   1  17
ATOM     17  N   UNL     1      43.743   3.546  10.562  0.00  0.00    +0.000 N 
ATOM     18  H   UNL     1      43.563   4.544  10.565  0.00  0.00    +0.000 HD
BRANCH  17  25
ATOM     19  C   UNL     1      45.302   5.681   9.294  0.00  0.00    +0.000 C 
ATOM     20  C   UNL     1      45.436   4.227   8.943  0.00  0.00    +0.000 A 
ATOM     21  C   UNL     1      46.328   3.865   7.918  0.00  0.00    +0.000 A 
ATOM     22  C   UNL     1      46.483   2.530   7.545  0.00  0.00    +0.000 A 
ATOM     23  C   UNL     1      45.723   1.605   8.234  0.00  0.00    +0.000 A 
ATOM     24  N   UNL     1      44.852   1.920   9.228  0.00  0.00    +0.000 NA
ATOM     25  C   UNL     1      44.705   3.216   9.588  0.00  0.00    +0.000 A 
BRANCH  22  26
ATOM     26  C   UNL     1      47.423   2.195   6.451  0.00  0.00    +0.000 C 
ATOM     27  N   UNL     1      47.350   2.887   5.266  0.00  0.00    +0.000 N 
ATOM     28  O   UNL     1      48.263   1.312   6.587  0.00  0.00    +0.000 OA
ATOM     29  H   UNL     1      46.707   3.632   5.056  0.00  0.00    +0.000 HD
ATOM     30  H   UNL     1      48.021   2.624   4.557  0.00  0.00    +0.000 HD
ENDBRANCH  22  26
ENDBRANCH  17  25
ENDBRANCH   1  17
TORSDOF 7
ENDMDL
MODEL 4
REMARK VINA RESULT:    -7.658      2.884      7.904
REMARK INTER + INTRA:         -10.869
REMARK INTER:                  -9.828
REMARK INTRA:                  -1.040
REMARK UNBOUND:                -0.301
REMARK  Name = 
REMARK  8 active torsions:
REMARK  status: ('A' for Active; 'I' for Inactive)
REMARK    1  A    between atoms: C_1  and  C_2
REMARK    2  A    between atoms: C_4  and  C_5
REMARK    3  A    between atoms: C_10  and  N_11
REMARK    4  A    between atoms: N_11  and  C_12
REMARK    5  A    between atoms: C_12  and  C_13
REMARK    6  A    between atoms: C_17  and  C_18
REMARK    7  A    between atoms: C_22  and  C_23
REMARK    8  A    between atoms: C_23  and  O_24
REMARK                            x       y       z     vdW  Elec       q    Type
REMARK                         _______ _______ _______ _____ _____    ______ ____
ROOT
ATOM      1  C   UNL     1      49.085   7.435  15.792  0.00  0.00    +0.000 C 
ENDROOT
BRANCH   1   2
ATOM      2  C   UNL     1      48.546   7.377  14.378  0.00  0.00    +0.000 A 
ATOM      3  C   UNL     1      49.190   8.077  13.351  0.00  0.00    +0.000 A 
ATOM      4  C   UNL     1      48.746   7.969  12.036  0.00  0.00    +0.000 A 
ATOM      5  C   UNL     1      47.662   7.145  11.732  0.00  0.00    +0.000 A 
ATOM      6  C   UNL     1      47.004   6.401  12.727  0.00  0.00    +0.000 A 
ATOM      7  C   UNL     1      47.440   6.564  14.057  0.00  0.00    +0.000 A 
BRANCH   6   8
ATOM      8  C   UNL     1      45.969   5.410  12.366  0.00  0.00    +0.000 A 
ATOM      9  C   UNL     1      45.307   4.614  13.300  0.00  0.00    +0.000 A 
ATOM     10  N   UNL     1      44.404   3.646  12.995  0.00  0.00    +0.000 NA
ATOM     11  C   UNL     1      44.129   3.458  11.686  0.00  0.00    +0.000 A 
ATOM     12  C   UNL     1      44.692   4.203  10.660  0.00  0.00    +0.000 A 
ATOM     13  C   UNL     1      45.635   5.172  11.022  0.00  0.00    +0.000 A 
BRANCH  12  14
ATOM     14  C   UNL     1      44.372   3.906   9.224  0.00  0.00    +0.000 C 
BRANCH  14  15
ATOM     15  O   UNL     1      45.119   4.733   8.339  0.00  0.00    +0.000 OA
ATOM     16  H   UNL     1      45.721   5.266   8.886  0.00  0.00    +0.000 HD
ENDBRANCH  14  15
ENDBRANCH  12  14
ENDBRANCH   6   8
ENDBRANCH   1   2
BRANCH   1  17
ATOM     17  N   UNL     1      48.435   6.440  16.641  0.00  0.00    +0.000 N 
ATOM     18  H   UNL     1      47.527   6.172  16.279  0.00  0.00    +0.000 HD
BRANCH  17  25
ATOM     19  C   UNL     1      47.163   3.805  16.825  0.00  0.00    +0.000 C 
ATOM     20  C   UNL     1      48.636   4.037  17.011  0.00  0.00    +0.000 A 
ATOM     21  C   UNL     1      49.451   2.939  17.335  0.00  0.00    +0.000 A 
ATOM     22  C   UNL     1      50.823   3.101  17.531  0.00  0.00    +0.000 A 
ATOM     23  C   UNL     1      51.319   4.381  17.384  0.00  0.00    +0.000 A 
ATOM     24  N   UNL     1      50.560   5.465  17.072  0.00  0.00    +0.000 NA
ATOM     25  C   UNL     1      49.230   5.303  16.884  0.00  0.00    +0.000 A 
BRANCH  22  26
ATOM     26  C   UNL     1      51.642   1.919  17.884  0.00  0.00    +0.000 C 
ATOM     27  N   UNL     1      52.801   2.093  18.600  0.00  0.00    +0.000 N 
ATOM     28  O   UNL     1      51.301   0.790  17.547  0.00  0.00    +0.000 OA
ATOM     29  H   UNL     1      53.165   2.971  18.932  0.00  0.00    +0.000 HD
ATOM     30  H   UNL     1      53.316   1.251  18.822  0.00  0.00    +0.000 HD
ENDBRANCH  22  26
ENDBRANCH  17  25
ENDBRANCH   1  17
TORSDOF 7
ENDMDL
MODEL 5
REMARK VINA RESULT:    -7.630      2.305      8.415
REMARK INTER + INTRA:         -10.831
REMARK INTER:                 -10.136
REMARK INTRA:                  -0.695
REMARK UNBOUND:                -0.301
REMARK  Name = 
REMARK  8 active torsions:
REMARK  status: ('A' for Active; 'I' for Inactive)
REMARK    1  A    between atoms: C_1  and  C_2
REMARK    2  A    between atoms: C_4  and  C_5
REMARK    3  A    between atoms: C_10  and  N_11
REMARK    4  A    between atoms: N_11  and  C_12
REMARK    5  A    between atoms: C_12  and  C_13
REMARK    6  A    between atoms: C_17  and  C_18
REMARK    7  A    between atoms: C_22  and  C_23
REMARK    8  A    between atoms: C_23  and  O_24
REMARK                            x       y       z     vdW  Elec       q    Type
REMARK                         _______ _______ _______ _____ _____    ______ ____
ROOT
ATOM      1  C   UNL     1      48.286   6.703  14.109  0.00  0.00    +0.000 C 
ENDROOT
BRANCH   1   2
ATOM      2  C   UNL     1      47.054   6.843  13.238  0.00  0.00    +0.000 A 
ATOM      3  C   UNL     1      46.441   8.092  13.085  0.00  0.00    +0.000 A 
ATOM      4  C   UNL     1      45.355   8.244  12.227  0.00  0.00    +0.000 A 
ATOM      5  C   UNL     1      44.880   7.151  11.502  0.00  0.00    +0.000 A 
ATOM      6  C   UNL     1      45.485   5.886  11.603  0.00  0.00    +0.000 A 
ATOM      7  C   UNL     1      46.551   5.745  12.513  0.00  0.00    +0.000 A 
BRANCH   6   8
ATOM      8  C   UNL     1      45.078   4.783  10.707  0.00  0.00    +0.000 A 
ATOM      9  C   UNL     1      44.236   3.744  11.100  0.00  0.00    +0.000 A 
ATOM     10  N   UNL     1      43.901   2.680  10.324  0.00  0.00    +0.000 NA
ATOM     11  C   UNL     1      44.421   2.644   9.078  0.00  0.00    +0.000 A 
ATOM     12  C   UNL     1      45.245   3.630   8.552  0.00  0.00    +0.000 A 
ATOM     13  C   UNL     1      45.582   4.694   9.398  0.00  0.00    +0.000 A 
BRANCH  12  14
ATOM     14  C   UNL     1      45.823   3.499   7.174  0.00  0.00    +0.000 C 
BRANCH  14  15
ATOM     15  O   UNL     1      46.964   4.333   7.003  0.00  0.00    +0.000 OA
ATOM     16  H   UNL     1      47.046   4.514   6.051  0.00  0.00    +0.000 HD
ENDBRANCH  14  15
ENDBRANCH  12  14
ENDBRANCH   6   8
ENDBRANCH   1   2
BRANCH   1  17
ATOM     17  N   UNL     1      47.917   6.435  15.497  0.00  0.00    +0.000 N 
ATOM     18  H   UNL     1      47.021   5.968  15.565  0.00  0.00    +0.000 HD
BRANCH  17  25
ATOM     19  C   UNL     1      47.170   4.014  16.971  0.00  0.00    +0.000 C 
ATOM     20  C   UNL     1      48.558   4.588  16.956  0.00  0.00    +0.000 A 
ATOM     21  C   UNL     1      49.552   3.958  17.725  0.00  0.00    +0.000 A 
ATOM     22  C   UNL     1      50.855   4.456  17.755  0.00  0.00    +0.000 A 
ATOM     23  C   UNL     1      51.101   5.582  16.994  0.00  0.00    +0.000 A 
ATOM     24  N   UNL     1      50.165   6.216  16.240  0.00  0.00    +0.000 NA
ATOM     25  C   UNL     1      48.903   5.729  16.214  0.00  0.00    +0.000 A 
BRANCH  22  26
ATOM     26  C   UNL     1      51.867   3.769  18.589  0.00  0.00    +0.000 C 
ATOM     27  N   UNL     1      52.259   2.494  18.258  0.00  0.00    +0.000 N 
ATOM     28  O   UNL     1      52.357   4.319  19.570  0.00  0.00    +0.000 OA
ATOM     29  H   UNL     1      51.926   1.959  17.473  0.00  0.00    +0.000 HD
ATOM     30  H   UNL     1      52.959   2.076  18.856  0.00  0.00    +0.000 HD
ENDBRANCH  22  26
ENDBRANCH  17  25
ENDBRANCH   1  17
TORSDOF 7
ENDMDL
MODEL 6
REMARK VINA RESULT:    -7.602      3.090      7.738
REMARK INTER + INTRA:         -10.792
REMARK INTER:                  -9.664
REMARK INTRA:                  -1.128
REMARK UNBOUND:                -0.301
REMARK  Name = 
REMARK  8 active torsions:
REMARK  status: ('A' for Active; 'I' for Inactive)
REMARK    1  A    between atoms: C_1  and  C_2
REMARK    2  A    between atoms: C_4  and  C_5
REMARK    3  A    between atoms: C_10  and  N_11
REMARK    4  A    between atoms: N_11  and  C_12
REMARK    5  A    between atoms: C_12  and  C_13
REMARK    6  A    between atoms: C_17  and  C_18
REMARK    7  A    between atoms: C_22  and  C_23
REMARK    8  A    between atoms: C_23  and  O_24
REMARK                            x       y       z     vdW  Elec       q    Type
REMARK                         _______ _______ _______ _____ _____    ______ ____
ROOT
ATOM      1  C   UNL     1      44.838   7.273  11.160  0.00  0.00    +0.000 C 
ENDROOT
BRANCH   1   2
ATOM      2  C   UNL     1      44.502   5.804  11.009  0.00  0.00    +0.000 A 
ATOM      3  C   UNL     1      43.414   5.258  11.700  0.00  0.00    +0.000 A 
ATOM      4  C   UNL     1      43.054   3.926  11.509  0.00  0.00    +0.000 A 
ATOM      5  C   UNL     1      43.769   3.132  10.613  0.00  0.00    +0.000 A 
ATOM      6  C   UNL     1      44.850   3.648   9.876  0.00  0.00    +0.000 A 
ATOM      7  C   UNL     1      45.226   4.983  10.122  0.00  0.00    +0.000 A 
BRANCH   6   8
ATOM      8  C   UNL     1      45.489   2.844   8.813  0.00  0.00    +0.000 A 
ATOM      9  C   UNL     1      45.682   1.467   8.902  0.00  0.00    +0.000 A 
ATOM     10  N   UNL     1      46.328   0.712   7.976  0.00  0.00    +0.000 NA
ATOM     11  C   UNL     1      46.804   1.354   6.887  0.00  0.00    +0.000 A 
ATOM     12  C   UNL     1      46.650   2.715   6.660  0.00  0.00    +0.000 A 
ATOM     13  C   UNL     1      45.999   3.455   7.655  0.00  0.00    +0.000 A 
BRANCH  12  14
ATOM     14  C   UNL     1      47.247   3.369   5.448  0.00  0.00    +0.000 C 
BRANCH  14  15
ATOM     15  O   UNL     1      48.312   2.596   4.908  0.00  0.00    +0.000 OA
ATOM     16  H   UNL     1      47.925   1.765   4.582  0.00  0.00    +0.000 HD
ENDBRANCH  14  15
ENDBRANCH  12  14
ENDBRANCH   6   8
ENDBRANCH   1   2
BRANCH   1  17
ATOM     17  N   UNL     1      45.444   7.541  12.461  0.00  0.00    +0.000 N 
ATOM     18  H   UNL     1      45.205   6.829  13.141  0.00  0.00    +0.000 HD
BRANCH  17  25
ATOM     19  C   UNL     1      47.223   5.383  13.340  0.00  0.00    +0.000 C 
ATOM     20  C   UNL     1      47.708   6.719  12.854  0.00  0.00    +0.000 A 
ATOM     21  C   UNL     1      49.090   6.973  12.858  0.00  0.00    +0.000 A 
ATOM     22  C   UNL     1      49.592   8.201  12.427  0.00  0.00    +0.000 A 
ATOM     23  C   UNL     1      48.664   9.131  12.002  0.00  0.00    +0.000 A 
ATOM     24  N   UNL     1      47.322   8.919  11.985  0.00  0.00    +0.000 NA
ATOM     25  C   UNL     1      46.839   7.727  12.403  0.00  0.00    +0.000 A 
BRANCH  22  26
ATOM     26  C   UNL     1      51.055   8.430  12.462  0.00  0.00    +0.000 C 
ATOM     27  N   UNL     1      51.619   9.016  13.569  0.00  0.00    +0.000 N 
ATOM     28  O   UNL     1      51.768   8.106  11.517  0.00  0.00    +0.000 OA
ATOM     29  H   UNL     1      51.127   9.309  14.397  0.00  0.00    +0.000 HD
ATOM     30  H   UNL     1      52.622   9.139  13.543  0.00  0.00    +0.000 HD
ENDBRANCH  22  26
ENDBRANCH  17  25
ENDBRANCH   1  17
TORSDOF 7
ENDMDL
MODEL 7
REMARK VINA RESULT:    -7.087      2.069      8.594
REMARK INTER + INTRA:         -10.081
REMARK INTER:                  -9.390
REMARK INTRA:                  -0.691
REMARK UNBOUND:                -0.301
REMARK  Name = 
REMARK  8 active torsions:
REMARK  status: ('A' for Active; 'I' for Inactive)
REMARK    1  A    between atoms: C_1  and  C_2
REMARK    2  A    between atoms: C_4  and  C_5
REMARK    3  A    between atoms: C_10  and  N_11
REMARK    4  A    between atoms: N_11  and  C_12
REMARK    5  A    between atoms: C_12  and  C_13
REMARK    6  A    between atoms: C_17  and  C_18
REMARK    7  A    between atoms: C_22  and  C_23
REMARK    8  A    between atoms: C_23  and  O_24
REMARK                            x       y       z     vdW  Elec       q    Type
REMARK                         _______ _______ _______ _____ _____    ______ ____
ROOT
ATOM      1  C   UNL     1      45.235   4.742  13.614  0.00  0.00    +0.000 C 
ENDROOT
BRANCH   1   2
ATOM      2  C   UNL     1      44.715   4.657  12.194  0.00  0.00    +0.000 A 
ATOM      3  C   UNL     1      43.795   5.603  11.726  0.00  0.00    +0.000 A 
ATOM      4  C   UNL     1      43.369   5.576  10.400  0.00  0.00    +0.000 A 
ATOM      5  C   UNL     1      43.871   4.613   9.525  0.00  0.00    +0.000 A 
ATOM      6  C   UNL     1      44.818   3.662   9.946  0.00  0.00    +0.000 A 
ATOM      7  C   UNL     1      45.198   3.678  11.303  0.00  0.00    +0.000 A 
BRANCH   6   8
ATOM      8  C   UNL     1      45.462   2.757   8.970  0.00  0.00    +0.000 A 
ATOM      9  C   UNL     1      45.409   1.367   9.060  0.00  0.00    +0.000 A 
ATOM     10  N   UNL     1      46.047   0.510   8.222  0.00  0.00    +0.000 NA
ATOM     11  C   UNL     1      46.777   1.058   7.227  0.00  0.00    +0.000 A 
ATOM     12  C   UNL     1      46.887   2.424   7.006  0.00  0.00    +0.000 A 
ATOM     13  C   UNL     1      46.231   3.268   7.910  0.00  0.00    +0.000 A 
BRANCH  12  14
ATOM     14  C   UNL     1      47.754   2.963   5.906  0.00  0.00    +0.000 C 
BRANCH  14  15
ATOM     15  O   UNL     1      48.555   1.941   5.324  0.00  0.00    +0.000 OA
ATOM     16  H   UNL     1      47.993   1.465   4.689  0.00  0.00    +0.000 HD
ENDBRANCH  14  15
ENDBRANCH  12  14
ENDBRANCH   6   8
ENDBRANCH   1   2
BRANCH   1  17
ATOM     17  N   UNL     1      46.651   4.387  13.674  0.00  0.00    +0.000 N 
ATOM     18  H   UNL     1      47.191   4.873  12.967  0.00  0.00    +0.000 HD
BRANCH  17  25
ATOM     19  C   UNL     1      48.302   6.754  14.192  0.00  0.00    +0.000 C 
ATOM     20  C   UNL     1      48.046   5.675  15.206  0.00  0.00    +0.000 A 
ATOM     21  C   UNL     1      48.664   5.778  16.464  0.00  0.00    +0.000 A 
ATOM     22  C   UNL     1      48.469   4.799  17.438  0.00  0.00    +0.000 A 
ATOM     23  C   UNL     1      47.643   3.746  17.096  0.00  0.00    +0.000 A 
ATOM     24  N   UNL     1      47.030   3.615  15.890  0.00  0.00    +0.000 NA
ATOM     25  C   UNL     1      47.222   4.568  14.949  0.00  0.00    +0.000 A 
BRANCH  22  26
ATOM     26  C   UNL     1      49.151   4.941  18.745  0.00  0.00    +0.000 C 
ATOM     27  N   UNL     1      50.239   5.772  18.849  0.00  0.00    +0.000 N 
ATOM     28  O   UNL     1      48.760   4.326  19.732  0.00  0.00    +0.000 OA
ATOM     29  H   UNL     1      50.633   6.326  18.105  0.00  0.00    +0.000 HD
ATOM     30  H   UNL     1      50.661   5.839  19.766  0.00  0.00    +0.000 HD
ENDBRANCH  22  26
ENDBRANCH  17  25
ENDBRANCH   1  17
TORSDOF 7
ENDMDL
MODEL 8
REMARK VINA RESULT:    -6.923      3.638      5.200
REMARK INTER + INTRA:          -9.855
REMARK INTER:                  -8.627
REMARK INTRA:                  -1.228
REMARK UNBOUND:                -0.301
REMARK  Name = 
REMARK  8 active torsions:
REMARK  status: ('A' for Active; 'I' for Inactive)
REMARK    1  A    between atoms: C_1  and  C_2
REMARK    2  A    between atoms: C_4  and  C_5
REMARK    3  A    between atoms: C_10  and  N_11
REMARK    4  A    between atoms: N_11  and  C_12
REMARK    5  A    between atoms: C_12  and  C_13
REMARK    6  A    between atoms: C_17  and  C_18
REMARK    7  A    between atoms: C_22  and  C_23
REMARK    8  A    between atoms: C_23  and  O_24
REMARK                            x       y       z     vdW  Elec       q    Type
REMARK                         _______ _______ _______ _____ _____    ______ ____
ROOT
ATOM      1  C   UNL     1      48.401   8.102  13.680  0.00  0.00    +0.000 C 
ENDROOT
BRANCH   1   2
ATOM      2  C   UNL     1      48.794   8.000  15.140  0.00  0.00    +0.000 A 
ATOM      3  C   UNL     1      48.246   8.884  16.077  0.00  0.00    +0.000 A 
ATOM      4  C   UNL     1      48.543   8.749  17.431  0.00  0.00    +0.000 A 
ATOM      5  C   UNL     1      49.379   7.720  17.862  0.00  0.00    +0.000 A 
ATOM      6  C   UNL     1      49.927   6.792  16.958  0.00  0.00    +0.000 A 
ATOM      7  C   UNL     1      49.652   6.977  15.589  0.00  0.00    +0.000 A 
BRANCH   6   8
ATOM      8  C   UNL     1      50.672   5.613  17.448  0.00  0.00    +0.000 A 
ATOM      9  C   UNL     1      51.855   5.701  18.181  0.00  0.00    +0.000 A 
ATOM     10  N   UNL     1      52.600   4.639  18.583  0.00  0.00    +0.000 NA
ATOM     11  C   UNL     1      52.144   3.412  18.251  0.00  0.00    +0.000 A 
ATOM     12  C   UNL     1      50.966   3.184  17.554  0.00  0.00    +0.000 A 
ATOM     13  C   UNL     1      50.245   4.310  17.140  0.00  0.00    +0.000 A 
BRANCH  12  14
ATOM     14  C   UNL     1      50.546   1.792  17.181  0.00  0.00    +0.000 C 
BRANCH  14  15
ATOM     15  O   UNL     1      49.580   1.800  16.135  0.00  0.00    +0.000 OA
ATOM     16  H   UNL     1      49.846   1.118  15.496  0.00  0.00    +0.000 HD
ENDBRANCH  14  15
ENDBRANCH  12  14
ENDBRANCH   6   8
ENDBRANCH   1   2
BRANCH   1  17
ATOM     17  N   UNL     1      48.315   6.779  13.068  0.00  0.00    +0.000 N 
ATOM     18  H   UNL     1      48.779   6.074  13.629  0.00  0.00    +0.000 HD
BRANCH  17  25
ATOM     19  C   UNL     1      47.064   4.618  14.605  0.00  0.00    +0.000 C 
ATOM     20  C   UNL     1      46.394   5.327  13.463  0.00  0.00    +0.000 A 
ATOM     21  C   UNL     1      45.110   4.909  13.075  0.00  0.00    +0.000 A 
ATOM     22  C   UNL     1      44.447   5.526  12.014  0.00  0.00    +0.000 A 
ATOM     23  C   UNL     1      45.118   6.556  11.385  0.00  0.00    +0.000 A 
ATOM     24  N   UNL     1      46.359   6.986  11.733  0.00  0.00    +0.000 NA
ATOM     25  C   UNL     1      46.998   6.385  12.763  0.00  0.00    +0.000 A 
BRANCH  22  26
ATOM     26  C   UNL     1      43.101   5.043  11.631  0.00  0.00    +0.000 C 
ATOM     27  N   UNL     1      42.029   5.898  11.717  0.00  0.00    +0.000 N 
ATOM     28  O   UNL     1      42.929   3.893  11.240  0.00  0.00    +0.000 OA
ATOM     29  H   UNL     1      42.063   6.859  12.015  0.00  0.00    +0.000 HD
ATOM     30  H   UNL     1      41.135   5.519  11.434  0.00  0.00    +0.000 HD
ENDBRANCH  22  26
ENDBRANCH  17  25
ENDBRANCH   1  17
TORSDOF 7
ENDMDL
MODEL 9
REMARK VINA RESULT:    -6.753      1.965      2.949
REMARK INTER + INTRA:          -9.621
REMARK INTER:                  -8.804
REMARK INTRA:                  -0.817
REMARK UNBOUND:                -0.301
REMARK  Name = 
REMARK  8 active torsions:
REMARK  status: ('A' for Active; 'I' for Inactive)
REMARK    1  A    between atoms: C_1  and  C_2
REMARK    2  A    between atoms: C_4  and  C_5
REMARK    3  A    between atoms: C_10  and  N_11
REMARK    4  A    between atoms: N_11  and  C_12
REMARK    5  A    between atoms: C_12  and  C_13
REMARK    6  A    between atoms: C_17  and  C_18
REMARK    7  A    between atoms: C_22  and  C_23
REMARK    8  A    between atoms: C_23  and  O_24
REMARK                            x       y       z     vdW  Elec       q    Type
REMARK                         _______ _______ _______ _____ _____    ______ ____
ROOT
ATOM      1  C   UNL     1      45.450   8.450  12.195  0.00  0.00    +0.000 C 
ENDROOT
BRANCH   1   2
ATOM      2  C   UNL     1      46.847   8.605  12.761  0.00  0.00    +0.000 A 
ATOM      3  C   UNL     1      47.596   9.752  12.476  0.00  0.00    +0.000 A 
ATOM      4  C   UNL     1      48.850   9.938  13.053  0.00  0.00    +0.000 A 
ATOM      5  C   UNL     1      49.360   8.984  13.933  0.00  0.00    +0.000 A 
ATOM      6  C   UNL     1      48.628   7.831  14.271  0.00  0.00    +0.000 A 
ATOM      7  C   UNL     1      47.384   7.642  13.637  0.00  0.00    +0.000 A 
BRANCH   6   8
ATOM      8  C   UNL     1      49.108   6.917  15.328  0.00  0.00    +0.000 A 
ATOM      9  C   UNL     1      50.439   6.845  15.736  0.00  0.00    +0.000 A 
ATOM     10  N   UNL     1      50.924   5.968  16.653  0.00  0.00    +0.000 NA
ATOM     11  C   UNL     1      50.038   5.114  17.210  0.00  0.00    +0.000 A 
ATOM     12  C   UNL     1      48.682   5.103  16.918  0.00  0.00    +0.000 A 
ATOM     13  C   UNL     1      48.234   6.009  15.949  0.00  0.00    +0.000 A 
BRANCH  12  14
ATOM     14  C   UNL     1      47.764   4.094  17.544  0.00  0.00    +0.000 C 
BRANCH  14  15
ATOM     15  O   UNL     1      47.165   3.253  16.564  0.00  0.00    +0.000 OA
ATOM     16  H   UNL     1      46.306   3.647  16.337  0.00  0.00    +0.000 HD
ENDBRANCH  14  15
ENDBRANCH  12  14
ENDBRANCH   6   8
ENDBRANCH   1   2
BRANCH   1  17
ATOM     17  N   UNL     1      44.830   7.214  12.664  0.00  0.00    +0.000 N 
ATOM     18  H   UNL     1      43.910   7.380  13.055  0.00  0.00    +0.000 HD
BRANCH  17  25
ATOM     19  C   UNL     1      43.018   4.938  13.032  0.00  0.00    +0.000 C 
ATOM     20  C   UNL     1      43.947   5.087  11.860  0.00  0.00    +0.000 A 
ATOM     21  C   UNL     1      43.986   4.059  10.902  0.00  0.00    +0.000 A 
ATOM     22  C   UNL     1      44.839   4.141   9.801  0.00  0.00    +0.000 A 
ATOM     23  C   UNL     1      45.622   5.274   9.711  0.00  0.00    +0.000 A 
ATOM     24  N   UNL     1      45.609   6.286  10.619  0.00  0.00    +0.000 NA
ATOM     25  C   UNL     1      44.781   6.203  11.685  0.00  0.00    +0.000 A 
BRANCH  22  26
ATOM     26  C   UNL     1      44.857   3.028   8.824  0.00  0.00    +0.000 C 
ATOM     27  N   UNL     1      44.635   1.745   9.262  0.00  0.00    +0.000 N 
ATOM     28  O   UNL     1      45.069   3.235   7.634  0.00  0.00    +0.000 OA
ATOM     29  H   UNL     1      44.444   1.469  10.211  0.00  0.00    +0.000 HD
ATOM     30  H   UNL     1      44.650   1.025   8.551  0.00  0.00    +0.000 HD
ENDBRANCH  22  26
ENDBRANCH  17  25
ENDBRANCH   1  17
TORSDOF 7
ENDMDL
