MODEL 1
REMARK VINA RESULT:    -8.017      0.000      0.000
REMARK INTER + INTRA:         -10.370
REMARK INTER:                 -10.127
REMARK INTRA:                  -0.244
REMARK UNBOUND:                -0.244
REMARK  Name = 
REMARK  5 active torsions:
REMARK  status: ('A' for Active; 'I' for Inactive)
REMARK    1  A    between atoms: N_1  and  C_2
REMARK    2  A    between atoms: C_2  and  C_3
REMARK    3  A    between atoms: C_5  and  C_6
REMARK    4  A    between atoms: C_6  and  N_7
REMARK    5  A    between atoms: C_12  and  C_13
REMARK                            x       y       z     vdW  Elec       q    Type
REMARK                         _______ _______ _______ _____ _____    ______ ____
ROOT
ATOM      1  N   UNL     1      44.042   4.367  10.514  0.00  0.00    +0.000 N 
ATOM      2  C   UNL     1      43.466   3.289  11.141  0.00  0.00    +0.000 A 
ATOM      3  C   UNL     1      43.981   2.146  10.581  0.00  0.00    +0.000 A 
ATOM      4  C   UNL     1      44.885   2.536   9.557  0.00  0.00    +0.000 A 
ATOM      5  C   UNL     1      45.694   1.810   8.659  0.00  0.00    +0.000 A 
ATOM      6  C   UNL     1      46.479   2.493   7.720  0.00  0.00    +0.000 A 
ATOM      7  C   UNL     1      46.467   3.894   7.702  0.00  0.00    +0.000 A 
ATOM      8  C   UNL     1      45.686   4.637   8.597  0.00  0.00    +0.000 A 
ATOM      9  C   UNL     1      44.896   3.934   9.519  0.00  0.00    +0.000 A 
ENDROOT
BRANCH   6  10
ATOM     10  C   UNL     1      47.332   1.789   6.718  0.00  0.00    +0.000 C 
ATOM     11  N   UNL     1      48.331   2.487   6.095  0.00  0.00    +0.000 N 
ATOM     12  O   UNL     1      47.163   0.604   6.451  0.00  0.00    +0.000 OA
ATOM     13  H   UNL     1      48.572   3.447   6.277  0.00  0.00    +0.000 HD
ATOM     14  H   UNL     1      48.907   1.971   5.443  0.00  0.00    +0.000 HD
ENDBRANCH   6  10
BRANCH   1  15
ATOM     15  C   UNL     1      43.825   5.745  10.929  0.00  0.00    +0.000 C 
BRANCH  15  18
ATOM     16  C   UNL     1      46.314   5.696  13.731  0.00  0.00    +0.000 C 
ATOM     17  C   UNL     1      45.004   5.199  13.141  0.00  0.00    +0.000 C 
ATOM     18  C   UNL     1      44.755   6.213  12.042  0.00  0.00    +0.000 C 
ATOM     19  C   UNL     1      46.169   6.470  11.536  0.00  0.00    +0.000 C 
ATOM     20  O   UNL     1      47.071   6.236  12.629  0.00  0.00    +0.000 OA
BRANCH  16  21
ATOM     21  C   UNL     1      47.125   4.628  14.483  0.00  0.00    +0.000 C 
BRANCH  21  22
ATOM     22  N   UNL     1      47.101   3.319  13.822  0.00  0.00    +0.000 NA
ATOM     23  H   UNL     1      46.731   2.624  14.471  0.00  0.00    +0.000 HD
ATOM     24  H   UNL     1      48.070   3.049  13.639  0.00  0.00    +0.000 HD
ENDBRANCH  21  22
ENDBRANCH  16  21
ENDBRANCH  15  18
ENDBRANCH   1  15
TORSDOF 5
ENDMDL
MODEL 2
REMARK VINA RESULT:    -7.525      1.401      1.464
REMARK INTER + INTRA:          -9.749
REMARK INTER:                  -9.241
REMARK INTRA:                  -0.507
REMARK UNBOUND:                -0.244
REMARK  Name = 
REMARK  5 active torsions:
REMARK  status: ('A' for Active; 'I' for Inactive)
REMARK    1  A    between atoms: N_1  and  C_2
REMARK    2  A    between atoms: C_2  and  C_3
REMARK    3  A    between atoms: C_5  and  C_6
REMARK    4  A    between atoms: C_6  and  N_7
REMARK    5  A    between atoms: C_12  and  C_13
REMARK                            x       y       z     vdW  Elec       q    Type
REMARK                         _______ _______ _______ _____ _____    ______ ____
ROOT
ATOM      1  N   UNL     1      44.043   4.471  10.522  0.00  0.00    +0.000 N 
ATOM      2  C   UNL     1      43.456   3.416  11.177  0.00  0.00    +0.000 A 
ATOM      3  C   UNL     1      43.957   2.253  10.645  0.00  0.00    +0.000 A 
ATOM      4  C   UNL     1      44.863   2.607   9.611  0.00  0.00    +0.000 A 
ATOM      5  C   UNL     1      45.663   1.849   8.730  0.00  0.00    +0.000 A 
ATOM      6  C   UNL     1      46.454   2.499   7.772  0.00  0.00    +0.000 A 
ATOM      7  C   UNL     1      46.457   3.900   7.719  0.00  0.00    +0.000 A 
ATOM      8  C   UNL     1      45.686   4.674   8.596  0.00  0.00    +0.000 A 
ATOM      9  C   UNL     1      44.890   4.003   9.537  0.00  0.00    +0.000 A 
ENDROOT
BRANCH   6  10
ATOM     10  C   UNL     1      47.297   1.761   6.787  0.00  0.00    +0.000 C 
ATOM     11  N   UNL     1      48.312   2.427   6.158  0.00  0.00    +0.000 N 
ATOM     12  O   UNL     1      47.104   0.575   6.540  0.00  0.00    +0.000 OA
ATOM     13  H   UNL     1      48.572   3.385   6.324  0.00  0.00    +0.000 HD
ATOM     14  H   UNL     1      48.882   1.888   5.518  0.00  0.00    +0.000 HD
ENDBRANCH   6  10
BRANCH   1  15
ATOM     15  C   UNL     1      43.842   5.861  10.902  0.00  0.00    +0.000 C 
BRANCH  15  18
ATOM     16  C   UNL     1      46.783   6.633  13.095  0.00  0.00    +0.000 C 
ATOM     17  C   UNL     1      46.028   5.640  12.227  0.00  0.00    +0.000 C 
ATOM     18  C   UNL     1      44.671   6.304  12.102  0.00  0.00    +0.000 C 
ATOM     19  C   UNL     1      45.058   7.776  12.019  0.00  0.00    +0.000 C 
ATOM     20  O   UNL     1      46.300   7.940  12.722  0.00  0.00    +0.000 OA
BRANCH  16  21
ATOM     21  C   UNL     1      48.314   6.559  12.975  0.00  0.00    +0.000 C 
BRANCH  21  22
ATOM     22  N   UNL     1      48.947   7.881  12.906  0.00  0.00    +0.000 NA
ATOM     23  H   UNL     1      48.234   8.582  12.708  0.00  0.00    +0.000 HD
ATOM     24  H   UNL     1      49.576   7.878  12.100  0.00  0.00    +0.000 HD
ENDBRANCH  21  22
ENDBRANCH  16  21
ENDBRANCH  15  18
ENDBRANCH   1  15
TORSDOF 5
ENDMDL
MODEL 3
REMARK VINA RESULT:    -7.438      1.460      6.153
REMARK INTER + INTRA:          -9.639
REMARK INTER:                  -9.646
REMARK INTRA:                   0.007
REMARK UNBOUND:                -0.244
REMARK  Name = 
REMARK  5 active torsions:
REMARK  status: ('A' for Active; 'I' for Inactive)
REMARK    1  A    between atoms: N_1  and  C_2
REMARK    2  A    between atoms: C_2  and  C_3
REMARK    3  A    between atoms: C_5  and  C_6
REMARK    4  A    between atoms: C_6  and  N_7
REMARK    5  A    between atoms: C_12  and  C_13
REMARK                            x       y       z     vdW  Elec       q    Type
REMARK                         _______ _______ _______ _____ _____    ______ ____
ROOT
ATOM      1  N   UNL     1      44.452   4.206  10.457  0.00  0.00    +0.000 N 
ATOM      2  C   UNL     1      43.787   3.343  11.293  0.00  0.00    +0.000 A 
ATOM      3  C   UNL     1      44.209   3.586  12.578  0.00  0.00    +0.000 A 
ATOM      4  C   UNL     1      45.186   4.615  12.523  0.00  0.00    +0.000 A 
ATOM      5  C   UNL     1      45.955   5.266  13.510  0.00  0.00    +0.000 A 
ATOM      6  C   UNL     1      46.882   6.249  13.135  0.00  0.00    +0.000 A 
ATOM      7  C   UNL     1      47.015   6.589  11.782  0.00  0.00    +0.000 A 
ATOM      8  C   UNL     1      46.249   5.970  10.786  0.00  0.00    +0.000 A 
ATOM      9  C   UNL     1      45.338   4.978  11.181  0.00  0.00    +0.000 A 
ENDROOT
BRANCH   6  10
ATOM     10  C   UNL     1      47.753   6.953  14.122  0.00  0.00    +0.000 C 
ATOM     11  N   UNL     1      48.025   6.343  15.316  0.00  0.00    +0.000 N 
ATOM     12  O   UNL     1      48.234   8.055  13.881  0.00  0.00    +0.000 OA
ATOM     13  H   UNL     1      47.711   5.425  15.586  0.00  0.00    +0.000 HD
ATOM     14  H   UNL     1      48.642   6.836  15.948  0.00  0.00    +0.000 HD
ENDBRANCH   6  10
BRANCH   1  15
ATOM     15  C   UNL     1      44.170   4.317   9.033  0.00  0.00    +0.000 C 
BRANCH  15  18
ATOM     16  C   UNL     1      46.602   2.165   7.161  0.00  0.00    +0.000 C 
ATOM     17  C   UNL     1      45.985   3.534   7.398  0.00  0.00    +0.000 C 
ATOM     18  C   UNL     1      44.744   3.181   8.195  0.00  0.00    +0.000 C 
ATOM     19  C   UNL     1      45.251   2.032   9.058  0.00  0.00    +0.000 C 
ATOM     20  O   UNL     1      46.315   1.386   8.341  0.00  0.00    +0.000 OA
BRANCH  16  21
ATOM     21  C   UNL     1      48.111   2.182   6.869  0.00  0.00    +0.000 C 
BRANCH  21  22
ATOM     22  N   UNL     1      48.417   2.151   5.434  0.00  0.00    +0.000 NA
ATOM     23  H   UNL     1      49.060   1.381   5.248  0.00  0.00    +0.000 HD
ATOM     24  H   UNL     1      48.927   3.008   5.210  0.00  0.00    +0.000 HD
ENDBRANCH  21  22
ENDBRANCH  16  21
ENDBRANCH  15  18
ENDBRANCH   1  15
TORSDOF 5
ENDMDL
MODEL 4
REMARK VINA RESULT:    -6.488      1.963      6.433
REMARK INTER + INTRA:          -8.439
REMARK INTER:                  -7.922
REMARK INTRA:                  -0.517
REMARK UNBOUND:                -0.244
REMARK  Name = 
REMARK  5 active torsions:
REMARK  status: ('A' for Active; 'I' for Inactive)
REMARK    1  A    between atoms: N_1  and  C_2
REMARK    2  A    between atoms: C_2  and  C_3
REMARK    3  A    between atoms: C_5  and  C_6
REMARK    4  A    between atoms: C_6  and  N_7
REMARK    5  A    between atoms: C_12  and  C_13
REMARK                            x       y       z     vdW  Elec       q    Type
REMARK                         _______ _______ _______ _____ _____    ______ ____
ROOT
ATOM      1  N   UNL     1      44.336   4.764  11.318  0.00  0.00    +0.000 N 
ATOM      2  C   UNL     1      43.304   5.609  10.992  0.00  0.00    +0.000 A 
ATOM      3  C   UNL     1      43.636   6.871  11.422  0.00  0.00    +0.000 A 
ATOM      4  C   UNL     1      44.903   6.791  12.057  0.00  0.00    +0.000 A 
ATOM      5  C   UNL     1      45.731   7.749  12.680  0.00  0.00    +0.000 A 
ATOM      6  C   UNL     1      46.945   7.351  13.256  0.00  0.00    +0.000 A 
ATOM      7  C   UNL     1      47.333   6.006  13.185  0.00  0.00    +0.000 A 
ATOM      8  C   UNL     1      46.537   5.041  12.555  0.00  0.00    +0.000 A 
ATOM      9  C   UNL     1      45.318   5.457  11.998  0.00  0.00    +0.000 A 
ENDROOT
BRANCH   6  10
ATOM     10  C   UNL     1      47.853   8.303  13.961  0.00  0.00    +0.000 C 
ATOM     11  N   UNL     1      47.348   9.064  14.980  0.00  0.00    +0.000 N 
ATOM     12  O   UNL     1      49.035   8.409  13.654  0.00  0.00    +0.000 OA
ATOM     13  H   UNL     1      46.406   9.019  15.330  0.00  0.00    +0.000 HD
ATOM     14  H   UNL     1      47.998   9.677  15.454  0.00  0.00    +0.000 HD
ENDBRANCH   6  10
BRANCH   1  15
ATOM     15  C   UNL     1      44.387   3.368  10.909  0.00  0.00    +0.000 C 
BRANCH  15  18
ATOM     16  C   UNL     1      45.821   3.386   7.446  0.00  0.00    +0.000 C 
ATOM     17  C   UNL     1      45.454   4.146   8.709  0.00  0.00    +0.000 C 
ATOM     18  C   UNL     1      44.531   3.165   9.405  0.00  0.00    +0.000 C 
ATOM     19  C   UNL     1      45.191   1.833   9.068  0.00  0.00    +0.000 C 
ATOM     20  O   UNL     1      45.882   1.994   7.819  0.00  0.00    +0.000 OA
BRANCH  16  21
ATOM     21  C   UNL     1      47.135   3.834   6.785  0.00  0.00    +0.000 C 
BRANCH  21  22
ATOM     22  N   UNL     1      48.088   2.733   6.599  0.00  0.00    +0.000 NA
ATOM     23  H   UNL     1      49.024   3.058   6.841  0.00  0.00    +0.000 HD
ATOM     24  H   UNL     1      48.111   2.513   5.601  0.00  0.00    +0.000 HD
ENDBRANCH  21  22
ENDBRANCH  16  21
ENDBRANCH  15  18
ENDBRANCH   1  15
TORSDOF 5
ENDMDL
MODEL 5
REMARK VINA RESULT:    -6.283      3.058      6.471
REMARK INTER + INTRA:          -8.180
REMARK INTER:                  -7.741
REMARK INTRA:                  -0.438
REMARK UNBOUND:                -0.244
REMARK  Name = 
REMARK  5 active torsions:
REMARK  status: ('A' for Active; 'I' for Inactive)
REMARK    1  A    between atoms: N_1  and  C_2
REMARK    2  A    between atoms: C_2  and  C_3
REMARK    3  A    between atoms: C_5  and  C_6
REMARK    4  A    between atoms: C_6  and  N_7
REMARK    5  A    between atoms: C_12  and  C_13
REMARK                            x       y       z     vdW  Elec       q    Type
REMARK                         _______ _______ _______ _____ _____    ______ ____
ROOT
ATOM      1  N   UNL     1      45.040   5.477  13.056  0.00  0.00    +0.000 N 
ATOM      2  C   UNL     1      46.007   4.652  13.575  0.00  0.00    +0.000 A 
ATOM      3  C   UNL     1      47.160   5.384  13.717  0.00  0.00    +0.000 A 
ATOM      4  C   UNL     1      46.898   6.697  13.243  0.00  0.00    +0.000 A 
ATOM      5  C   UNL     1      47.689   7.861  13.143  0.00  0.00    +0.000 A 
ATOM      6  C   UNL     1      47.144   9.029  12.591  0.00  0.00    +0.000 A 
ATOM      7  C   UNL     1      45.808   9.031  12.168  0.00  0.00    +0.000 A 
ATOM      8  C   UNL     1      44.997   7.893  12.275  0.00  0.00    +0.000 A 
ATOM      9  C   UNL     1      45.567   6.730  12.816  0.00  0.00    +0.000 A 
ENDROOT
BRANCH   6  10
ATOM     10  C   UNL     1      47.932  10.285  12.423  0.00  0.00    +0.000 C 
ATOM     11  N   UNL     1      48.323  10.973  13.539  0.00  0.00    +0.000 N 
ATOM     12  O   UNL     1      48.243  10.703  11.313  0.00  0.00    +0.000 OA
ATOM     13  H   UNL     1      48.152  10.688  14.489  0.00  0.00    +0.000 HD
ATOM     14  H   UNL     1      48.880  11.803  13.389  0.00  0.00    +0.000 HD
ENDBRANCH   6  10
BRANCH   1  15
ATOM     15  C   UNL     1      43.652   5.074  12.883  0.00  0.00    +0.000 C 
BRANCH  15  18
ATOM     16  C   UNL     1      44.125   3.642   9.452  0.00  0.00    +0.000 C 
ATOM     17  C   UNL     1      44.331   4.791  10.425  0.00  0.00    +0.000 C 
ATOM     18  C   UNL     1      43.352   4.441  11.530  0.00  0.00    +0.000 C 
ATOM     19  C   UNL     1      43.468   2.922  11.570  0.00  0.00    +0.000 C 
ATOM     20  O   UNL     1      43.845   2.479  10.257  0.00  0.00    +0.000 OA
BRANCH  16  21
ATOM     21  C   UNL     1      45.308   3.382   8.505  0.00  0.00    +0.000 C 
BRANCH  21  22
ATOM     22  N   UNL     1      45.968   4.615   8.061  0.00  0.00    +0.000 NA
ATOM     23  H   UNL     1      45.630   4.857   7.129  0.00  0.00    +0.000 HD
ATOM     24  H   UNL     1      46.964   4.410   7.957  0.00  0.00    +0.000 HD
ENDBRANCH  21  22
ENDBRANCH  16  21
ENDBRANCH  15  18
ENDBRANCH   1  15
TORSDOF 5
ENDMDL
MODEL 6
REMARK VINA RESULT:    -6.001      2.442      3.345
REMARK INTER + INTRA:          -7.824
REMARK INTER:                  -7.797
REMARK INTRA:                  -0.027
REMARK UNBOUND:                -0.244
REMARK  Name = 
REMARK  5 active torsions:
REMARK  status: ('A' for Active; 'I' for Inactive)
REMARK    1  A    between atoms: N_1  and  C_2
REMARK    2  A    between atoms: C_2  and  C_3
REMARK    3  A    between atoms: C_5  and  C_6
REMARK    4  A    between atoms: C_6  and  N_7
REMARK    5  A    between atoms: C_12  and  C_13
REMARK                            x       y       z     vdW  Elec       q    Type
REMARK                         _______ _______ _______ _____ _____    ______ ____
ROOT
ATOM      1  N   UNL     1      44.109   4.566  11.530  0.00  0.00    +0.000 N 
ATOM      2  C   UNL     1      43.433   3.435  11.918  0.00  0.00    +0.000 A 
ATOM      3  C   UNL     1      43.705   2.443  11.007  0.00  0.00    +0.000 A 
ATOM      4  C   UNL     1      44.555   2.993  10.012  0.00  0.00    +0.000 A 
ATOM      5  C   UNL     1      45.149   2.459   8.849  0.00  0.00    +0.000 A 
ATOM      6  C   UNL     1      45.937   3.278   8.029  0.00  0.00    +0.000 A 
ATOM      7  C   UNL     1      46.144   4.616   8.390  0.00  0.00    +0.000 A 
ATOM      8  C   UNL     1      45.581   5.165   9.549  0.00  0.00    +0.000 A 
ATOM      9  C   UNL     1      44.783   4.331  10.348  0.00  0.00    +0.000 A 
ENDROOT
BRANCH   6  10
ATOM     10  C   UNL     1      46.567   2.788   6.768  0.00  0.00    +0.000 C 
ATOM     11  N   UNL     1      46.929   3.700   5.814  0.00  0.00    +0.000 N 
ATOM     12  O   UNL     1      46.774   1.595   6.575  0.00  0.00    +0.000 OA
ATOM     13  H   UNL     1      46.837   4.699   5.898  0.00  0.00    +0.000 HD
ATOM     14  H   UNL     1      47.379   3.336   4.985  0.00  0.00    +0.000 HD
ENDBRANCH   6  10
BRANCH   1  15
ATOM     15  C   UNL     1      44.153   5.784  12.325  0.00  0.00    +0.000 C 
BRANCH  15  18
ATOM     16  C   UNL     1      43.820   9.194  10.803  0.00  0.00    +0.000 C 
ATOM     17  C   UNL     1      43.242   7.808  11.037  0.00  0.00    +0.000 C 
ATOM     18  C   UNL     1      44.458   7.041  11.519  0.00  0.00    +0.000 C 
ATOM     19  C   UNL     1      45.174   8.097  12.353  0.00  0.00    +0.000 C 
ATOM     20  O   UNL     1      44.830   9.384  11.816  0.00  0.00    +0.000 OA
BRANCH  16  21
ATOM     21  C   UNL     1      42.789  10.334  10.837  0.00  0.00    +0.000 C 
BRANCH  21  22
ATOM     22  N   UNL     1      42.696  10.984  12.149  0.00  0.00    +0.000 NA
ATOM     23  H   UNL     1      43.086  10.363  12.857  0.00  0.00    +0.000 HD
ATOM     24  H   UNL     1      41.704  11.084  12.373  0.00  0.00    +0.000 HD
ENDBRANCH  21  22
ENDBRANCH  16  21
ENDBRANCH  15  18
ENDBRANCH   1  15
TORSDOF 5
ENDMDL
MODEL 7
REMARK VINA RESULT:    -5.911      4.075      5.937
REMARK INTER + INTRA:          -7.710
REMARK INTER:                  -7.397
REMARK INTRA:                  -0.314
REMARK UNBOUND:                -0.244
REMARK  Name = 
REMARK  5 active torsions:
REMARK  status: ('A' for Active; 'I' for Inactive)
REMARK    1  A    between atoms: N_1  and  C_2
REMARK    2  A    between atoms: C_2  and  C_3
REMARK    3  A    between atoms: C_5  and  C_6
REMARK    4  A    between atoms: C_6  and  N_7
REMARK    5  A    between atoms: C_12  and  C_13
REMARK                            x       y       z     vdW  Elec       q    Type
REMARK                         _______ _______ _______ _____ _____    ______ ____
ROOT
ATOM      1  N   UNL     1      47.888   7.430  13.807  0.00  0.00    +0.000 N 
ATOM      2  C   UNL     1      47.620   8.774  13.717  0.00  0.00    +0.000 A 
ATOM      3  C   UNL     1      46.420   8.926  13.067  0.00  0.00    +0.000 A 
ATOM      4  C   UNL     1      45.949   7.632  12.723  0.00  0.00    +0.000 A 
ATOM      5  C   UNL     1      44.793   7.173  12.057  0.00  0.00    +0.000 A 
ATOM      6  C   UNL     1      44.615   5.800  11.835  0.00  0.00    +0.000 A 
ATOM      7  C   UNL     1      45.581   4.897  12.301  0.00  0.00    +0.000 A 
ATOM      8  C   UNL     1      46.727   5.328  12.981  0.00  0.00    +0.000 A 
ATOM      9  C   UNL     1      46.893   6.707  13.180  0.00  0.00    +0.000 A 
ENDROOT
BRANCH   6  10
ATOM     10  C   UNL     1      43.435   5.247  11.107  0.00  0.00    +0.000 C 
ATOM     11  N   UNL     1      42.222   5.222  11.741  0.00  0.00    +0.000 N 
ATOM     12  O   UNL     1      43.528   4.827   9.959  0.00  0.00    +0.000 OA
ATOM     13  H   UNL     1      42.039   5.581  12.663  0.00  0.00    +0.000 HD
ATOM     14  H   UNL     1      41.439   4.868  11.208  0.00  0.00    +0.000 HD
ENDBRANCH   6  10
BRANCH   1  15
ATOM     15  C   UNL     1      49.021   6.887  14.541  0.00  0.00    +0.000 C 
BRANCH  15  18
ATOM     16  C   UNL     1      48.219   4.736  17.505  0.00  0.00    +0.000 C 
ATOM     17  C   UNL     1      47.903   5.166  16.082  0.00  0.00    +0.000 C 
ATOM     18  C   UNL     1      48.690   6.457  15.966  0.00  0.00    +0.000 C 
ATOM     19  C   UNL     1      49.942   6.125  16.769  0.00  0.00    +0.000 C 
ATOM     20  O   UNL     1      49.579   5.145  17.755  0.00  0.00    +0.000 OA
BRANCH  16  21
ATOM     21  C   UNL     1      48.040   3.233  17.776  0.00  0.00    +0.000 C 
BRANCH  21  22
ATOM     22  N   UNL     1      46.638   2.804  17.723  0.00  0.00    +0.000 NA
ATOM     23  H   UNL     1      46.060   3.591  17.428  0.00  0.00    +0.000 HD
ATOM     24  H   UNL     1      46.349   2.580  18.678  0.00  0.00    +0.000 HD
ENDBRANCH  21  22
ENDBRANCH  16  21
ENDBRANCH  15  18
ENDBRANCH   1  15
TORSDOF 5
ENDMDL
MODEL 8
REMARK VINA RESULT:    -5.898      3.965      8.352
REMARK INTER + INTRA:          -7.694
REMARK INTER:                  -7.220
REMARK INTRA:                  -0.474
REMARK UNBOUND:                -0.244
REMARK  Name = 
REMARK  5 active torsions:
REMARK  status: ('A' for Active; 'I' for Inactive)
REMARK    1  A    between atoms: N_1  and  C_2
REMARK    2  A    between atoms: C_2  and  C_3
REMARK    3  A    between atoms: C_5  and  C_6
REMARK    4  A    between atoms: C_6  and  N_7
REMARK    5  A    between atoms: C_12  and  C_13
REMARK                            x       y       z     vdW  Elec       q    Type
REMARK                         _______ _______ _______ _____ _____    ______ ____
ROOT
ATOM      1  N   UNL     1      47.662   5.584  14.351  0.00  0.00    +0.000 N 
ATOM      2  C   UNL     1      48.185   6.845  14.198  0.00  0.00    +0.000 A 
ATOM      3  C   UNL     1      48.766   7.211  15.388  0.00  0.00    +0.000 A 
ATOM      4  C   UNL     1      48.569   6.149  16.310  0.00  0.00    +0.000 A 
ATOM      5  C   UNL     1      48.938   5.963  17.658  0.00  0.00    +0.000 A 
ATOM      6  C   UNL     1      48.566   4.788  18.327  0.00  0.00    +0.000 A 
ATOM      7  C   UNL     1      47.850   3.801  17.637  0.00  0.00    +0.000 A 
ATOM      8  C   UNL     1      47.489   3.955  16.292  0.00  0.00    +0.000 A 
ATOM      9  C   UNL     1      47.858   5.145  15.645  0.00  0.00    +0.000 A 
ENDROOT
BRANCH   6  10
ATOM     10  C   UNL     1      48.893   4.540  19.762  0.00  0.00    +0.000 C 
ATOM     11  N   UNL     1      48.456   3.383  20.347  0.00  0.00    +0.000 N 
ATOM     12  O   UNL     1      49.548   5.342  20.419  0.00  0.00    +0.000 OA
ATOM     13  H   UNL     1      47.949   2.649  19.881  0.00  0.00    +0.000 HD
ATOM     14  H   UNL     1      48.720   3.234  21.312  0.00  0.00    +0.000 HD
ENDBRANCH   6  10
BRANCH   1  15
ATOM     15  C   UNL     1      47.073   4.824  13.259  0.00  0.00    +0.000 C 
BRANCH  15  18
ATOM     16  C   UNL     1      43.351   4.895  12.816  0.00  0.00    +0.000 C 
ATOM     17  C   UNL     1      44.650   5.644  13.066  0.00  0.00    +0.000 C 
ATOM     18  C   UNL     1      45.591   4.517  13.442  0.00  0.00    +0.000 C 
ATOM     19  C   UNL     1      45.118   3.402  12.517  0.00  0.00    +0.000 C 
ATOM     20  O   UNL     1      43.725   3.624  12.245  0.00  0.00    +0.000 OA
BRANCH  16  21
ATOM     21  C   UNL     1      42.350   5.630  11.909  0.00  0.00    +0.000 C 
BRANCH  21  22
ATOM     22  N   UNL     1      42.905   5.960  10.592  0.00  0.00    +0.000 NA
ATOM     23  H   UNL     1      42.527   6.856  10.286  0.00  0.00    +0.000 HD
ATOM     24  H   UNL     1      42.558   5.263   9.929  0.00  0.00    +0.000 HD
ENDBRANCH  21  22
ENDBRANCH  16  21
ENDBRANCH  15  18
ENDBRANCH   1  15
TORSDOF 5
ENDMDL
MODEL 9
REMARK VINA RESULT:    -5.870      3.523      6.455
REMARK INTER + INTRA:          -7.658
REMARK INTER:                  -7.052
REMARK INTRA:                  -0.606
REMARK UNBOUND:                -0.244
REMARK  Name = 
REMARK  5 active torsions:
REMARK  status: ('A' for Active; 'I' for Inactive)
REMARK    1  A    between atoms: N_1  and  C_2
REMARK    2  A    between atoms: C_2  and  C_3
REMARK    3  A    between atoms: C_5  and  C_6
REMARK    4  A    between atoms: C_6  and  N_7
REMARK    5  A    between atoms: C_12  and  C_13
REMARK                            x       y       z     vdW  Elec       q    Type
REMARK                         _______ _______ _______ _____ _____    ______ ____
ROOT
ATOM      1  N   UNL     1      45.787   7.491  12.729  0.00  0.00    +0.000 N 
ATOM      2  C   UNL     1      45.202   8.721  12.547  0.00  0.00    +0.000 A 
ATOM      3  C   UNL     1      46.180   9.602  12.155  0.00  0.00    +0.000 A 
ATOM      4  C   UNL     1      47.411   8.895  12.121  0.00  0.00    +0.000 A 
ATOM      5  C   UNL     1      48.731   9.273  11.798  0.00  0.00    +0.000 A 
ATOM      6  C   UNL     1      49.767   8.333  11.888  0.00  0.00    +0.000 A 
ATOM      7  C   UNL     1      49.472   7.019  12.277  0.00  0.00    +0.000 A 
ATOM      8  C   UNL     1      48.166   6.616  12.585  0.00  0.00    +0.000 A 
ATOM      9  C   UNL     1      47.146   7.576  12.503  0.00  0.00    +0.000 A 
ENDROOT
BRANCH   6  10
ATOM     10  C   UNL     1      51.190   8.672  11.594  0.00  0.00    +0.000 C 
ATOM     11  N   UNL     1      52.126   7.675  11.628  0.00  0.00    +0.000 N 
ATOM     12  O   UNL     1      51.533   9.816  11.315  0.00  0.00    +0.000 OA
ATOM     13  H   UNL     1      51.936   6.702  11.806  0.00  0.00    +0.000 HD
ATOM     14  H   UNL     1      53.076   7.935  11.396  0.00  0.00    +0.000 HD
ENDBRANCH   6  10
BRANCH   1  15
ATOM     15  C   UNL     1      45.033   6.283  13.031  0.00  0.00    +0.000 C 
BRANCH  15  18
ATOM     16  C   UNL     1      43.916   4.241  10.093  0.00  0.00    +0.000 C 
ATOM     17  C   UNL     1      44.981   5.098  10.756  0.00  0.00    +0.000 C 
ATOM     18  C   UNL     1      44.195   5.766  11.867  0.00  0.00    +0.000 C 
ATOM     19  C   UNL     1      43.254   4.645  12.293  0.00  0.00    +0.000 C 
ATOM     20  O   UNL     1      43.039   3.801  11.151  0.00  0.00    +0.000 OA
BRANCH  16  21
ATOM     21  C   UNL     1      44.458   3.042   9.297  0.00  0.00    +0.000 C 
BRANCH  21  22
ATOM     22  N   UNL     1      44.512   3.292   7.852  0.00  0.00    +0.000 NA
ATOM     23  H   UNL     1      45.481   3.233   7.540  0.00  0.00    +0.000 HD
ATOM     24  H   UNL     1      44.220   4.259   7.696  0.00  0.00    +0.000 HD
ENDBRANCH  21  22
ENDBRANCH  16  21
ENDBRANCH  15  18
ENDBRANCH   1  15
TORSDOF 5
ENDMDL
