MODEL 1
REMARK VINA RESULT:    -7.547      0.000      0.000
REMARK INTER + INTRA:         -11.896
REMARK INTER:                 -10.856
REMARK INTRA:                  -1.040
REMARK UNBOUND:                -1.040
REMARK  Name = 
REMARK  8 active torsions:
REMARK  status: ('A' for Active; 'I' for Inactive)
REMARK    1  A    between atoms: N_1  and  C_2
REMARK    2  A    between atoms: C_2  and  C_3
REMARK    3  A    between atoms: C_2  and  C_24
REMARK    4  A    between atoms: C_3  and  C_4
REMARK    5  A    between atoms: C_7  and  C_8
REMARK    6  A    between atoms: C_8  and  N_9
REMARK    7  A    between atoms: C_10  and  C_12
REMARK    8  A    between atoms: N_26  and  C_27
REMARK                            x       y       z     vdW  Elec       q    Type
REMARK                         _______ _______ _______ _____ _____    ______ ____
ROOT
ATOM      1  C   UNL     1      46.731   4.908  13.847  0.00  0.00    +0.000 A 
ATOM      2  C   UNL     1      47.407   6.070  13.449  0.00  0.00    +0.000 A 
ATOM      3  C   UNL     1      48.342   6.678  14.292  0.00  0.00    +0.000 A 
ATOM      4  C   UNL     1      48.621   6.139  15.554  0.00  0.00    +0.000 A 
ATOM      5  C   UNL     1      47.909   5.005  15.971  0.00  0.00    +0.000 A 
ATOM      6  C   UNL     1      46.983   4.389  15.123  0.00  0.00    +0.000 A 
ENDROOT
BRANCH   1   7
ATOM      7  C   UNL     1      45.742   4.237  12.919  0.00  0.00    +0.000 C 
BRANCH   7   8
ATOM      8  C   UNL     1      44.879   5.199  12.071  0.00  0.00    +0.000 C 
BRANCH   8   9
ATOM      9  C   UNL     1      44.205   4.399  10.927  0.00  0.00    +0.000 C 
ATOM     10  O   UNL     1      43.041   4.018  10.969  0.00  0.00    +0.000 OA
ATOM     11  N   UNL     1      45.040   4.126   9.859  0.00  0.00    +0.000 N 
ATOM     12  H   UNL     1      46.010   4.423   9.951  0.00  0.00    +0.000 HD
BRANCH  11  13
ATOM     13  C   UNL     1      44.577   3.408   8.680  0.00  0.00    +0.000 C 
ATOM     14  C   UNL     1      44.623   1.909   8.882  0.00  0.00    +0.000 C 
ATOM     15  C   UNL     1      46.029   1.544   8.453  0.00  0.00    +0.000 C 
ATOM     16  O   UNL     1      46.481   2.548   7.532  0.00  0.00    +0.000 OA
ATOM     17  C   UNL     1      45.496   3.591   7.479  0.00  0.00    +0.000 C 
ENDBRANCH  11  13
ENDBRANCH   8   9
BRANCH   8  18
ATOM     18  N   UNL     1      43.830   5.913  12.851  0.00  0.00    +0.000 NA
ATOM     19  H   UNL     1      43.470   6.672  12.269  0.00  0.00    +0.000 HD
ATOM     20  H   UNL     1      44.279   6.369  13.646  0.00  0.00    +0.000 HD
ENDBRANCH   8  18
ENDBRANCH   7   8
ENDBRANCH   1   7
BRANCH   4  21
ATOM     21  C   UNL     1      49.639   6.774  16.467  0.00  0.00    +0.000 C 
BRANCH  21  22
ATOM     22  N   UNL     1      50.642   5.827  16.879  0.00  0.00    +0.000 N 
ATOM     23  C   UNL     1      50.767   5.452  18.193  0.00  0.00    +0.000 C 
ATOM     24  O   UNL     1      50.003   5.863  19.063  0.00  0.00    +0.000 OA
ATOM     25  H   UNL     1      51.419   5.675  16.243  0.00  0.00    +0.000 HD
BRANCH  23  26
ATOM     26  C   UNL     1      51.824   4.482  18.499  0.00  0.00    +0.000 A 
ATOM     27  C   UNL     1      52.928   4.875  19.244  0.00  0.00    +0.000 A 
ATOM     28  S   UNL     1      54.039   3.615  19.537  0.00  0.00    +0.000 S 
ATOM     29  C   UNL     1      53.111   2.512  18.635  0.00  0.00    +0.000 A 
ATOM     30  N   UNL     1      53.526   1.228  18.457  0.00  0.00    +0.000 NA
ATOM     31  C   UNL     1      52.741   0.511  17.724  0.00  0.00    +0.000 A 
ATOM     32  N   UNL     1      51.572   0.957  17.159  0.00  0.00    +0.000 N 
ATOM     33  C   UNL     1      51.100   2.235  17.340  0.00  0.00    +0.000 A 
ATOM     34  O   UNL     1      50.023   2.588  16.863  0.00  0.00    +0.000 OA
ATOM     35  C   UNL     1      51.956   3.089  18.137  0.00  0.00    +0.000 A 
ATOM     36  H   UNL     1      50.995   0.341  16.611  0.00  0.00    +0.000 HD
ENDBRANCH  23  26
ENDBRANCH  21  22
ENDBRANCH   4  21
TORSDOF 8
ENDMDL
MODEL 2
REMARK VINA RESULT:    -7.274      3.668      8.676
REMARK INTER + INTRA:         -11.503
REMARK INTER:                 -10.193
REMARK INTRA:                  -1.310
REMARK UNBOUND:                -1.040
REMARK  Name = 
REMARK  8 active torsions:
REMARK  status: ('A' for Active; 'I' for Inactive)
REMARK    1  A    between atoms: N_1  and  C_2
REMARK    2  A    between atoms: C_2  and  C_3
REMARK    3  A    between atoms: C_2  and  C_24
REMARK    4  A    between atoms: C_3  and  C_4
REMARK    5  A    between atoms: C_7  and  C_8
REMARK    6  A    between atoms: C_8  and  N_9
REMARK    7  A    between atoms: C_10  and  C_12
REMARK    8  A    between atoms: N_26  and  C_27
REMARK                            x       y       z     vdW  Elec       q    Type
REMARK                         _______ _______ _______ _____ _____    ______ ____
ROOT
ATOM      1  C   UNL     1      49.523   8.289  15.735  0.00  0.00    +0.000 A 
ATOM      2  C   UNL     1      48.285   8.881  15.450  0.00  0.00    +0.000 A 
ATOM      3  C   UNL     1      47.715   8.772  14.178  0.00  0.00    +0.000 A 
ATOM      4  C   UNL     1      48.373   8.069  13.161  0.00  0.00    +0.000 A 
ATOM      5  C   UNL     1      49.633   7.518  13.432  0.00  0.00    +0.000 A 
ATOM      6  C   UNL     1      50.197   7.616  14.708  0.00  0.00    +0.000 A 
ENDROOT
BRANCH   1   7
ATOM      7  C   UNL     1      50.121   8.384  17.122  0.00  0.00    +0.000 C 
BRANCH   7   8
ATOM      8  C   UNL     1      50.194   7.050  17.900  0.00  0.00    +0.000 C 
BRANCH   8   9
ATOM      9  C   UNL     1      48.802   6.371  17.871  0.00  0.00    +0.000 C 
ATOM     10  O   UNL     1      47.832   6.800  18.487  0.00  0.00    +0.000 OA
ATOM     11  N   UNL     1      48.749   5.217  17.110  0.00  0.00    +0.000 N 
ATOM     12  H   UNL     1      49.625   4.904  16.698  0.00  0.00    +0.000 HD
BRANCH  11  13
ATOM     13  C   UNL     1      47.519   4.457  16.944  0.00  0.00    +0.000 C 
ATOM     14  C   UNL     1      47.661   3.041  17.455  0.00  0.00    +0.000 C 
ATOM     15  C   UNL     1      48.193   2.289  16.251  0.00  0.00    +0.000 C 
ATOM     16  O   UNL     1      47.786   3.002  15.075  0.00  0.00    +0.000 OA
ATOM     17  C   UNL     1      47.160   4.229  15.480  0.00  0.00    +0.000 C 
ENDBRANCH  11  13
ENDBRANCH   8   9
BRANCH   8  18
ATOM     18  N   UNL     1      51.212   6.100  17.371  0.00  0.00    +0.000 NA
ATOM     19  H   UNL     1      51.162   6.125  16.350  0.00  0.00    +0.000 HD
ATOM     20  H   UNL     1      50.932   5.154  17.633  0.00  0.00    +0.000 HD
ENDBRANCH   8  18
ENDBRANCH   7   8
ENDBRANCH   1   7
BRANCH   4  21
ATOM     21  C   UNL     1      47.763   7.929  11.789  0.00  0.00    +0.000 C 
BRANCH  21  22
ATOM     22  N   UNL     1      47.025   6.700  11.663  0.00  0.00    +0.000 N 
ATOM     23  C   UNL     1      45.656   6.679  11.765  0.00  0.00    +0.000 C 
ATOM     24  O   UNL     1      44.998   7.705  11.917  0.00  0.00    +0.000 OA
ATOM     25  H   UNL     1      47.545   5.837  11.789  0.00  0.00    +0.000 HD
BRANCH  23  26
ATOM     26  C   UNL     1      45.009   5.369  11.622  0.00  0.00    +0.000 A 
ATOM     27  C   UNL     1      44.323   4.817  12.695  0.00  0.00    +0.000 A 
ATOM     28  S   UNL     1      43.602   3.312  12.344  0.00  0.00    +0.000 S 
ATOM     29  C   UNL     1      44.225   3.321  10.761  0.00  0.00    +0.000 A 
ATOM     30  N   UNL     1      44.001   2.279   9.914  0.00  0.00    +0.000 NA
ATOM     31  C   UNL     1      44.560   2.404   8.757  0.00  0.00    +0.000 A 
ATOM     32  N   UNL     1      45.315   3.480   8.364  0.00  0.00    +0.000 N 
ATOM     33  C   UNL     1      45.539   4.567   9.175  0.00  0.00    +0.000 A 
ATOM     34  O   UNL     1      46.178   5.538   8.773  0.00  0.00    +0.000 OA
ATOM     35  C   UNL     1      44.952   4.467  10.495  0.00  0.00    +0.000 A 
ATOM     36  H   UNL     1      45.710   3.524   7.439  0.00  0.00    +0.000 HD
ENDBRANCH  23  26
ENDBRANCH  21  22
ENDBRANCH   4  21
TORSDOF 8
ENDMDL
MODEL 3
REMARK VINA RESULT:    -6.962      3.640     10.407
REMARK INTER + INTRA:         -11.055
REMARK INTER:                 -10.102
REMARK INTRA:                  -0.953
REMARK UNBOUND:                -1.040
REMARK  Name = 
REMARK  8 active torsions:
REMARK  status: ('A' for Active; 'I' for Inactive)
REMARK    1  A    between atoms: N_1  and  C_2
REMARK    2  A    between atoms: C_2  and  C_3
REMARK    3  A    between atoms: C_2  and  C_24
REMARK    4  A    between atoms: C_3  and  C_4
REMARK    5  A    between atoms: C_7  and  C_8
REMARK    6  A    between atoms: C_8  and  N_9
REMARK    7  A    between atoms: C_10  and  C_12
REMARK    8  A    between atoms: N_26  and  C_27
REMARK                            x       y       z     vdW  Elec       q    Type
REMARK                         _______ _______ _______ _____ _____    ______ ____
ROOT
ATOM      1  C   UNL     1      51.397   3.817  17.762  0.00  0.00    +0.000 A 
ATOM      2  C   UNL     1      50.862   2.573  17.402  0.00  0.00    +0.000 A 
ATOM      3  C   UNL     1      49.502   2.439  17.106  0.00  0.00    +0.000 A 
ATOM      4  C   UNL     1      48.647   3.545  17.166  0.00  0.00    +0.000 A 
ATOM      5  C   UNL     1      49.173   4.780  17.573  0.00  0.00    +0.000 A 
ATOM      6  C   UNL     1      50.536   4.917  17.856  0.00  0.00    +0.000 A 
ENDROOT
BRANCH   1   7
ATOM      7  C   UNL     1      52.875   3.964  18.053  0.00  0.00    +0.000 C 
BRANCH   7   8
ATOM      8  C   UNL     1      53.332   3.421  19.427  0.00  0.00    +0.000 C 
BRANCH   8   9
ATOM      9  C   UNL     1      54.493   2.418  19.213  0.00  0.00    +0.000 C 
ATOM     10  O   UNL     1      55.665   2.760  19.095  0.00  0.00    +0.000 OA
ATOM     11  N   UNL     1      54.093   1.096  19.138  0.00  0.00    +0.000 N 
ATOM     12  H   UNL     1      53.091   0.921  19.175  0.00  0.00    +0.000 HD
BRANCH  11  13
ATOM     13  C   UNL     1      55.047   0.009  18.966  0.00  0.00    +0.000 C 
ATOM     14  C   UNL     1      54.459  -1.132  18.166  0.00  0.00    +0.000 C 
ATOM     15  C   UNL     1      53.793  -1.990  19.224  0.00  0.00    +0.000 C 
ATOM     16  O   UNL     1      54.459  -1.745  20.470  0.00  0.00    +0.000 OA
ATOM     17  C   UNL     1      55.401  -0.678  20.280  0.00  0.00    +0.000 C 
ENDBRANCH  11  13
ENDBRANCH   8   9
BRANCH   8  18
ATOM     18  N   UNL     1      53.771   4.481  20.377  0.00  0.00    +0.000 NA
ATOM     19  H   UNL     1      53.716   4.096  21.322  0.00  0.00    +0.000 HD
ATOM     20  H   UNL     1      53.086   5.237  20.351  0.00  0.00    +0.000 HD
ENDBRANCH   8  18
ENDBRANCH   7   8
ENDBRANCH   1   7
BRANCH   4  21
ATOM     21  C   UNL     1      47.181   3.418  16.833  0.00  0.00    +0.000 C 
BRANCH  21  22
ATOM     22  N   UNL     1      46.777   4.391  15.852  0.00  0.00    +0.000 N 
ATOM     23  C   UNL     1      46.856   4.121  14.509  0.00  0.00    +0.000 C 
ATOM     24  O   UNL     1      47.224   3.028  14.084  0.00  0.00    +0.000 OA
ATOM     25  H   UNL     1      46.714   5.356  16.161  0.00  0.00    +0.000 HD
BRANCH  23  26
ATOM     26  C   UNL     1      46.418   5.187  13.600  0.00  0.00    +0.000 A 
ATOM     27  C   UNL     1      47.267   6.249  13.322  0.00  0.00    +0.000 A 
ATOM     28  S   UNL     1      46.615   7.376  12.220  0.00  0.00    +0.000 S 
ATOM     29  C   UNL     1      45.154   6.511  12.116  0.00  0.00    +0.000 A 
ATOM     30  N   UNL     1      44.126   6.962  11.347  0.00  0.00    +0.000 NA
ATOM     31  C   UNL     1      43.066   6.225  11.387  0.00  0.00    +0.000 A 
ATOM     32  N   UNL     1      42.943   5.071  12.120  0.00  0.00    +0.000 N 
ATOM     33  C   UNL     1      43.966   4.563  12.884  0.00  0.00    +0.000 A 
ATOM     34  O   UNL     1      43.840   3.499  13.488  0.00  0.00    +0.000 OA
ATOM     35  C   UNL     1      45.171   5.366  12.891  0.00  0.00    +0.000 A 
ATOM     36  H   UNL     1      42.093   4.532  12.095  0.00  0.00    +0.000 HD
ENDBRANCH  23  26
ENDBRANCH  21  22
ENDBRANCH   4  21
TORSDOF 8
ENDMDL
MODEL 4
REMARK VINA RESULT:    -6.715      4.082      8.655
REMARK INTER + INTRA:         -10.699
REMARK INTER:                  -9.633
REMARK INTRA:                  -1.066
REMARK UNBOUND:                -1.040
REMARK  Name = 
REMARK  8 active torsions:
REMARK  status: ('A' for Active; 'I' for Inactive)
REMARK    1  A    between atoms: N_1  and  C_2
REMARK    2  A    between atoms: C_2  and  C_3
REMARK    3  A    between atoms: C_2  and  C_24
REMARK    4  A    between atoms: C_3  and  C_4
REMARK    5  A    between atoms: C_7  and  C_8
REMARK    6  A    between atoms: C_8  and  N_9
REMARK    7  A    between atoms: C_10  and  C_12
REMARK    8  A    between atoms: N_26  and  C_27
REMARK                            x       y       z     vdW  Elec       q    Type
REMARK                         _______ _______ _______ _____ _____    ______ ____
ROOT
ATOM      1  C   UNL     1      49.185   7.850  16.110  0.00  0.00    +0.000 A 
ATOM      2  C   UNL     1      48.298   8.868  15.734  0.00  0.00    +0.000 A 
ATOM      3  C   UNL     1      47.949   9.053  14.393  0.00  0.00    +0.000 A 
ATOM      4  C   UNL     1      48.480   8.224  13.398  0.00  0.00    +0.000 A 
ATOM      5  C   UNL     1      49.404   7.236  13.768  0.00  0.00    +0.000 A 
ATOM      6  C   UNL     1      49.744   7.043  15.111  0.00  0.00    +0.000 A 
ENDROOT
BRANCH   1   7
ATOM      7  C   UNL     1      49.537   7.635  17.566  0.00  0.00    +0.000 C 
BRANCH   7   8
ATOM      8  C   UNL     1      48.353   7.753  18.554  0.00  0.00    +0.000 C 
BRANCH   8   9
ATOM      9  C   UNL     1      47.703   6.357  18.732  0.00  0.00    +0.000 C 
ATOM     10  O   UNL     1      47.147   6.002  19.765  0.00  0.00    +0.000 OA
ATOM     11  N   UNL     1      47.826   5.530  17.631  0.00  0.00    +0.000 N 
ATOM     12  H   UNL     1      48.369   5.891  16.849  0.00  0.00    +0.000 HD
BRANCH  11  13
ATOM     13  C   UNL     1      47.255   4.191  17.603  0.00  0.00    +0.000 C 
ATOM     14  C   UNL     1      48.175   3.175  18.242  0.00  0.00    +0.000 C 
ATOM     15  C   UNL     1      49.059   2.735  17.092  0.00  0.00    +0.000 C 
ATOM     16  O   UNL     1      48.333   2.954  15.874  0.00  0.00    +0.000 OA
ATOM     17  C   UNL     1      47.112   3.640  16.189  0.00  0.00    +0.000 C 
ENDBRANCH  11  13
ENDBRANCH   8   9
BRANCH   8  18
ATOM     18  N   UNL     1      48.736   8.287  19.890  0.00  0.00    +0.000 NA
ATOM     19  H   UNL     1      47.876   8.483  20.406  0.00  0.00    +0.000 HD
ATOM     20  H   UNL     1      49.183   9.195  19.754  0.00  0.00    +0.000 HD
ENDBRANCH   8  18
ENDBRANCH   7   8
ENDBRANCH   1   7
BRANCH   4  21
ATOM     21  C   UNL     1      48.098   8.401  11.949  0.00  0.00    +0.000 C 
BRANCH  21  22
ATOM     22  N   UNL     1      47.477   7.216  11.418  0.00  0.00    +0.000 N 
ATOM     23  C   UNL     1      46.112   7.102  11.344  0.00  0.00    +0.000 C 
ATOM     24  O   UNL     1      45.363   8.017  11.676  0.00  0.00    +0.000 OA
ATOM     25  H   UNL     1      48.049   6.377  11.378  0.00  0.00    +0.000 HD
BRANCH  23  26
ATOM     26  C   UNL     1      45.589   5.848  10.788  0.00  0.00    +0.000 A 
ATOM     27  C   UNL     1      45.816   5.537   9.454  0.00  0.00    +0.000 A 
ATOM     28  S   UNL     1      45.173   4.029   8.984  0.00  0.00    +0.000 S 
ATOM     29  C   UNL     1      44.524   3.762  10.533  0.00  0.00    +0.000 A 
ATOM     30  N   UNL     1      43.803   2.640  10.806  0.00  0.00    +0.000 NA
ATOM     31  C   UNL     1      43.342   2.583  12.011  0.00  0.00    +0.000 A 
ATOM     32  N   UNL     1      43.545   3.541  12.973  0.00  0.00    +0.000 N 
ATOM     33  C   UNL     1      44.293   4.672  12.750  0.00  0.00    +0.000 A 
ATOM     34  O   UNL     1      44.498   5.486  13.649  0.00  0.00    +0.000 OA
ATOM     35  C   UNL     1      44.814   4.796  11.404  0.00  0.00    +0.000 A 
ATOM     36  H   UNL     1      43.172   3.428  13.901  0.00  0.00    +0.000 HD
ENDBRANCH  23  26
ENDBRANCH  21  22
ENDBRANCH   4  21
TORSDOF 8
ENDMDL
MODEL 5
REMARK VINA RESULT:    -6.609      2.217      3.112
REMARK INTER + INTRA:         -10.547
REMARK INTER:                  -9.935
REMARK INTRA:                  -0.611
REMARK UNBOUND:                -1.040
REMARK  Name = 
REMARK  8 active torsions:
REMARK  status: ('A' for Active; 'I' for Inactive)
REMARK    1  A    between atoms: N_1  and  C_2
REMARK    2  A    between atoms: C_2  and  C_3
REMARK    3  A    between atoms: C_2  and  C_24
REMARK    4  A    between atoms: C_3  and  C_4
REMARK    5  A    between atoms: C_7  and  C_8
REMARK    6  A    between atoms: C_8  and  N_9
REMARK    7  A    between atoms: C_10  and  C_12
REMARK    8  A    between atoms: N_26  and  C_27
REMARK                            x       y       z     vdW  Elec       q    Type
REMARK                         _______ _______ _______ _____ _____    ______ ____
ROOT
ATOM      1  C   UNL     1      45.776   5.724  12.999  0.00  0.00    +0.000 A 
ATOM      2  C   UNL     1      46.784   5.579  13.962  0.00  0.00    +0.000 A 
ATOM      3  C   UNL     1      47.989   6.280  13.847  0.00  0.00    +0.000 A 
ATOM      4  C   UNL     1      48.213   7.139  12.765  0.00  0.00    +0.000 A 
ATOM      5  C   UNL     1      47.224   7.247  11.777  0.00  0.00    +0.000 A 
ATOM      6  C   UNL     1      46.014   6.556  11.898  0.00  0.00    +0.000 A 
ENDROOT
BRANCH   1   7
ATOM      7  C   UNL     1      44.462   4.986  13.143  0.00  0.00    +0.000 C 
BRANCH   7   8
ATOM      8  C   UNL     1      44.504   3.488  12.763  0.00  0.00    +0.000 C 
BRANCH   8   9
ATOM      9  C   UNL     1      43.947   3.315  11.328  0.00  0.00    +0.000 C 
ATOM     10  O   UNL     1      42.789   3.577  11.020  0.00  0.00    +0.000 OA
ATOM     11  N   UNL     1      44.861   2.809  10.421  0.00  0.00    +0.000 N 
ATOM     12  H   UNL     1      45.775   2.555  10.791  0.00  0.00    +0.000 HD
BRANCH  11  13
ATOM     13  C   UNL     1      44.527   2.603   9.020  0.00  0.00    +0.000 C 
ATOM     14  C   UNL     1      45.199   1.371   8.457  0.00  0.00    +0.000 C 
ATOM     15  C   UNL     1      46.538   1.894   7.978  0.00  0.00    +0.000 C 
ATOM     16  O   UNL     1      46.387   3.293   7.698  0.00  0.00    +0.000 OA
ATOM     17  C   UNL     1      45.076   3.701   8.115  0.00  0.00    +0.000 C 
ENDBRANCH  11  13
ENDBRANCH   8   9
BRANCH   8  18
ATOM     18  N   UNL     1      45.865   2.887  12.834  0.00  0.00    +0.000 NA
ATOM     19  H   UNL     1      46.380   3.368  13.574  0.00  0.00    +0.000 HD
ATOM     20  H   UNL     1      46.358   3.112  11.970  0.00  0.00    +0.000 HD
ENDBRANCH   8  18
ENDBRANCH   7   8
ENDBRANCH   1   7
BRANCH   4  21
ATOM     21  C   UNL     1      49.500   7.914  12.637  0.00  0.00    +0.000 C 
BRANCH  21  22
ATOM     22  N   UNL     1      50.521   7.389  13.506  0.00  0.00    +0.000 N 
ATOM     23  C   UNL     1      50.731   7.918  14.755  0.00  0.00    +0.000 C 
ATOM     24  O   UNL     1      50.031   8.821  15.206  0.00  0.00    +0.000 OA
ATOM     25  H   UNL     1      51.253   6.834  13.073  0.00  0.00    +0.000 HD
BRANCH  23  26
ATOM     26  C   UNL     1      51.798   7.305  15.554  0.00  0.00    +0.000 A 
ATOM     27  C   UNL     1      53.110   7.733  15.399  0.00  0.00    +0.000 A 
ATOM     28  S   UNL     1      54.215   6.943  16.430  0.00  0.00    +0.000 S 
ATOM     29  C   UNL     1      52.987   5.963  17.084  0.00  0.00    +0.000 A 
ATOM     30  N   UNL     1      53.271   5.017  18.021  0.00  0.00    +0.000 NA
ATOM     31  C   UNL     1      52.250   4.325  18.404  0.00  0.00    +0.000 A 
ATOM     32  N   UNL     1      50.970   4.497  17.943  0.00  0.00    +0.000 N 
ATOM     33  C   UNL     1      50.634   5.461  17.022  0.00  0.00    +0.000 A 
ATOM     34  O   UNL     1      49.467   5.623  16.669  0.00  0.00    +0.000 OA
ATOM     35  C   UNL     1      51.748   6.251  16.542  0.00  0.00    +0.000 A 
ATOM     36  H   UNL     1      50.213   3.934  18.297  0.00  0.00    +0.000 HD
ENDBRANCH  23  26
ENDBRANCH  21  22
ENDBRANCH   4  21
TORSDOF 8
ENDMDL
MODEL 6
REMARK VINA RESULT:    -6.555      2.991      4.024
REMARK INTER + INTRA:         -10.469
REMARK INTER:                 -10.491
REMARK INTRA:                   0.022
REMARK UNBOUND:                -1.040
REMARK  Name = 
REMARK  8 active torsions:
REMARK  status: ('A' for Active; 'I' for Inactive)
REMARK    1  A    between atoms: N_1  and  C_2
REMARK    2  A    between atoms: C_2  and  C_3
REMARK    3  A    between atoms: C_2  and  C_24
REMARK    4  A    between atoms: C_3  and  C_4
REMARK    5  A    between atoms: C_7  and  C_8
REMARK    6  A    between atoms: C_8  and  N_9
REMARK    7  A    between atoms: C_10  and  C_12
REMARK    8  A    between atoms: N_26  and  C_27
REMARK                            x       y       z     vdW  Elec       q    Type
REMARK                         _______ _______ _______ _____ _____    ______ ____
ROOT
ATOM      1  C   UNL     1      45.021   5.469  11.385  0.00  0.00    +0.000 A 
ATOM      2  C   UNL     1      45.658   4.730  12.391  0.00  0.00    +0.000 A 
ATOM      3  C   UNL     1      46.738   5.268  13.098  0.00  0.00    +0.000 A 
ATOM      4  C   UNL     1      47.206   6.556  12.814  0.00  0.00    +0.000 A 
ATOM      5  C   UNL     1      46.599   7.277  11.775  0.00  0.00    +0.000 A 
ATOM      6  C   UNL     1      45.511   6.744  11.076  0.00  0.00    +0.000 A 
ENDROOT
BRANCH   1   7
ATOM      7  C   UNL     1      43.834   4.895  10.642  0.00  0.00    +0.000 C 
BRANCH   7   8
ATOM      8  C   UNL     1      44.144   3.664   9.759  0.00  0.00    +0.000 C 
BRANCH   8   9
ATOM      9  C   UNL     1      45.306   4.013   8.795  0.00  0.00    +0.000 C 
ATOM     10  O   UNL     1      45.588   5.160   8.470  0.00  0.00    +0.000 OA
ATOM     11  N   UNL     1      45.986   2.912   8.306  0.00  0.00    +0.000 N 
ATOM     12  H   UNL     1      45.629   1.998   8.578  0.00  0.00    +0.000 HD
BRANCH  11  13
ATOM     13  C   UNL     1      47.125   3.044   7.408  0.00  0.00    +0.000 C 
ATOM     14  C   UNL     1      46.693   3.401   6.003  0.00  0.00    +0.000 C 
ATOM     15  C   UNL     1      46.446   2.050   5.362  0.00  0.00    +0.000 C 
ATOM     16  O   UNL     1      47.244   1.083   6.059  0.00  0.00    +0.000 OA
ATOM     17  C   UNL     1      47.856   1.726   7.186  0.00  0.00    +0.000 C 
ENDBRANCH  11  13
ENDBRANCH   8   9
BRANCH   8  18
ATOM     18  N   UNL     1      44.501   2.443  10.533  0.00  0.00    +0.000 NA
ATOM     19  H   UNL     1      45.517   2.427  10.641  0.00  0.00    +0.000 HD
ATOM     20  H   UNL     1      44.276   1.627   9.963  0.00  0.00    +0.000 HD
ENDBRANCH   8  18
ENDBRANCH   7   8
ENDBRANCH   1   7
BRANCH   4  21
ATOM     21  C   UNL     1      48.358   7.155  13.580  0.00  0.00    +0.000 C 
BRANCH  21  22
ATOM     22  N   UNL     1      48.125   7.116  15.000  0.00  0.00    +0.000 N 
ATOM     23  C   UNL     1      49.138   6.824  15.879  0.00  0.00    +0.000 C 
ATOM     24  O   UNL     1      50.292   6.634  15.503  0.00  0.00    +0.000 OA
ATOM     25  H   UNL     1      47.160   7.020  15.304  0.00  0.00    +0.000 HD
BRANCH  23  26
ATOM     26  C   UNL     1      48.784   6.811  17.303  0.00  0.00    +0.000 A 
ATOM     27  C   UNL     1      48.373   7.983  17.924  0.00  0.00    +0.000 A 
ATOM     28  S   UNL     1      47.965   7.780  19.567  0.00  0.00    +0.000 S 
ATOM     29  C   UNL     1      48.374   6.130  19.522  0.00  0.00    +0.000 A 
ATOM     30  N   UNL     1      48.286   5.355  20.637  0.00  0.00    +0.000 NA
ATOM     31  C   UNL     1      48.660   4.131  20.467  0.00  0.00    +0.000 A 
ATOM     32  N   UNL     1      49.104   3.606  19.280  0.00  0.00    +0.000 N 
ATOM     33  C   UNL     1      49.178   4.344  18.122  0.00  0.00    +0.000 A 
ATOM     34  O   UNL     1      49.533   3.830  17.062  0.00  0.00    +0.000 OA
ATOM     35  C   UNL     1      48.792   5.732  18.265  0.00  0.00    +0.000 A 
ATOM     36  H   UNL     1      49.365   2.636  19.209  0.00  0.00    +0.000 HD
ENDBRANCH  23  26
ENDBRANCH  21  22
ENDBRANCH   4  21
TORSDOF 8
ENDMDL
MODEL 7
REMARK VINA RESULT:    -6.500      3.002      3.667
REMARK INTER + INTRA:         -10.391
REMARK INTER:                  -9.417
REMARK INTRA:                  -0.974
REMARK UNBOUND:                -1.040
REMARK  Name = 
REMARK  8 active torsions:
REMARK  status: ('A' for Active; 'I' for Inactive)
REMARK    1  A    between atoms: N_1  and  C_2
REMARK    2  A    between atoms: C_2  and  C_3
REMARK    3  A    between atoms: C_2  and  C_24
REMARK    4  A    between atoms: C_3  and  C_4
REMARK    5  A    between atoms: C_7  and  C_8
REMARK    6  A    between atoms: C_8  and  N_9
REMARK    7  A    between atoms: C_10  and  C_12
REMARK    8  A    between atoms: N_26  and  C_27
REMARK                            x       y       z     vdW  Elec       q    Type
REMARK                         _______ _______ _______ _____ _____    ______ ____
ROOT
ATOM      1  C   UNL     1      46.425   6.591  12.148  0.00  0.00    +0.000 A 
ATOM      2  C   UNL     1      47.742   6.343  12.560  0.00  0.00    +0.000 A 
ATOM      3  C   UNL     1      48.387   7.208  13.450  0.00  0.00    +0.000 A 
ATOM      4  C   UNL     1      47.731   8.341  13.945  0.00  0.00    +0.000 A 
ATOM      5  C   UNL     1      46.432   8.615  13.495  0.00  0.00    +0.000 A 
ATOM      6  C   UNL     1      45.781   7.744  12.615  0.00  0.00    +0.000 A 
ENDROOT
BRANCH   1   7
ATOM      7  C   UNL     1      45.720   5.638  11.208  0.00  0.00    +0.000 C 
BRANCH   7   8
ATOM      8  C   UNL     1      44.654   4.732  11.868  0.00  0.00    +0.000 C 
BRANCH   8   9
ATOM      9  C   UNL     1      44.144   3.708  10.823  0.00  0.00    +0.000 C 
ATOM     10  O   UNL     1      43.171   2.986  11.009  0.00  0.00    +0.000 OA
ATOM     11  N   UNL     1      44.898   3.656   9.664  0.00  0.00    +0.000 N 
ATOM     12  H   UNL     1      45.729   4.244   9.636  0.00  0.00    +0.000 HD
BRANCH  11  13
ATOM     13  C   UNL     1      44.556   2.773   8.559  0.00  0.00    +0.000 C 
ATOM     14  C   UNL     1      45.238   1.429   8.683  0.00  0.00    +0.000 C 
ATOM     15  C   UNL     1      46.568   1.649   7.990  0.00  0.00    +0.000 C 
ATOM     16  O   UNL     1      46.399   2.718   7.048  0.00  0.00    +0.000 OA
ATOM     17  C   UNL     1      45.086   3.272   7.220  0.00  0.00    +0.000 C 
ENDBRANCH  11  13
ENDBRANCH   8   9
BRANCH   8  18
ATOM     18  N   UNL     1      45.146   4.001  13.068  0.00  0.00    +0.000 NA
ATOM     19  H   UNL     1      45.996   3.500  12.802  0.00  0.00    +0.000 HD
ATOM     20  H   UNL     1      44.466   3.277  13.301  0.00  0.00    +0.000 HD
ENDBRANCH   8  18
ENDBRANCH   7   8
ENDBRANCH   1   7
BRANCH   4  21
ATOM     21  C   UNL     1      48.409   9.272  14.918  0.00  0.00    +0.000 C 
BRANCH  21  22
ATOM     22  N   UNL     1      48.231   8.836  16.278  0.00  0.00    +0.000 N 
ATOM     23  C   UNL     1      49.228   8.172  16.948  0.00  0.00    +0.000 C 
ATOM     24  O   UNL     1      50.327   7.965  16.441  0.00  0.00    +0.000 OA
ATOM     25  H   UNL     1      47.276   8.771  16.618  0.00  0.00    +0.000 HD
BRANCH  23  26
ATOM     26  C   UNL     1      48.934   7.773  18.329  0.00  0.00    +0.000 A 
ATOM     27  C   UNL     1      48.641   8.741  19.280  0.00  0.00    +0.000 A 
ATOM     28  S   UNL     1      48.289   8.101  20.821  0.00  0.00    +0.000 S 
ATOM     29  C   UNL     1      48.567   6.511  20.285  0.00  0.00    +0.000 A 
ATOM     30  N   UNL     1      48.466   5.456  21.139  0.00  0.00    +0.000 NA
ATOM     31  C   UNL     1      48.736   4.311  20.606  0.00  0.00    +0.000 A 
ATOM     32  N   UNL     1      49.088   4.122  19.293  0.00  0.00    +0.000 N 
ATOM     33  C   UNL     1      49.170   5.155  18.390  0.00  0.00    +0.000 A 
ATOM     34  O   UNL     1      49.439   4.945  17.208  0.00  0.00    +0.000 OA
ATOM     35  C   UNL     1      48.899   6.465  18.943  0.00  0.00    +0.000 A 
ATOM     36  H   UNL     1      49.270   3.199  18.935  0.00  0.00    +0.000 HD
ENDBRANCH  23  26
ENDBRANCH  21  22
ENDBRANCH   4  21
TORSDOF 8
ENDMDL
MODEL 8
REMARK VINA RESULT:    -6.351      5.545      6.477
REMARK INTER + INTRA:         -10.175
REMARK INTER:                  -8.906
REMARK INTRA:                  -1.269
REMARK UNBOUND:                -1.040
REMARK  Name = 
REMARK  8 active torsions:
REMARK  status: ('A' for Active; 'I' for Inactive)
REMARK    1  A    between atoms: N_1  and  C_2
REMARK    2  A    between atoms: C_2  and  C_3
REMARK    3  A    between atoms: C_2  and  C_24
REMARK    4  A    between atoms: C_3  and  C_4
REMARK    5  A    between atoms: C_7  and  C_8
REMARK    6  A    between atoms: C_8  and  N_9
REMARK    7  A    between atoms: C_10  and  C_12
REMARK    8  A    between atoms: N_26  and  C_27
REMARK                            x       y       z     vdW  Elec       q    Type
REMARK                         _______ _______ _______ _____ _____    ______ ____
ROOT
ATOM      1  C   UNL     1      46.310   5.849  12.578  0.00  0.00    +0.000 A 
ATOM      2  C   UNL     1      45.517   6.941  12.197  0.00  0.00    +0.000 A 
ATOM      3  C   UNL     1      46.050   8.233  12.158  0.00  0.00    +0.000 A 
ATOM      4  C   UNL     1      47.387   8.463  12.501  0.00  0.00    +0.000 A 
ATOM      5  C   UNL     1      48.167   7.379  12.929  0.00  0.00    +0.000 A 
ATOM      6  C   UNL     1      47.638   6.084  12.956  0.00  0.00    +0.000 A 
ENDROOT
BRANCH   1   7
ATOM      7  C   UNL     1      45.737   4.449  12.590  0.00  0.00    +0.000 C 
BRANCH   7   8
ATOM      8  C   UNL     1      44.206   4.362  12.393  0.00  0.00    +0.000 C 
BRANCH   8   9
ATOM      9  C   UNL     1      43.901   3.400  11.217  0.00  0.00    +0.000 C 
ATOM     10  O   UNL     1      43.052   2.518  11.273  0.00  0.00    +0.000 OA
ATOM     11  N   UNL     1      44.691   3.603  10.099  0.00  0.00    +0.000 N 
ATOM     12  H   UNL     1      45.416   4.313  10.178  0.00  0.00    +0.000 HD
BRANCH  11  13
ATOM     13  C   UNL     1      44.531   2.813   8.887  0.00  0.00    +0.000 C 
ATOM     14  C   UNL     1      45.703   1.882   8.666  0.00  0.00    +0.000 C 
ATOM     15  C   UNL     1      46.682   2.736   7.885  0.00  0.00    +0.000 C 
ATOM     16  O   UNL     1      45.931   3.746   7.198  0.00  0.00    +0.000 OA
ATOM     17  C   UNL     1      44.562   3.662   7.622  0.00  0.00    +0.000 C 
ENDBRANCH  11  13
ENDBRANCH   8   9
BRANCH   8  18
ATOM     18  N   UNL     1      43.469   3.903  13.603  0.00  0.00    +0.000 NA
ATOM     19  H   UNL     1      43.603   4.603  14.335  0.00  0.00    +0.000 HD
ATOM     20  H   UNL     1      43.921   3.057  13.950  0.00  0.00    +0.000 HD
ENDBRANCH   8  18
ENDBRANCH   7   8
ENDBRANCH   1   7
BRANCH   4  21
ATOM     21  C   UNL     1      47.979   9.849  12.447  0.00  0.00    +0.000 C 
BRANCH  21  22
ATOM     22  N   UNL     1      49.398   9.807  12.207  0.00  0.00    +0.000 N 
ATOM     23  C   UNL     1      49.960  10.487  11.156  0.00  0.00    +0.000 C 
ATOM     24  O   UNL     1      49.293  11.197  10.408  0.00  0.00    +0.000 OA
ATOM     25  H   UNL     1      49.915   9.049  12.642  0.00  0.00    +0.000 HD
BRANCH  23  26
ATOM     26  C   UNL     1      51.415  10.372  11.006  0.00  0.00    +0.000 A 
ATOM     27  C   UNL     1      52.202  11.516  10.997  0.00  0.00    +0.000 A 
ATOM     28  S   UNL     1      53.871  11.198  10.853  0.00  0.00    +0.000 S 
ATOM     29  C   UNL     1      53.598   9.522  10.744  0.00  0.00    +0.000 A 
ATOM     30  N   UNL     1      54.632   8.654  10.570  0.00  0.00    +0.000 NA
ATOM     31  C   UNL     1      54.277   7.416  10.471  0.00  0.00    +0.000 A 
ATOM     32  N   UNL     1      52.983   6.965  10.539  0.00  0.00    +0.000 N 
ATOM     33  C   UNL     1      51.913   7.803  10.746  0.00  0.00    +0.000 A 
ATOM     34  O   UNL     1      50.771   7.360  10.854  0.00  0.00    +0.000 OA
ATOM     35  C   UNL     1      52.255   9.207  10.842  0.00  0.00    +0.000 A 
ATOM     36  H   UNL     1      52.774   5.982  10.472  0.00  0.00    +0.000 HD
ENDBRANCH  23  26
ENDBRANCH  21  22
ENDBRANCH   4  21
TORSDOF 8
ENDMDL
MODEL 9
REMARK VINA RESULT:    -6.334      6.269      9.367
REMARK INTER + INTRA:         -10.151
REMARK INTER:                  -9.076
REMARK INTRA:                  -1.075
REMARK UNBOUND:                -1.040
REMARK  Name = 
REMARK  8 active torsions:
REMARK  status: ('A' for Active; 'I' for Inactive)
REMARK    1  A    between atoms: N_1  and  C_2
REMARK    2  A    between atoms: C_2  and  C_3
REMARK    3  A    between atoms: C_2  and  C_24
REMARK    4  A    between atoms: C_3  and  C_4
REMARK    5  A    between atoms: C_7  and  C_8
REMARK    6  A    between atoms: C_8  and  N_9
REMARK    7  A    between atoms: C_10  and  C_12
REMARK    8  A    between atoms: N_26  and  C_27
REMARK                            x       y       z     vdW  Elec       q    Type
REMARK                         _______ _______ _______ _____ _____    ______ ____
ROOT
ATOM      1  C   UNL     1      50.021   9.092  11.697  0.00  0.00    +0.000 A 
ATOM      2  C   UNL     1      49.552   7.783  11.520  0.00  0.00    +0.000 A 
ATOM      3  C   UNL     1      48.233   7.447  11.841  0.00  0.00    +0.000 A 
ATOM      4  C   UNL     1      47.354   8.412  12.347  0.00  0.00    +0.000 A 
ATOM      5  C   UNL     1      47.838   9.710  12.568  0.00  0.00    +0.000 A 
ATOM      6  C   UNL     1      49.153  10.049  12.236  0.00  0.00    +0.000 A 
ENDROOT
BRANCH   1   7
ATOM      7  C   UNL     1      51.441   9.458  11.321  0.00  0.00    +0.000 C 
BRANCH   7   8
ATOM      8  C   UNL     1      52.537   8.554  11.932  0.00  0.00    +0.000 C 
BRANCH   8   9
ATOM      9  C   UNL     1      53.564   8.189  10.830  0.00  0.00    +0.000 C 
ATOM     10  O   UNL     1      54.764   8.422  10.926  0.00  0.00    +0.000 OA
ATOM     11  N   UNL     1      53.007   7.600   9.709  0.00  0.00    +0.000 N 
ATOM     12  H   UNL     1      51.993   7.517   9.695  0.00  0.00    +0.000 HD
BRANCH  11  13
ATOM     13  C   UNL     1      53.819   7.165   8.582  0.00  0.00    +0.000 C 
ATOM     14  C   UNL     1      53.867   8.209   7.488  0.00  0.00    +0.000 C 
ATOM     15  C   UNL     1      52.655   7.878   6.640  0.00  0.00    +0.000 C 
ATOM     16  O   UNL     1      52.357   6.487   6.826  0.00  0.00    +0.000 OA
ATOM     17  C   UNL     1      53.219   5.970   7.850  0.00  0.00    +0.000 C 
ENDBRANCH  11  13
ENDBRANCH   8   9
BRANCH   8  18
ATOM     18  N   UNL     1      53.253   9.172  13.082  0.00  0.00    +0.000 NA
ATOM     19  H   UNL     1      53.549   8.419  13.706  0.00  0.00    +0.000 HD
ATOM     20  H   UNL     1      52.580   9.721  13.619  0.00  0.00    +0.000 HD
ENDBRANCH   8  18
ENDBRANCH   7   8
ENDBRANCH   1   7
BRANCH   4  21
ATOM     21  C   UNL     1      45.925   8.068  12.681  0.00  0.00    +0.000 C 
BRANCH  21  22
ATOM     22  N   UNL     1      45.613   6.707  12.328  0.00  0.00    +0.000 N 
ATOM     23  C   UNL     1      44.493   6.401  11.597  0.00  0.00    +0.000 C 
ATOM     24  O   UNL     1      43.737   7.270  11.170  0.00  0.00    +0.000 OA
ATOM     25  H   UNL     1      46.068   5.977  12.868  0.00  0.00    +0.000 HD
BRANCH  23  26
ATOM     26  C   UNL     1      44.275   4.981  11.298  0.00  0.00    +0.000 A 
ATOM     27  C   UNL     1      43.538   4.196  12.174  0.00  0.00    +0.000 A 
ATOM     28  S   UNL     1      43.350   2.582  11.653  0.00  0.00    +0.000 S 
ATOM     29  C   UNL     1      44.291   2.863  10.264  0.00  0.00    +0.000 A 
ATOM     30  N   UNL     1      44.557   1.860   9.384  0.00  0.00    +0.000 NA
ATOM     31  C   UNL     1      45.310   2.206   8.393  0.00  0.00    +0.000 A 
ATOM     32  N   UNL     1      45.814   3.467   8.197  0.00  0.00    +0.000 N 
ATOM     33  C   UNL     1      45.545   4.516   9.043  0.00  0.00    +0.000 A 
ATOM     34  O   UNL     1      45.971   5.646   8.810  0.00  0.00    +0.000 OA
ATOM     35  C   UNL     1      44.722   4.175  10.185  0.00  0.00    +0.000 A 
ATOM     36  H   UNL     1      46.383   3.677   7.392  0.00  0.00    +0.000 HD
ENDBRANCH  23  26
ENDBRANCH  21  22
ENDBRANCH   4  21
TORSDOF 8
ENDMDL
