MODEL 1
REMARK VINA RESULT:    -6.478      0.000      0.000
REMARK INTER + INTRA:         -10.474
REMARK INTER:                  -9.508
REMARK INTRA:                  -0.966
REMARK UNBOUND:                -0.966
REMARK  Name = 
REMARK  9 active torsions:
REMARK  status: ('A' for Active; 'I' for Inactive)
REMARK    1  A    between atoms: C_1  and  O_2
REMARK    2  A    between atoms: O_2  and  C_3
REMARK    3  A    between atoms: C_10  and  C_11
REMARK    4  A    between atoms: N_13  and  C_14
REMARK    5  A    between atoms: C_14  and  C_15
REMARK    6  A    between atoms: C_18  and  N_19
REMARK    7  A    between atoms: N_19  and  C_20
REMARK    8  A    between atoms: C_20  and  C_21
REMARK    9  A    between atoms: C_21  and  N_22
REMARK                            x       y       z     vdW  Elec       q    Type
REMARK                         _______ _______ _______ _____ _____    ______ ____
ROOT
ATOM      1  C   UNL     1      47.696   3.509  17.393  0.00  0.00    +0.000 C 
ENDROOT
BRANCH   1   2
ATOM      2  C   UNL     1      47.560   4.324  16.132  0.00  0.00    +0.000 A 
ATOM      3  C   UNL     1      46.780   3.861  15.069  0.00  0.00    +0.000 A 
ATOM      4  C   UNL     1      46.680   4.600  13.883  0.00  0.00    +0.000 A 
ATOM      5  C   UNL     1      47.337   5.828  13.724  0.00  0.00    +0.000 A 
ATOM      6  C   UNL     1      48.152   6.260  14.778  0.00  0.00    +0.000 A 
ATOM      7  C   UNL     1      48.258   5.525  15.970  0.00  0.00    +0.000 A 
BRANCH   5   8
ATOM      8  N   UNL     1      47.327   6.555  12.514  0.00  0.00    +0.000 N 
ATOM      9  H   UNL     1      47.754   7.471  12.646  0.00  0.00    +0.000 HD
BRANCH   8  10
ATOM     10  C   UNL     1      46.032   6.636  11.824  0.00  0.00    +0.000 C 
BRANCH  10  11
ATOM     11  C   UNL     1      45.803   5.467  10.838  0.00  0.00    +0.000 C 
BRANCH  11  12
ATOM     12  N   UNL     1      44.404   5.393  10.350  0.00  0.00    +0.000 NA
ATOM     13  C   UNL     1      43.432   5.316  11.465  0.00  0.00    +0.000 C 
ATOM     14  C   UNL     1      43.388   3.948  12.174  0.00  0.00    +0.000 C 
ATOM     15  O   UNL     1      43.229   2.856  11.258  0.00  0.00    +0.000 OA
ATOM     16  C   UNL     1      44.214   2.896  10.218  0.00  0.00    +0.000 C 
ATOM     17  C   UNL     1      44.144   4.232   9.469  0.00  0.00    +0.000 C 
ENDBRANCH  11  12
ENDBRANCH  10  11
ENDBRANCH   8  10
ENDBRANCH   5   8
ENDBRANCH   1   2
BRANCH   1  20
ATOM     18  C   UNL     1      49.868   2.416  17.033  0.00  0.00    +0.000 C 
ATOM     19  O   UNL     1      49.406   1.749  16.112  0.00  0.00    +0.000 OA
ATOM     20  N   UNL     1      49.085   3.297  17.726  0.00  0.00    +0.000 N 
ATOM     21  H   UNL     1      49.464   3.806  18.513  0.00  0.00    +0.000 HD
BRANCH  18  29
ATOM     22  C   UNL     1      52.280   4.723  17.912  0.00  0.00    +0.000 A 
ATOM     23  N   UNL     1      53.418   5.391  18.198  0.00  0.00    +0.000 NA
ATOM     24  C   UNL     1      54.540   4.687  18.365  0.00  0.00    +0.000 A 
ATOM     25  N   UNL     1      54.673   3.367  18.292  0.00  0.00    +0.000 NA
ATOM     26  C   UNL     1      53.523   2.739  17.994  0.00  0.00    +0.000 A 
ATOM     27  S   UNL     1      53.507   1.046  17.873  0.00  0.00    +0.000 S 
ATOM     28  C   UNL     1      51.856   1.041  17.476  0.00  0.00    +0.000 A 
ATOM     29  C   UNL     1      51.285   2.309  17.424  0.00  0.00    +0.000 A 
ATOM     30  C   UNL     1      52.279   3.323  17.766  0.00  0.00    +0.000 A 
BRANCH  22  32
ATOM     31  C   UNL     1      50.740   6.145  18.975  0.00  0.00    +0.000 C 
ATOM     32  O   UNL     1      51.111   5.445  17.789  0.00  0.00    +0.000 OA
ENDBRANCH  22  32
ENDBRANCH  18  29
ENDBRANCH   1  20
TORSDOF 8
ENDMDL
MODEL 2
REMARK VINA RESULT:    -6.425      2.470      4.296
REMARK INTER + INTRA:         -10.395
REMARK INTER:                  -9.735
REMARK INTRA:                  -0.660
REMARK UNBOUND:                -0.966
REMARK  Name = 
REMARK  9 active torsions:
REMARK  status: ('A' for Active; 'I' for Inactive)
REMARK    1  A    between atoms: C_1  and  O_2
REMARK    2  A    between atoms: O_2  and  C_3
REMARK    3  A    between atoms: C_10  and  C_11
REMARK    4  A    between atoms: N_13  and  C_14
REMARK    5  A    between atoms: C_14  and  C_15
REMARK    6  A    between atoms: C_18  and  N_19
REMARK    7  A    between atoms: N_19  and  C_20
REMARK    8  A    between atoms: C_20  and  C_21
REMARK    9  A    between atoms: C_21  and  N_22
REMARK                            x       y       z     vdW  Elec       q    Type
REMARK                         _______ _______ _______ _____ _____    ______ ____
ROOT
ATOM      1  C   UNL     1      48.506   7.435  12.546  0.00  0.00    +0.000 C 
ENDROOT
BRANCH   1   2
ATOM      2  C   UNL     1      47.225   6.653  12.689  0.00  0.00    +0.000 A 
ATOM      3  C   UNL     1      47.200   5.460  13.415  0.00  0.00    +0.000 A 
ATOM      4  C   UNL     1      46.019   4.713  13.520  0.00  0.00    +0.000 A 
ATOM      5  C   UNL     1      44.825   5.138  12.923  0.00  0.00    +0.000 A 
ATOM      6  C   UNL     1      44.872   6.313  12.160  0.00  0.00    +0.000 A 
ATOM      7  C   UNL     1      46.052   7.066  12.050  0.00  0.00    +0.000 A 
BRANCH   5   8
ATOM      8  N   UNL     1      43.640   4.370  12.937  0.00  0.00    +0.000 N 
ATOM      9  H   UNL     1      43.278   4.291  13.886  0.00  0.00    +0.000 HD
BRANCH   8  10
ATOM     10  C   UNL     1      43.711   3.070  12.256  0.00  0.00    +0.000 C 
BRANCH  10  11
ATOM     11  C   UNL     1      44.735   3.053  11.098  0.00  0.00    +0.000 C 
BRANCH  11  12
ATOM     12  N   UNL     1      44.092   2.957   9.764  0.00  0.00    +0.000 NA
ATOM     13  C   UNL     1      44.555   1.770   9.010  0.00  0.00    +0.000 C 
ATOM     14  C   UNL     1      45.986   1.894   8.449  0.00  0.00    +0.000 C 
ATOM     15  O   UNL     1      46.186   3.104   7.705  0.00  0.00    +0.000 OA
ATOM     16  C   UNL     1      45.799   4.256   8.463  0.00  0.00    +0.000 C 
ATOM     17  C   UNL     1      44.335   4.138   8.904  0.00  0.00    +0.000 C 
ENDBRANCH  11  12
ENDBRANCH  10  11
ENDBRANCH   8  10
ENDBRANCH   5   8
ENDBRANCH   1   2
BRANCH   1  20
ATOM     18  C   UNL     1      49.572   7.588  14.755  0.00  0.00    +0.000 C 
ATOM     19  O   UNL     1      48.832   8.514  15.073  0.00  0.00    +0.000 OA
ATOM     20  N   UNL     1      49.484   7.010  13.519  0.00  0.00    +0.000 N 
ATOM     21  H   UNL     1      50.130   6.281  13.249  0.00  0.00    +0.000 HD
BRANCH  18  29
ATOM     22  C   UNL     1      49.554   5.004  17.044  0.00  0.00    +0.000 A 
ATOM     23  N   UNL     1      49.798   4.139  18.051  0.00  0.00    +0.000 NA
ATOM     24  C   UNL     1      50.984   4.195  18.661  0.00  0.00    +0.000 A 
ATOM     25  N   UNL     1      51.988   5.019  18.380  0.00  0.00    +0.000 NA
ATOM     26  C   UNL     1      51.703   5.873  17.383  0.00  0.00    +0.000 A 
ATOM     27  S   UNL     1      52.879   6.991  16.884  0.00  0.00    +0.000 S 
ATOM     28  C   UNL     1      51.829   7.652  15.724  0.00  0.00    +0.000 A 
ATOM     29  C   UNL     1      50.575   7.050  15.690  0.00  0.00    +0.000 A 
ATOM     30  C   UNL     1      50.513   5.962  16.663  0.00  0.00    +0.000 A 
BRANCH  22  32
ATOM     31  C   UNL     1      47.259   4.528  17.218  0.00  0.00    +0.000 C 
ATOM     32  O   UNL     1      48.348   4.914  16.381  0.00  0.00    +0.000 OA
ENDBRANCH  22  32
ENDBRANCH  18  29
ENDBRANCH   1  20
TORSDOF 8
ENDMDL
MODEL 3
REMARK VINA RESULT:    -6.425      2.860      9.058
REMARK INTER + INTRA:         -10.395
REMARK INTER:                  -9.194
REMARK INTRA:                  -1.201
REMARK UNBOUND:                -0.966
REMARK  Name = 
REMARK  9 active torsions:
REMARK  status: ('A' for Active; 'I' for Inactive)
REMARK    1  A    between atoms: C_1  and  O_2
REMARK    2  A    between atoms: O_2  and  C_3
REMARK    3  A    between atoms: C_10  and  C_11
REMARK    4  A    between atoms: N_13  and  C_14
REMARK    5  A    between atoms: C_14  and  C_15
REMARK    6  A    between atoms: C_18  and  N_19
REMARK    7  A    between atoms: N_19  and  C_20
REMARK    8  A    between atoms: C_20  and  C_21
REMARK    9  A    between atoms: C_21  and  N_22
REMARK                            x       y       z     vdW  Elec       q    Type
REMARK                         _______ _______ _______ _____ _____    ______ ____
ROOT
ATOM      1  C   UNL     1      47.270   3.324  16.774  0.00  0.00    +0.000 C 
ENDROOT
BRANCH   1   2
ATOM      2  C   UNL     1      48.734   3.296  17.131  0.00  0.00    +0.000 A 
ATOM      3  C   UNL     1      49.370   4.445  17.607  0.00  0.00    +0.000 A 
ATOM      4  C   UNL     1      50.739   4.430  17.905  0.00  0.00    +0.000 A 
ATOM      5  C   UNL     1      51.512   3.271  17.757  0.00  0.00    +0.000 A 
ATOM      6  C   UNL     1      50.875   2.138  17.236  0.00  0.00    +0.000 A 
ATOM      7  C   UNL     1      49.503   2.144  16.934  0.00  0.00    +0.000 A 
BRANCH   5   8
ATOM      8  N   UNL     1      52.908   3.244  17.966  0.00  0.00    +0.000 N 
ATOM      9  H   UNL     1      53.155   2.509  18.626  0.00  0.00    +0.000 HD
BRANCH   8  10
ATOM     10  C   UNL     1      53.532   4.532  18.304  0.00  0.00    +0.000 C 
BRANCH  10  11
ATOM     11  C   UNL     1      54.342   5.133  17.133  0.00  0.00    +0.000 C 
BRANCH  11  12
ATOM     12  N   UNL     1      54.421   6.613  17.189  0.00  0.00    +0.000 NA
ATOM     13  C   UNL     1      53.079   7.237  17.247  0.00  0.00    +0.000 C 
ATOM     14  C   UNL     1      52.307   7.205  15.912  0.00  0.00    +0.000 C 
ATOM     15  O   UNL     1      53.079   7.712  14.815  0.00  0.00    +0.000 OA
ATOM     16  C   UNL     1      54.350   7.058  14.722  0.00  0.00    +0.000 C 
ATOM     17  C   UNL     1      55.128   7.214  16.035  0.00  0.00    +0.000 C 
ENDBRANCH  11  12
ENDBRANCH  10  11
ENDBRANCH   8  10
ENDBRANCH   5   8
ENDBRANCH   1   2
BRANCH   1  20
ATOM     18  C   UNL     1      46.948   4.250  14.521  0.00  0.00    +0.000 C 
ATOM     19  O   UNL     1      47.202   3.163  14.012  0.00  0.00    +0.000 OA
ATOM     20  N   UNL     1      46.975   4.416  15.878  0.00  0.00    +0.000 N 
ATOM     21  H   UNL     1      46.812   5.328  16.284  0.00  0.00    +0.000 HD
BRANCH  18  29
ATOM     22  C   UNL     1      44.158   5.107  12.677  0.00  0.00    +0.000 A 
ATOM     23  N   UNL     1      43.261   5.647  11.826  0.00  0.00    +0.000 NA
ATOM     24  C   UNL     1      43.568   6.802  11.230  0.00  0.00    +0.000 A 
ATOM     25  N   UNL     1      44.681   7.510  11.388  0.00  0.00    +0.000 NA
ATOM     26  C   UNL     1      45.555   6.935  12.231  0.00  0.00    +0.000 A 
ATOM     27  S   UNL     1      47.028   7.711  12.560  0.00  0.00    +0.000 S 
ATOM     28  C   UNL     1      47.521   6.449  13.584  0.00  0.00    +0.000 A 
ATOM     29  C   UNL     1      46.591   5.420  13.698  0.00  0.00    +0.000 A 
ATOM     30  C   UNL     1      45.400   5.729  12.911  0.00  0.00    +0.000 A 
BRANCH  22  32
ATOM     31  C   UNL     1      43.622   2.829  12.456  0.00  0.00    +0.000 C 
ATOM     32  O   UNL     1      43.821   3.939  13.330  0.00  0.00    +0.000 OA
ENDBRANCH  22  32
ENDBRANCH  18  29
ENDBRANCH   1  20
TORSDOF 8
ENDMDL
MODEL 4
REMARK VINA RESULT:    -6.246      1.844      3.201
REMARK INTER + INTRA:         -10.133
REMARK INTER:                  -8.927
REMARK INTRA:                  -1.206
REMARK UNBOUND:                -0.966
REMARK  Name = 
REMARK  9 active torsions:
REMARK  status: ('A' for Active; 'I' for Inactive)
REMARK    1  A    between atoms: C_1  and  O_2
REMARK    2  A    between atoms: O_2  and  C_3
REMARK    3  A    between atoms: C_10  and  C_11
REMARK    4  A    between atoms: N_13  and  C_14
REMARK    5  A    between atoms: C_14  and  C_15
REMARK    6  A    between atoms: C_18  and  N_19
REMARK    7  A    between atoms: N_19  and  C_20
REMARK    8  A    between atoms: C_20  and  C_21
REMARK    9  A    between atoms: C_21  and  N_22
REMARK                            x       y       z     vdW  Elec       q    Type
REMARK                         _______ _______ _______ _____ _____    ______ ____
ROOT
ATOM      1  C   UNL     1      49.571   7.970  17.273  0.00  0.00    +0.000 C 
ENDROOT
BRANCH   1   2
ATOM      2  C   UNL     1      48.874   7.851  15.943  0.00  0.00    +0.000 A 
ATOM      3  C   UNL     1      48.867   6.636  15.252  0.00  0.00    +0.000 A 
ATOM      4  C   UNL     1      48.249   6.533  13.998  0.00  0.00    +0.000 A 
ATOM      5  C   UNL     1      47.606   7.625  13.402  0.00  0.00    +0.000 A 
ATOM      6  C   UNL     1      47.658   8.849  14.083  0.00  0.00    +0.000 A 
ATOM      7  C   UNL     1      48.275   8.961  15.339  0.00  0.00    +0.000 A 
BRANCH   5   8
ATOM      8  N   UNL     1      47.049   7.579  12.106  0.00  0.00    +0.000 N 
ATOM      9  H   UNL     1      47.551   8.206  11.480  0.00  0.00    +0.000 HD
BRANCH   8  10
ATOM     10  C   UNL     1      45.592   7.756  12.025  0.00  0.00    +0.000 C 
BRANCH  10  11
ATOM     11  C   UNL     1      44.845   6.446  11.688  0.00  0.00    +0.000 C 
BRANCH  11  12
ATOM     12  N   UNL     1      44.374   5.726  12.895  0.00  0.00    +0.000 NA
ATOM     13  C   UNL     1      45.303   4.643  13.293  0.00  0.00    +0.000 C 
ATOM     14  C   UNL     1      45.256   3.401  12.381  0.00  0.00    +0.000 C 
ATOM     15  O   UNL     1      43.922   2.908  12.188  0.00  0.00    +0.000 OA
ATOM     16  C   UNL     1      43.040   3.943  11.739  0.00  0.00    +0.000 C 
ATOM     17  C   UNL     1      43.036   5.110  12.735  0.00  0.00    +0.000 C 
ENDBRANCH  11  12
ENDBRANCH  10  11
ENDBRANCH   8  10
ENDBRANCH   5   8
ENDBRANCH   1   2
BRANCH   1  20
ATOM     18  C   UNL     1      50.470   6.072  18.550  0.00  0.00    +0.000 C 
ATOM     19  O   UNL     1      49.628   6.233  19.428  0.00  0.00    +0.000 OA
ATOM     20  N   UNL     1      50.518   6.896  17.460  0.00  0.00    +0.000 N 
ATOM     21  H   UNL     1      51.246   6.784  16.767  0.00  0.00    +0.000 HD
BRANCH  18  29
ATOM     22  C   UNL     1      50.535   2.838  17.345  0.00  0.00    +0.000 A 
ATOM     23  N   UNL     1      50.790   1.539  17.081  0.00  0.00    +0.000 NA
ATOM     24  C   UNL     1      51.924   1.009  17.544  0.00  0.00    +0.000 A 
ATOM     25  N   UNL     1      52.866   1.628  18.246  0.00  0.00    +0.000 NA
ATOM     26  C   UNL     1      52.571   2.914  18.501  0.00  0.00    +0.000 A 
ATOM     27  S   UNL     1      53.673   3.862  19.378  0.00  0.00    +0.000 S 
ATOM     28  C   UNL     1      52.645   5.212  19.304  0.00  0.00    +0.000 A 
ATOM     29  C   UNL     1      51.455   4.978  18.622  0.00  0.00    +0.000 A 
ATOM     30  C   UNL     1      51.428   3.609  18.113  0.00  0.00    +0.000 A 
BRANCH  22  32
ATOM     31  C   UNL     1      48.236   3.217  17.648  0.00  0.00    +0.000 C 
ATOM     32  O   UNL     1      49.387   3.399  16.825  0.00  0.00    +0.000 OA
ENDBRANCH  22  32
ENDBRANCH  18  29
ENDBRANCH   1  20
TORSDOF 8
ENDMDL
MODEL 5
REMARK VINA RESULT:    -6.110      6.011      7.541
REMARK INTER + INTRA:          -9.934
REMARK INTER:                  -9.113
REMARK INTRA:                  -0.821
REMARK UNBOUND:                -0.966
REMARK  Name = 
REMARK  9 active torsions:
REMARK  status: ('A' for Active; 'I' for Inactive)
REMARK    1  A    between atoms: C_1  and  O_2
REMARK    2  A    between atoms: O_2  and  C_3
REMARK    3  A    between atoms: C_10  and  C_11
REMARK    4  A    between atoms: N_13  and  C_14
REMARK    5  A    between atoms: C_14  and  C_15
REMARK    6  A    between atoms: C_18  and  N_19
REMARK    7  A    between atoms: N_19  and  C_20
REMARK    8  A    between atoms: C_20  and  C_21
REMARK    9  A    between atoms: C_21  and  N_22
REMARK                            x       y       z     vdW  Elec       q    Type
REMARK                         _______ _______ _______ _____ _____    ______ ____
ROOT
ATOM      1  C   UNL     1      50.964   8.716  11.414  0.00  0.00    +0.000 C 
ENDROOT
BRANCH   1   2
ATOM      2  C   UNL     1      49.640   8.195  11.911  0.00  0.00    +0.000 A 
ATOM      3  C   UNL     1      48.454   8.867  11.606  0.00  0.00    +0.000 A 
ATOM      4  C   UNL     1      47.226   8.404  12.097  0.00  0.00    +0.000 A 
ATOM      5  C   UNL     1      47.137   7.252  12.889  0.00  0.00    +0.000 A 
ATOM      6  C   UNL     1      48.337   6.611  13.225  0.00  0.00    +0.000 A 
ATOM      7  C   UNL     1      49.572   7.069  12.738  0.00  0.00    +0.000 A 
BRANCH   5   8
ATOM      8  N   UNL     1      45.930   6.807  13.469  0.00  0.00    +0.000 N 
ATOM      9  H   UNL     1      45.926   6.994  14.471  0.00  0.00    +0.000 HD
BRANCH   8  10
ATOM     10  C   UNL     1      45.539   5.424  13.157  0.00  0.00    +0.000 C 
BRANCH  10  11
ATOM     11  C   UNL     1      45.530   5.130  11.640  0.00  0.00    +0.000 C 
BRANCH  11  12
ATOM     12  N   UNL     1      44.160   5.065  11.076  0.00  0.00    +0.000 NA
ATOM     13  C   UNL     1      43.221   4.362  11.980  0.00  0.00    +0.000 C 
ATOM     14  C   UNL     1      43.410   2.833  12.025  0.00  0.00    +0.000 C 
ATOM     15  O   UNL     1      43.428   2.240  10.719  0.00  0.00    +0.000 OA
ATOM     16  C   UNL     1      44.386   2.879   9.867  0.00  0.00    +0.000 C 
ATOM     17  C   UNL     1      44.090   4.380   9.764  0.00  0.00    +0.000 C 
ENDBRANCH  11  12
ENDBRANCH  10  11
ENDBRANCH   8  10
ENDBRANCH   5   8
ENDBRANCH   1   2
BRANCH   1  20
ATOM     18  C   UNL     1      52.830   7.857  10.063  0.00  0.00    +0.000 C 
ATOM     19  O   UNL     1      53.068   8.981   9.634  0.00  0.00    +0.000 OA
ATOM     20  N   UNL     1      51.798   7.639  10.934  0.00  0.00    +0.000 N 
ATOM     21  H   UNL     1      51.581   6.701  11.244  0.00  0.00    +0.000 HD
BRANCH  18  29
ATOM     22  C   UNL     1      53.045   5.947   7.195  0.00  0.00    +0.000 A 
ATOM     23  N   UNL     1      53.273   4.999   6.262  0.00  0.00    +0.000 NA
ATOM     24  C   UNL     1      54.145   4.029   6.545  0.00  0.00    +0.000 A 
ATOM     25  N   UNL     1      54.845   3.886   7.665  0.00  0.00    +0.000 NA
ATOM     26  C   UNL     1      54.581   4.839   8.574  0.00  0.00    +0.000 A 
ATOM     27  S   UNL     1      55.397   4.818  10.063  0.00  0.00    +0.000 S 
ATOM     28  C   UNL     1      54.558   6.194  10.598  0.00  0.00    +0.000 A 
ATOM     29  C   UNL     1      53.648   6.696   9.672  0.00  0.00    +0.000 A 
ATOM     30  C   UNL     1      53.687   5.900   8.447  0.00  0.00    +0.000 A 
BRANCH  22  32
ATOM     31  C   UNL     1      52.821   8.100   6.279  0.00  0.00    +0.000 C 
ATOM     32  O   UNL     1      52.182   6.977   6.885  0.00  0.00    +0.000 OA
ENDBRANCH  22  32
ENDBRANCH  18  29
ENDBRANCH   1  20
TORSDOF 8
ENDMDL
MODEL 6
REMARK VINA RESULT:    -5.917      6.249      8.030
REMARK INTER + INTRA:          -9.650
REMARK INTER:                  -8.426
REMARK INTRA:                  -1.224
REMARK UNBOUND:                -0.966
REMARK  Name = 
REMARK  9 active torsions:
REMARK  status: ('A' for Active; 'I' for Inactive)
REMARK    1  A    between atoms: C_1  and  O_2
REMARK    2  A    between atoms: O_2  and  C_3
REMARK    3  A    between atoms: C_10  and  C_11
REMARK    4  A    between atoms: N_13  and  C_14
REMARK    5  A    between atoms: C_14  and  C_15
REMARK    6  A    between atoms: C_18  and  N_19
REMARK    7  A    between atoms: N_19  and  C_20
REMARK    8  A    between atoms: C_20  and  C_21
REMARK    9  A    between atoms: C_21  and  N_22
REMARK                            x       y       z     vdW  Elec       q    Type
REMARK                         _______ _______ _______ _____ _____    ______ ____
ROOT
ATOM      1  C   UNL     1      51.717   8.500  12.007  0.00  0.00    +0.000 C 
ENDROOT
BRANCH   1   2
ATOM      2  C   UNL     1      50.329   8.112  12.448  0.00  0.00    +0.000 A 
ATOM      3  C   UNL     1      50.082   7.752  13.775  0.00  0.00    +0.000 A 
ATOM      4  C   UNL     1      48.800   7.357  14.180  0.00  0.00    +0.000 A 
ATOM      5  C   UNL     1      47.723   7.325  13.284  0.00  0.00    +0.000 A 
ATOM      6  C   UNL     1      47.992   7.645  11.947  0.00  0.00    +0.000 A 
ATOM      7  C   UNL     1      49.274   8.042  11.533  0.00  0.00    +0.000 A 
BRANCH   5   8
ATOM      8  N   UNL     1      46.441   6.851  13.637  0.00  0.00    +0.000 N 
ATOM      9  H   UNL     1      46.482   5.864  13.887  0.00  0.00    +0.000 HD
BRANCH   8  10
ATOM     10  C   UNL     1      45.364   7.141  12.680  0.00  0.00    +0.000 C 
BRANCH  10  11
ATOM     11  C   UNL     1      44.534   5.889  12.312  0.00  0.00    +0.000 C 
BRANCH  11  12
ATOM     12  N   UNL     1      45.365   4.790  11.764  0.00  0.00    +0.000 NA
ATOM     13  C   UNL     1      45.342   4.763  10.283  0.00  0.00    +0.000 C 
ATOM     14  C   UNL     1      44.025   4.235   9.680  0.00  0.00    +0.000 C 
ATOM     15  O   UNL     1      43.627   2.974  10.239  0.00  0.00    +0.000 OA
ATOM     16  C   UNL     1      43.587   3.024  11.669  0.00  0.00    +0.000 C 
ATOM     17  C   UNL     1      44.951   3.446  12.228  0.00  0.00    +0.000 C 
ENDBRANCH  11  12
ENDBRANCH  10  11
ENDBRANCH   8  10
ENDBRANCH   5   8
ENDBRANCH   1   2
BRANCH   1  20
ATOM     18  C   UNL     1      52.792   8.828   9.821  0.00  0.00    +0.000 C 
ATOM     19  O   UNL     1      53.366   9.834  10.228  0.00  0.00    +0.000 OA
ATOM     20  N   UNL     1      51.949   8.121  10.633  0.00  0.00    +0.000 N 
ATOM     21  H   UNL     1      51.445   7.322  10.274  0.00  0.00    +0.000 HD
BRANCH  18  29
ATOM     22  C   UNL     1      53.590   5.740   8.500  0.00  0.00    +0.000 A 
ATOM     23  N   UNL     1      53.971   4.700   7.730  0.00  0.00    +0.000 NA
ATOM     24  C   UNL     1      54.098   4.897   6.415  0.00  0.00    +0.000 A 
ATOM     25  N   UNL     1      53.876   6.026   5.752  0.00  0.00    +0.000 NA
ATOM     26  C   UNL     1      53.511   7.042   6.553  0.00  0.00    +0.000 A 
ATOM     27  S   UNL     1      53.175   8.559   5.870  0.00  0.00    +0.000 S 
ATOM     28  C   UNL     1      52.854   9.230   7.397  0.00  0.00    +0.000 A 
ATOM     29  C   UNL     1      52.995   8.330   8.450  0.00  0.00    +0.000 A 
ATOM     30  C   UNL     1      53.357   7.010   7.937  0.00  0.00    +0.000 A 
BRANCH  22  32
ATOM     31  C   UNL     1      54.628   5.504  10.594  0.00  0.00    +0.000 C 
ATOM     32  O   UNL     1      53.411   5.525   9.850  0.00  0.00    +0.000 OA
ENDBRANCH  22  32
ENDBRANCH  18  29
ENDBRANCH   1  20
TORSDOF 8
ENDMDL
MODEL 7
REMARK VINA RESULT:    -5.895      3.351      8.520
REMARK INTER + INTRA:          -9.619
REMARK INTER:                  -7.919
REMARK INTRA:                  -1.699
REMARK UNBOUND:                -0.966
REMARK  Name = 
REMARK  9 active torsions:
REMARK  status: ('A' for Active; 'I' for Inactive)
REMARK    1  A    between atoms: C_1  and  O_2
REMARK    2  A    between atoms: O_2  and  C_3
REMARK    3  A    between atoms: C_10  and  C_11
REMARK    4  A    between atoms: N_13  and  C_14
REMARK    5  A    between atoms: C_14  and  C_15
REMARK    6  A    between atoms: C_18  and  N_19
REMARK    7  A    between atoms: N_19  and  C_20
REMARK    8  A    between atoms: C_20  and  C_21
REMARK    9  A    between atoms: C_21  and  N_22
REMARK                            x       y       z     vdW  Elec       q    Type
REMARK                         _______ _______ _______ _____ _____    ______ ____
ROOT
ATOM      1  C   UNL     1      48.204   8.943  14.208  0.00  0.00    +0.000 C 
ENDROOT
BRANCH   1   2
ATOM      2  C   UNL     1      48.726   8.673  15.596  0.00  0.00    +0.000 A 
ATOM      3  C   UNL     1      49.998   8.127  15.782  0.00  0.00    +0.000 A 
ATOM      4  C   UNL     1      50.471   7.843  17.070  0.00  0.00    +0.000 A 
ATOM      5  C   UNL     1      49.702   8.109  18.211  0.00  0.00    +0.000 A 
ATOM      6  C   UNL     1      48.411   8.615  18.011  0.00  0.00    +0.000 A 
ATOM      7  C   UNL     1      47.930   8.902  16.723  0.00  0.00    +0.000 A 
BRANCH   5   8
ATOM      8  N   UNL     1      50.112   7.757  19.515  0.00  0.00    +0.000 N 
ATOM      9  H   UNL     1      51.126   7.671  19.559  0.00  0.00    +0.000 HD
BRANCH   8  10
ATOM     10  C   UNL     1      49.427   6.603  20.114  0.00  0.00    +0.000 C 
BRANCH  10  11
ATOM     11  C   UNL     1      49.622   5.301  19.304  0.00  0.00    +0.000 C 
BRANCH  11  12
ATOM     12  N   UNL     1      48.351   4.577  19.064  0.00  0.00    +0.000 NA
ATOM     13  C   UNL     1      48.580   3.163  18.688  0.00  0.00    +0.000 C 
ATOM     14  C   UNL     1      49.107   2.967  17.252  0.00  0.00    +0.000 C 
ATOM     15  O   UNL     1      48.312   3.652  16.274  0.00  0.00    +0.000 OA
ATOM     16  C   UNL     1      48.148   5.036  16.607  0.00  0.00    +0.000 C 
ATOM     17  C   UNL     1      47.518   5.179  17.997  0.00  0.00    +0.000 C 
ENDBRANCH  11  12
ENDBRANCH  10  11
ENDBRANCH   8  10
ENDBRANCH   5   8
ENDBRANCH   1   2
BRANCH   1  20
ATOM     18  C   UNL     1      47.632   6.775  13.202  0.00  0.00    +0.000 C 
ATOM     19  O   UNL     1      48.812   6.554  12.948  0.00  0.00    +0.000 OA
ATOM     20  N   UNL     1      47.247   7.938  13.809  0.00  0.00    +0.000 N 
ATOM     21  H   UNL     1      46.268   8.130  13.970  0.00  0.00    +0.000 HD
BRANCH  18  29
ATOM     22  C   UNL     1      44.511   7.020  11.748  0.00  0.00    +0.000 A 
ATOM     23  N   UNL     1      43.249   6.835  11.304  0.00  0.00    +0.000 NA
ATOM     24  C   UNL     1      42.734   5.604  11.357  0.00  0.00    +0.000 A 
ATOM     25  N   UNL     1      43.336   4.505  11.798  0.00  0.00    +0.000 NA
ATOM     26  C   UNL     1      44.583   4.731  12.243  0.00  0.00    +0.000 A 
ATOM     27  S   UNL     1      45.505   3.433  12.832  0.00  0.00    +0.000 S 
ATOM     28  C   UNL     1      46.810   4.458  13.190  0.00  0.00    +0.000 A 
ATOM     29  C   UNL     1      46.580   5.795  12.877  0.00  0.00    +0.000 A 
ATOM     30  C   UNL     1      45.256   5.951  12.280  0.00  0.00    +0.000 A 
BRANCH  22  32
ATOM     31  C   UNL     1      44.197   9.238  11.037  0.00  0.00    +0.000 C 
ATOM     32  O   UNL     1      45.061   8.281  11.648  0.00  0.00    +0.000 OA
ENDBRANCH  22  32
ENDBRANCH  18  29
ENDBRANCH   1  20
TORSDOF 8
ENDMDL
MODEL 8
REMARK VINA RESULT:    -5.744      3.163      8.901
REMARK INTER + INTRA:          -9.396
REMARK INTER:                  -7.891
REMARK INTRA:                  -1.505
REMARK UNBOUND:                -0.966
REMARK  Name = 
REMARK  9 active torsions:
REMARK  status: ('A' for Active; 'I' for Inactive)
REMARK    1  A    between atoms: C_1  and  O_2
REMARK    2  A    between atoms: O_2  and  C_3
REMARK    3  A    between atoms: C_10  and  C_11
REMARK    4  A    between atoms: N_13  and  C_14
REMARK    5  A    between atoms: C_14  and  C_15
REMARK    6  A    between atoms: C_18  and  N_19
REMARK    7  A    between atoms: N_19  and  C_20
REMARK    8  A    between atoms: C_20  and  C_21
REMARK    9  A    between atoms: C_21  and  N_22
REMARK                            x       y       z     vdW  Elec       q    Type
REMARK                         _______ _______ _______ _____ _____    ______ ____
ROOT
ATOM      1  C   UNL     1      47.476   3.648  16.374  0.00  0.00    +0.000 C 
ENDROOT
BRANCH   1   2
ATOM      2  C   UNL     1      48.150   4.463  17.448  0.00  0.00    +0.000 A 
ATOM      3  C   UNL     1      48.623   5.748  17.172  0.00  0.00    +0.000 A 
ATOM      4  C   UNL     1      49.281   6.493  18.159  0.00  0.00    +0.000 A 
ATOM      5  C   UNL     1      49.473   5.992  19.453  0.00  0.00    +0.000 A 
ATOM      6  C   UNL     1      49.035   4.686  19.707  0.00  0.00    +0.000 A 
ATOM      7  C   UNL     1      48.375   3.932  18.723  0.00  0.00    +0.000 A 
BRANCH   5   8
ATOM      8  N   UNL     1      50.205   6.680  20.445  0.00  0.00    +0.000 N 
ATOM      9  H   UNL     1      49.709   7.521  20.735  0.00  0.00    +0.000 HD
BRANCH   8  10
ATOM     10  C   UNL     1      51.617   6.944  20.134  0.00  0.00    +0.000 C 
BRANCH  10  11
ATOM     11  C   UNL     1      52.519   5.704  20.335  0.00  0.00    +0.000 C 
BRANCH  11  12
ATOM     12  N   UNL     1      53.455   5.486  19.206  0.00  0.00    +0.000 NA
ATOM     13  C   UNL     1      52.740   5.229  17.935  0.00  0.00    +0.000 C 
ATOM     14  C   UNL     1      52.100   3.830  17.839  0.00  0.00    +0.000 C 
ATOM     15  O   UNL     1      53.025   2.777  18.146  0.00  0.00    +0.000 OA
ATOM     16  C   UNL     1      53.666   2.994  19.409  0.00  0.00    +0.000 C 
ATOM     17  C   UNL     1      54.383   4.350  19.417  0.00  0.00    +0.000 C 
ENDBRANCH  11  12
ENDBRANCH  10  11
ENDBRANCH   8  10
ENDBRANCH   5   8
ENDBRANCH   1   2
BRANCH   1  20
ATOM     18  C   UNL     1      46.640   4.168  14.122  0.00  0.00    +0.000 C 
ATOM     19  O   UNL     1      47.140   3.142  13.674  0.00  0.00    +0.000 OA
ATOM     20  N   UNL     1      46.773   4.498  15.443  0.00  0.00    +0.000 N 
ATOM     21  H   UNL     1      46.398   5.370  15.791  0.00  0.00    +0.000 HD
BRANCH  18  29
ATOM     22  C   UNL     1      46.987   7.490  13.250  0.00  0.00    +0.000 A 
ATOM     23  N   UNL     1      46.826   8.760  12.823  0.00  0.00    +0.000 NA
ATOM     24  C   UNL     1      45.755   9.047  12.079  0.00  0.00    +0.000 A 
ATOM     25  N   UNL     1      44.806   8.204  11.688  0.00  0.00    +0.000 NA
ATOM     26  C   UNL     1      44.993   6.954  12.143  0.00  0.00    +0.000 A 
ATOM     27  S   UNL     1      43.880   5.742  11.728  0.00  0.00    +0.000 S 
ATOM     28  C   UNL     1      44.729   4.583  12.633  0.00  0.00    +0.000 A 
ATOM     29  C   UNL     1      45.864   5.082  13.266  0.00  0.00    +0.000 A 
ATOM     30  C   UNL     1      46.037   6.497  12.944  0.00  0.00    +0.000 A 
BRANCH  22  32
ATOM     31  C   UNL     1      48.746   8.318  14.571  0.00  0.00    +0.000 C 
ATOM     32  O   UNL     1      48.118   7.183  13.977  0.00  0.00    +0.000 OA
ENDBRANCH  22  32
ENDBRANCH  18  29
ENDBRANCH   1  20
TORSDOF 8
ENDMDL
MODEL 9
REMARK VINA RESULT:    -5.707      3.280      8.552
REMARK INTER + INTRA:          -9.341
REMARK INTER:                  -7.928
REMARK INTRA:                  -1.414
REMARK UNBOUND:                -0.966
REMARK  Name = 
REMARK  9 active torsions:
REMARK  status: ('A' for Active; 'I' for Inactive)
REMARK    1  A    between atoms: C_1  and  O_2
REMARK    2  A    between atoms: O_2  and  C_3
REMARK    3  A    between atoms: C_10  and  C_11
REMARK    4  A    between atoms: N_13  and  C_14
REMARK    5  A    between atoms: C_14  and  C_15
REMARK    6  A    between atoms: C_18  and  N_19
REMARK    7  A    between atoms: N_19  and  C_20
REMARK    8  A    between atoms: C_20  and  C_21
REMARK    9  A    between atoms: C_21  and  N_22
REMARK                            x       y       z     vdW  Elec       q    Type
REMARK                         _______ _______ _______ _____ _____    ______ ____
ROOT
ATOM      1  C   UNL     1      48.417   9.658  15.944  0.00  0.00    +0.000 C 
ENDROOT
BRANCH   1   2
ATOM      2  C   UNL     1      48.891   8.842  17.118  0.00  0.00    +0.000 A 
ATOM      3  C   UNL     1      50.256   8.638  17.336  0.00  0.00    +0.000 A 
ATOM      4  C   UNL     1      50.697   7.850  18.407  0.00  0.00    +0.000 A 
ATOM      5  C   UNL     1      49.799   7.257  19.304  0.00  0.00    +0.000 A 
ATOM      6  C   UNL     1      48.432   7.430  19.050  0.00  0.00    +0.000 A 
ATOM      7  C   UNL     1      47.981   8.218  17.978  0.00  0.00    +0.000 A 
BRANCH   5   8
ATOM      8  N   UNL     1      50.205   6.389  20.341  0.00  0.00    +0.000 N 
ATOM      9  H   UNL     1      51.048   6.742  20.791  0.00  0.00    +0.000 HD
BRANCH   8  10
ATOM     10  C   UNL     1      50.315   4.968  19.982  0.00  0.00    +0.000 C 
BRANCH  10  11
ATOM     11  C   UNL     1      51.774   4.521  19.736  0.00  0.00    +0.000 C 
BRANCH  11  12
ATOM     12  N   UNL     1      52.132   4.500  18.297  0.00  0.00    +0.000 NA
ATOM     13  C   UNL     1      50.982   4.117  17.445  0.00  0.00    +0.000 C 
ATOM     14  C   UNL     1      50.619   2.620  17.506  0.00  0.00    +0.000 C 
ATOM     15  O   UNL     1      51.751   1.768  17.279  0.00  0.00    +0.000 OA
ATOM     16  C   UNL     1      52.838   2.097  18.152  0.00  0.00    +0.000 C 
ATOM     17  C   UNL     1      53.237   3.567  17.975  0.00  0.00    +0.000 C 
ENDBRANCH  11  12
ENDBRANCH  10  11
ENDBRANCH   8  10
ENDBRANCH   5   8
ENDBRANCH   1   2
BRANCH   1  20
ATOM     18  C   UNL     1      47.974   8.122  14.076  0.00  0.00    +0.000 C 
ATOM     19  O   UNL     1      49.169   8.073  13.803  0.00  0.00    +0.000 OA
ATOM     20  N   UNL     1      47.519   8.894  15.110  0.00  0.00    +0.000 N 
ATOM     21  H   UNL     1      46.528   8.965  15.296  0.00  0.00    +0.000 HD
BRANCH  18  29
ATOM     22  C   UNL     1      47.078   4.789  14.032  0.00  0.00    +0.000 A 
ATOM     23  N   UNL     1      46.595   3.562  13.744  0.00  0.00    +0.000 NA
ATOM     24  C   UNL     1      45.680   3.452  12.778  0.00  0.00    +0.000 A 
ATOM     25  N   UNL     1      45.164   4.437  12.051  0.00  0.00    +0.000 NA
ATOM     26  C   UNL     1      45.678   5.640  12.356  0.00  0.00    +0.000 A 
ATOM     27  S   UNL     1      45.122   7.016  11.532  0.00  0.00    +0.000 S 
ATOM     28  C   UNL     1      46.184   8.022  12.394  0.00  0.00    +0.000 A 
ATOM     29  C   UNL     1      46.979   7.346  13.316  0.00  0.00    +0.000 A 
ATOM     30  C   UNL     1      46.650   5.922  13.314  0.00  0.00    +0.000 A 
BRANCH  22  32
ATOM     31  C   UNL     1      47.499   4.435  16.316  0.00  0.00    +0.000 C 
ATOM     32  O   UNL     1      47.986   4.910  15.063  0.00  0.00    +0.000 OA
ENDBRANCH  22  32
ENDBRANCH  18  29
ENDBRANCH   1  20
TORSDOF 8
ENDMDL
