MODEL 1
REMARK VINA RESULT:    -7.604      0.000      0.000
REMARK INTER + INTRA:          -9.957
REMARK INTER:                  -9.383
REMARK INTRA:                  -0.574
REMARK UNBOUND:                -0.574
REMARK  Name = 
REMARK  5 active torsions:
REMARK  status: ('A' for Active; 'I' for Inactive)
REMARK    1  A    between atoms: C_1  and  C_2
REMARK    2  A    between atoms: C_2  and  C_3
REMARK    3  A    between atoms: C_2  and  C_14
REMARK    4  A    between atoms: C_3  and  N_4
REMARK    5  A    between atoms: C_8  and  C_9
REMARK                            x       y       z     vdW  Elec       q    Type
REMARK                         _______ _______ _______ _____ _____    ______ ____
ROOT
ATOM      1  N   UNL     1      43.866   3.259  10.401  0.00  0.00    +0.000 N 
ATOM      2  C   UNL     1      44.785   3.058   9.357  0.00  0.00    +0.000 A 
ATOM      3  C   UNL     1      45.178   1.758   9.003  0.00  0.00    +0.000 A 
ATOM      4  N   UNL     1      46.071   1.468   8.016  0.00  0.00    +0.000 NA
ATOM      5  C   UNL     1      46.578   2.563   7.386  0.00  0.00    +0.000 A 
ATOM      6  C   UNL     1      46.209   3.854   7.727  0.00  0.00    +0.000 A 
ATOM      7  N   UNL     1      45.317   4.119   8.714  0.00  0.00    +0.000 NA
ATOM      8  H   UNL     1      43.019   2.729  10.213  0.00  0.00    +0.000 HD
ENDROOT
BRANCH   5   9
ATOM      9  C   UNL     1      47.566   2.358   6.293  0.00  0.00    +0.000 C 
ATOM     10  N   UNL     1      47.448   3.185   5.208  0.00  0.00    +0.000 N 
ATOM     11  O   UNL     1      48.438   1.501   6.352  0.00  0.00    +0.000 OA
ATOM     12  H   UNL     1      46.709   3.876   5.173  0.00  0.00    +0.000 HD
ATOM     13  H   UNL     1      48.084   3.073   4.430  0.00  0.00    +0.000 HD
ENDBRANCH   5   9
BRANCH   1  14
ATOM     14  C   UNL     1      43.555   4.668  10.631  0.00  0.00    +0.000 C 
BRANCH  14  16
ATOM     15  C   UNL     1      42.872   5.228  13.048  0.00  0.00    +0.000 C 
ATOM     16  C   UNL     1      43.953   4.991  12.041  0.00  0.00    +0.000 C 
BRANCH  16  17
ATOM     17  C   UNL     1      45.327   5.444  12.301  0.00  0.00    +0.000 A 
ATOM     18  C   UNL     1      45.953   6.365  11.450  0.00  0.00    +0.000 A 
ATOM     19  C   UNL     1      47.218   6.871  11.758  0.00  0.00    +0.000 A 
ATOM     20  C   UNL     1      47.868   6.462  12.919  0.00  0.00    +0.000 A 
ATOM     21  C   UNL     1      47.270   5.522  13.754  0.00  0.00    +0.000 A 
ATOM     22  C   UNL     1      46.011   5.007  13.440  0.00  0.00    +0.000 A 
ENDBRANCH  16  17
ENDBRANCH  14  16
ENDBRANCH   1  14
TORSDOF 4
ENDMDL
MODEL 2
REMARK VINA RESULT:    -7.163      3.150      6.442
REMARK INTER + INTRA:          -9.413
REMARK INTER:                  -9.053
REMARK INTRA:                  -0.360
REMARK UNBOUND:                -0.574
REMARK  Name = 
REMARK  5 active torsions:
REMARK  status: ('A' for Active; 'I' for Inactive)
REMARK    1  A    between atoms: C_1  and  C_2
REMARK    2  A    between atoms: C_2  and  C_3
REMARK    3  A    between atoms: C_2  and  C_14
REMARK    4  A    between atoms: C_3  and  N_4
REMARK    5  A    between atoms: C_8  and  C_9
REMARK                            x       y       z     vdW  Elec       q    Type
REMARK                         _______ _______ _______ _____ _____    ______ ____
ROOT
ATOM      1  N   UNL     1      43.795   4.736  10.209  0.00  0.00    +0.000 N 
ATOM      2  C   UNL     1      44.675   5.450  11.038  0.00  0.00    +0.000 A 
ATOM      3  C   UNL     1      44.321   5.733  12.367  0.00  0.00    +0.000 A 
ATOM      4  N   UNL     1      45.104   6.429  13.238  0.00  0.00    +0.000 NA
ATOM      5  C   UNL     1      46.285   6.851  12.709  0.00  0.00    +0.000 A 
ATOM      6  C   UNL     1      46.648   6.589  11.398  0.00  0.00    +0.000 A 
ATOM      7  N   UNL     1      45.852   5.893  10.548  0.00  0.00    +0.000 NA
ATOM      8  H   UNL     1      43.554   3.853  10.652  0.00  0.00    +0.000 HD
ENDROOT
BRANCH   5   9
ATOM      9  C   UNL     1      47.213   7.625  13.576  0.00  0.00    +0.000 C 
ATOM     10  N   UNL     1      46.747   8.825  14.043  0.00  0.00    +0.000 N 
ATOM     11  O   UNL     1      48.333   7.220  13.861  0.00  0.00    +0.000 OA
ATOM     12  H   UNL     1      45.824   9.149  13.782  0.00  0.00    +0.000 HD
ATOM     13  H   UNL     1      47.347   9.397  14.620  0.00  0.00    +0.000 HD
ENDBRANCH   5   9
BRANCH   1  14
ATOM     14  C   UNL     1      44.321   4.514   8.863  0.00  0.00    +0.000 C 
BRANCH  14  16
ATOM     15  C   UNL     1      44.292   2.144   9.863  0.00  0.00    +0.000 C 
ATOM     16  C   UNL     1      44.722   3.071   8.771  0.00  0.00    +0.000 C 
BRANCH  16  17
ATOM     17  C   UNL     1      45.818   2.700   7.865  0.00  0.00    +0.000 A 
ATOM     18  C   UNL     1      46.490   1.479   8.012  0.00  0.00    +0.000 A 
ATOM     19  C   UNL     1      47.459   1.084   7.086  0.00  0.00    +0.000 A 
ATOM     20  C   UNL     1      47.763   1.905   6.003  0.00  0.00    +0.000 A 
ATOM     21  C   UNL     1      47.124   3.135   5.865  0.00  0.00    +0.000 A 
ATOM     22  C   UNL     1      46.166   3.535   6.798  0.00  0.00    +0.000 A 
ENDBRANCH  16  17
ENDBRANCH  14  16
ENDBRANCH   1  14
TORSDOF 4
ENDMDL
MODEL 3
REMARK VINA RESULT:    -7.074      1.211      1.807
REMARK INTER + INTRA:          -9.302
REMARK INTER:                  -9.099
REMARK INTRA:                  -0.203
REMARK UNBOUND:                -0.574
REMARK  Name = 
REMARK  5 active torsions:
REMARK  status: ('A' for Active; 'I' for Inactive)
REMARK    1  A    between atoms: C_1  and  C_2
REMARK    2  A    between atoms: C_2  and  C_3
REMARK    3  A    between atoms: C_2  and  C_14
REMARK    4  A    between atoms: C_3  and  N_4
REMARK    5  A    between atoms: C_8  and  C_9
REMARK                            x       y       z     vdW  Elec       q    Type
REMARK                         _______ _______ _______ _____ _____    ______ ____
ROOT
ATOM      1  N   UNL     1      44.333   5.179   9.717  0.00  0.00    +0.000 N 
ATOM      2  C   UNL     1      45.028   4.113   9.121  0.00  0.00    +0.000 A 
ATOM      3  C   UNL     1      46.016   4.365   8.156  0.00  0.00    +0.000 A 
ATOM      4  N   UNL     1      46.729   3.396   7.516  0.00  0.00    +0.000 NA
ATOM      5  C   UNL     1      46.399   2.129   7.884  0.00  0.00    +0.000 A 
ATOM      6  C   UNL     1      45.421   1.859   8.828  0.00  0.00    +0.000 A 
ATOM      7  N   UNL     1      44.722   2.841   9.453  0.00  0.00    +0.000 NA
ATOM      8  H   UNL     1      44.999   5.828  10.129  0.00  0.00    +0.000 HD
ENDROOT
BRANCH   5   9
ATOM      9  C   UNL     1      47.116   0.995   7.242  0.00  0.00    +0.000 C 
ATOM     10  N   UNL     1      46.790  -0.258   7.690  0.00  0.00    +0.000 N 
ATOM     11  O   UNL     1      47.951   1.162   6.364  0.00  0.00    +0.000 OA
ATOM     12  H   UNL     1      46.108  -0.373   8.429  0.00  0.00    +0.000 HD
ATOM     13  H   UNL     1      47.263  -1.061   7.299  0.00  0.00    +0.000 HD
ENDBRANCH   5   9
BRANCH   1  14
ATOM     14  C   UNL     1      43.351   4.744  10.709  0.00  0.00    +0.000 C 
BRANCH  14  16
ATOM     15  C   UNL     1      43.027   4.862  13.258  0.00  0.00    +0.000 C 
ATOM     16  C   UNL     1      43.889   5.109  12.061  0.00  0.00    +0.000 C 
BRANCH  16  17
ATOM     17  C   UNL     1      45.032   6.029  12.142  0.00  0.00    +0.000 A 
ATOM     18  C   UNL     1      44.850   7.413  12.026  0.00  0.00    +0.000 A 
ATOM     19  C   UNL     1      45.923   8.290  12.208  0.00  0.00    +0.000 A 
ATOM     20  C   UNL     1      47.188   7.789  12.507  0.00  0.00    +0.000 A 
ATOM     21  C   UNL     1      47.387   6.413  12.592  0.00  0.00    +0.000 A 
ATOM     22  C   UNL     1      46.317   5.538  12.398  0.00  0.00    +0.000 A 
ENDBRANCH  16  17
ENDBRANCH  14  16
ENDBRANCH   1  14
TORSDOF 4
ENDMDL
MODEL 4
REMARK VINA RESULT:    -6.817      3.547      5.933
REMARK INTER + INTRA:          -8.985
REMARK INTER:                  -8.435
REMARK INTRA:                  -0.550
REMARK UNBOUND:                -0.574
REMARK  Name = 
REMARK  5 active torsions:
REMARK  status: ('A' for Active; 'I' for Inactive)
REMARK    1  A    between atoms: C_1  and  C_2
REMARK    2  A    between atoms: C_2  and  C_3
REMARK    3  A    between atoms: C_2  and  C_14
REMARK    4  A    between atoms: C_3  and  N_4
REMARK    5  A    between atoms: C_8  and  C_9
REMARK                            x       y       z     vdW  Elec       q    Type
REMARK                         _______ _______ _______ _____ _____    ______ ____
ROOT
ATOM      1  N   UNL     1      45.052   4.769  12.560  0.00  0.00    +0.000 N 
ATOM      2  C   UNL     1      46.242   5.513  12.619  0.00  0.00    +0.000 A 
ATOM      3  C   UNL     1      47.104   5.380  13.719  0.00  0.00    +0.000 A 
ATOM      4  N   UNL     1      48.270   6.069  13.868  0.00  0.00    +0.000 NA
ATOM      5  C   UNL     1      48.542   6.928  12.848  0.00  0.00    +0.000 A 
ATOM      6  C   UNL     1      47.700   7.079  11.759  0.00  0.00    +0.000 A 
ATOM      7  N   UNL     1      46.543   6.382  11.631  0.00  0.00    +0.000 NA
ATOM      8  H   UNL     1      45.266   3.780  12.658  0.00  0.00    +0.000 HD
ENDROOT
BRANCH   5   9
ATOM      9  C   UNL     1      49.791   7.733  12.914  0.00  0.00    +0.000 C 
ATOM     10  N   UNL     1      50.749   7.441  11.980  0.00  0.00    +0.000 N 
ATOM     11  O   UNL     1      49.962   8.608  13.753  0.00  0.00    +0.000 OA
ATOM     12  H   UNL     1      50.594   6.703  11.305  0.00  0.00    +0.000 HD
ATOM     13  H   UNL     1      51.623   7.948  11.994  0.00  0.00    +0.000 HD
ENDBRANCH   5   9
BRANCH   1  14
ATOM     14  C   UNL     1      44.279   5.014  11.344  0.00  0.00    +0.000 C 
BRANCH  14  16
ATOM     15  C   UNL     1      43.374   2.607  11.418  0.00  0.00    +0.000 C 
ATOM     16  C   UNL     1      44.079   3.690  10.666  0.00  0.00    +0.000 C 
BRANCH  16  17
ATOM     17  C   UNL     1      44.896   3.371   9.487  0.00  0.00    +0.000 A 
ATOM     18  C   UNL     1      45.435   4.388   8.689  0.00  0.00    +0.000 A 
ATOM     19  C   UNL     1      46.296   4.082   7.632  0.00  0.00    +0.000 A 
ATOM     20  C   UNL     1      46.627   2.756   7.365  0.00  0.00    +0.000 A 
ATOM     21  C   UNL     1      46.072   1.735   8.132  0.00  0.00    +0.000 A 
ATOM     22  C   UNL     1      45.201   2.040   9.179  0.00  0.00    +0.000 A 
ENDBRANCH  16  17
ENDBRANCH  14  16
ENDBRANCH   1  14
TORSDOF 4
ENDMDL
MODEL 5
REMARK VINA RESULT:    -6.638      4.374      7.240
REMARK INTER + INTRA:          -8.765
REMARK INTER:                  -8.407
REMARK INTRA:                  -0.357
REMARK UNBOUND:                -0.574
REMARK  Name = 
REMARK  5 active torsions:
REMARK  status: ('A' for Active; 'I' for Inactive)
REMARK    1  A    between atoms: C_1  and  C_2
REMARK    2  A    between atoms: C_2  and  C_3
REMARK    3  A    between atoms: C_2  and  C_14
REMARK    4  A    between atoms: C_3  and  N_4
REMARK    5  A    between atoms: C_8  and  C_9
REMARK                            x       y       z     vdW  Elec       q    Type
REMARK                         _______ _______ _______ _____ _____    ______ ____
ROOT
ATOM      1  N   UNL     1      46.218   5.201  12.591  0.00  0.00    +0.000 N 
ATOM      2  C   UNL     1      46.817   5.089  13.857  0.00  0.00    +0.000 A 
ATOM      3  C   UNL     1      47.803   6.005  14.256  0.00  0.00    +0.000 A 
ATOM      4  N   UNL     1      48.446   5.966  15.456  0.00  0.00    +0.000 NA
ATOM      5  C   UNL     1      48.059   4.939  16.261  0.00  0.00    +0.000 A 
ATOM      6  C   UNL     1      47.095   4.020  15.882  0.00  0.00    +0.000 A 
ATOM      7  N   UNL     1      46.467   4.079  14.680  0.00  0.00    +0.000 NA
ATOM      8  H   UNL     1      45.826   6.134  12.484  0.00  0.00    +0.000 HD
ENDROOT
BRANCH   5   9
ATOM      9  C   UNL     1      48.703   4.803  17.595  0.00  0.00    +0.000 C 
ATOM     10  N   UNL     1      47.884   4.425  18.626  0.00  0.00    +0.000 N 
ATOM     11  O   UNL     1      49.895   5.014  17.771  0.00  0.00    +0.000 OA
ATOM     12  H   UNL     1      46.897   4.271  18.462  0.00  0.00    +0.000 HD
ATOM     13  H   UNL     1      48.270   4.336  19.556  0.00  0.00    +0.000 HD
ENDBRANCH   5   9
BRANCH   1  14
ATOM     14  C   UNL     1      45.204   4.180  12.340  0.00  0.00    +0.000 C 
BRANCH  14  16
ATOM     15  C   UNL     1      43.203   5.131  11.033  0.00  0.00    +0.000 C 
ATOM     16  C   UNL     1      44.560   4.502  11.024  0.00  0.00    +0.000 C 
BRANCH  16  17
ATOM     17  C   UNL     1      45.074   3.855   9.809  0.00  0.00    +0.000 A 
ATOM     18  C   UNL     1      45.657   4.611   8.783  0.00  0.00    +0.000 A 
ATOM     19  C   UNL     1      46.238   3.984   7.678  0.00  0.00    +0.000 A 
ATOM     20  C   UNL     1      46.242   2.594   7.589  0.00  0.00    +0.000 A 
ATOM     21  C   UNL     1      45.636   1.834   8.586  0.00  0.00    +0.000 A 
ATOM     22  C   UNL     1      45.045   2.462   9.684  0.00  0.00    +0.000 A 
ENDBRANCH  16  17
ENDBRANCH  14  16
ENDBRANCH   1  14
TORSDOF 4
ENDMDL
MODEL 6
REMARK VINA RESULT:    -6.231      4.436      6.360
REMARK INTER + INTRA:          -8.262
REMARK INTER:                  -7.914
REMARK INTRA:                  -0.348
REMARK UNBOUND:                -0.574
REMARK  Name = 
REMARK  5 active torsions:
REMARK  status: ('A' for Active; 'I' for Inactive)
REMARK    1  A    between atoms: C_1  and  C_2
REMARK    2  A    between atoms: C_2  and  C_3
REMARK    3  A    between atoms: C_2  and  C_14
REMARK    4  A    between atoms: C_3  and  N_4
REMARK    5  A    between atoms: C_8  and  C_9
REMARK                            x       y       z     vdW  Elec       q    Type
REMARK                         _______ _______ _______ _____ _____    ______ ____
ROOT
ATOM      1  N   UNL     1      47.215   4.959  15.259  0.00  0.00    +0.000 N 
ATOM      2  C   UNL     1      46.563   4.804  14.024  0.00  0.00    +0.000 A 
ATOM      3  C   UNL     1      46.318   5.920  13.209  0.00  0.00    +0.000 A 
ATOM      4  N   UNL     1      45.681   5.867  12.006  0.00  0.00    +0.000 NA
ATOM      5  C   UNL     1      45.281   4.618  11.644  0.00  0.00    +0.000 A 
ATOM      6  C   UNL     1      45.505   3.505  12.438  0.00  0.00    +0.000 A 
ATOM      7  N   UNL     1      46.142   3.582  13.635  0.00  0.00    +0.000 NA
ATOM      8  H   UNL     1      48.105   5.429  15.114  0.00  0.00    +0.000 HD
ENDROOT
BRANCH   5   9
ATOM      9  C   UNL     1      44.572   4.449  10.347  0.00  0.00    +0.000 C 
ATOM     10  N   UNL     1      45.180   4.997   9.249  0.00  0.00    +0.000 N 
ATOM     11  O   UNL     1      43.505   3.855  10.257  0.00  0.00    +0.000 OA
ATOM     12  H   UNL     1      46.054   5.498   9.349  0.00  0.00    +0.000 HD
ATOM     13  H   UNL     1      44.729   4.925   8.347  0.00  0.00    +0.000 HD
ENDBRANCH   5   9
BRANCH   1  14
ATOM     14  C   UNL     1      47.404   3.699  15.974  0.00  0.00    +0.000 C 
BRANCH  14  16
ATOM     15  C   UNL     1      47.565   5.141  18.099  0.00  0.00    +0.000 C 
ATOM     16  C   UNL     1      48.096   4.017  17.267  0.00  0.00    +0.000 C 
BRANCH  16  17
ATOM     17  C   UNL     1      49.457   3.507  17.483  0.00  0.00    +0.000 A 
ATOM     18  C   UNL     1      49.786   2.181  17.173  0.00  0.00    +0.000 A 
ATOM     19  C   UNL     1      51.104   1.730  17.281  0.00  0.00    +0.000 A 
ATOM     20  C   UNL     1      52.106   2.603  17.699  0.00  0.00    +0.000 A 
ATOM     21  C   UNL     1      51.785   3.914  18.041  0.00  0.00    +0.000 A 
ATOM     22  C   UNL     1      50.466   4.360  17.945  0.00  0.00    +0.000 A 
ENDBRANCH  16  17
ENDBRANCH  14  16
ENDBRANCH   1  14
TORSDOF 4
ENDMDL
MODEL 7
REMARK VINA RESULT:    -5.877      5.133      7.711
REMARK INTER + INTRA:          -7.825
REMARK INTER:                  -7.451
REMARK INTRA:                  -0.374
REMARK UNBOUND:                -0.574
REMARK  Name = 
REMARK  5 active torsions:
REMARK  status: ('A' for Active; 'I' for Inactive)
REMARK    1  A    between atoms: C_1  and  C_2
REMARK    2  A    between atoms: C_2  and  C_3
REMARK    3  A    between atoms: C_2  and  C_14
REMARK    4  A    between atoms: C_3  and  N_4
REMARK    5  A    between atoms: C_8  and  C_9
REMARK                            x       y       z     vdW  Elec       q    Type
REMARK                         _______ _______ _______ _____ _____    ______ ____
ROOT
ATOM      1  N   UNL     1      46.427   4.170  14.030  0.00  0.00    +0.000 N 
ATOM      2  C   UNL     1      47.261   4.419  15.133  0.00  0.00    +0.000 A 
ATOM      3  C   UNL     1      47.308   3.510  16.202  0.00  0.00    +0.000 A 
ATOM      4  N   UNL     1      48.075   3.675  17.316  0.00  0.00    +0.000 NA
ATOM      5  C   UNL     1      48.805   4.823  17.323  0.00  0.00    +0.000 A 
ATOM      6  C   UNL     1      48.765   5.736  16.282  0.00  0.00    +0.000 A 
ATOM      7  N   UNL     1      47.994   5.551  15.181  0.00  0.00    +0.000 NA
ATOM      8  H   UNL     1      46.646   3.257  13.640  0.00  0.00    +0.000 HD
ENDROOT
BRANCH   5   9
ATOM      9  C   UNL     1      49.675   5.102  18.496  0.00  0.00    +0.000 C 
ATOM     10  N   UNL     1      49.510   4.283  19.581  0.00  0.00    +0.000 N 
ATOM     11  O   UNL     1      50.494   6.012  18.502  0.00  0.00    +0.000 OA
ATOM     12  H   UNL     1      48.815   3.547  19.561  0.00  0.00    +0.000 HD
ATOM     13  H   UNL     1      50.064   4.443  20.411  0.00  0.00    +0.000 HD
ENDBRANCH   5   9
BRANCH   1  14
ATOM     14  C   UNL     1      46.507   5.206  13.001  0.00  0.00    +0.000 C 
BRANCH  14  16
ATOM     15  C   UNL     1      43.958   5.551  13.036  0.00  0.00    +0.000 C 
ATOM     16  C   UNL     1      45.197   5.213  12.270  0.00  0.00    +0.000 C 
BRANCH  16  17
ATOM     17  C   UNL     1      45.108   4.526  10.973  0.00  0.00    +0.000 A 
ATOM     18  C   UNL     1      45.494   5.172   9.791  0.00  0.00    +0.000 A 
ATOM     19  C   UNL     1      45.507   4.482   8.576  0.00  0.00    +0.000 A 
ATOM     20  C   UNL     1      45.136   3.140   8.533  0.00  0.00    +0.000 A 
ATOM     21  C   UNL     1      44.720   2.498   9.697  0.00  0.00    +0.000 A 
ATOM     22  C   UNL     1      44.695   3.191  10.908  0.00  0.00    +0.000 A 
ENDBRANCH  16  17
ENDBRANCH  14  16
ENDBRANCH   1  14
TORSDOF 4
ENDMDL
MODEL 8
REMARK VINA RESULT:    -5.699      4.953      7.478
REMARK INTER + INTRA:          -7.606
REMARK INTER:                  -7.229
REMARK INTRA:                  -0.376
REMARK UNBOUND:                -0.574
REMARK  Name = 
REMARK  5 active torsions:
REMARK  status: ('A' for Active; 'I' for Inactive)
REMARK    1  A    between atoms: C_1  and  C_2
REMARK    2  A    between atoms: C_2  and  C_3
REMARK    3  A    between atoms: C_2  and  C_14
REMARK    4  A    between atoms: C_3  and  N_4
REMARK    5  A    between atoms: C_8  and  C_9
REMARK                            x       y       z     vdW  Elec       q    Type
REMARK                         _______ _______ _______ _____ _____    ______ ____
ROOT
ATOM      1  N   UNL     1      48.238   7.117  13.549  0.00  0.00    +0.000 N 
ATOM      2  C   UNL     1      48.120   6.204  14.611  0.00  0.00    +0.000 A 
ATOM      3  C   UNL     1      48.623   6.528  15.881  0.00  0.00    +0.000 A 
ATOM      4  N   UNL     1      48.566   5.702  16.963  0.00  0.00    +0.000 NA
ATOM      5  C   UNL     1      47.978   4.501  16.714  0.00  0.00    +0.000 A 
ATOM      6  C   UNL     1      47.484   4.158  15.466  0.00  0.00    +0.000 A 
ATOM      7  N   UNL     1      47.551   4.998  14.402  0.00  0.00    +0.000 NA
ATOM      8  H   UNL     1      47.823   8.005  13.820  0.00  0.00    +0.000 HD
ENDROOT
BRANCH   5   9
ATOM      9  C   UNL     1      47.868   3.522  17.829  0.00  0.00    +0.000 C 
ATOM     10  N   UNL     1      46.823   2.639  17.758  0.00  0.00    +0.000 N 
ATOM     11  O   UNL     1      48.662   3.499  18.760  0.00  0.00    +0.000 OA
ATOM     12  H   UNL     1      46.169   2.686  16.987  0.00  0.00    +0.000 HD
ATOM     13  H   UNL     1      46.694   1.966  18.500  0.00  0.00    +0.000 HD
ENDBRANCH   5   9
BRANCH   1  14
ATOM     14  C   UNL     1      47.651   6.630  12.302  0.00  0.00    +0.000 C 
BRANCH  14  16
ATOM     15  C   UNL     1      45.895   8.421  12.873  0.00  0.00    +0.000 C 
ATOM     16  C   UNL     1      46.226   7.094  12.266  0.00  0.00    +0.000 C 
BRANCH  16  17
ATOM     17  C   UNL     1      45.168   6.107  12.011  0.00  0.00    +0.000 A 
ATOM     18  C   UNL     1      44.239   5.774  13.006  0.00  0.00    +0.000 A 
ATOM     19  C   UNL     1      43.174   4.914  12.727  0.00  0.00    +0.000 A 
ATOM     20  C   UNL     1      43.027   4.380  11.449  0.00  0.00    +0.000 A 
ATOM     21  C   UNL     1      43.962   4.678  10.461  0.00  0.00    +0.000 A 
ATOM     22  C   UNL     1      45.034   5.527  10.745  0.00  0.00    +0.000 A 
ENDBRANCH  16  17
ENDBRANCH  14  16
ENDBRANCH   1  14
TORSDOF 4
ENDMDL
MODEL 9
REMARK VINA RESULT:    -5.563      5.407      8.076
REMARK INTER + INTRA:          -7.438
REMARK INTER:                  -7.121
REMARK INTRA:                  -0.317
REMARK UNBOUND:                -0.574
REMARK  Name = 
REMARK  5 active torsions:
REMARK  status: ('A' for Active; 'I' for Inactive)
REMARK    1  A    between atoms: C_1  and  C_2
REMARK    2  A    between atoms: C_2  and  C_3
REMARK    3  A    between atoms: C_2  and  C_14
REMARK    4  A    between atoms: C_3  and  N_4
REMARK    5  A    between atoms: C_8  and  C_9
REMARK                            x       y       z     vdW  Elec       q    Type
REMARK                         _______ _______ _______ _____ _____    ______ ____
ROOT
ATOM      1  N   UNL     1      46.921   5.030  14.243  0.00  0.00    +0.000 N 
ATOM      2  C   UNL     1      47.534   4.888  15.499  0.00  0.00    +0.000 A 
ATOM      3  C   UNL     1      47.078   3.913  16.401  0.00  0.00    +0.000 A 
ATOM      4  N   UNL     1      47.600   3.713  17.643  0.00  0.00    +0.000 NA
ATOM      5  C   UNL     1      48.620   4.556  17.960  0.00  0.00    +0.000 A 
ATOM      6  C   UNL     1      49.078   5.530  17.088  0.00  0.00    +0.000 A 
ATOM      7  N   UNL     1      48.542   5.712  15.855  0.00  0.00    +0.000 NA
ATOM      8  H   UNL     1      46.937   4.137  13.756  0.00  0.00    +0.000 HD
ENDROOT
BRANCH   5   9
ATOM      9  C   UNL     1      49.259   4.424  19.297  0.00  0.00    +0.000 C 
ATOM     10  N   UNL     1      48.510   3.815  20.268  0.00  0.00    +0.000 N 
ATOM     11  O   UNL     1      50.390   4.834  19.524  0.00  0.00    +0.000 OA
ATOM     12  H   UNL     1      47.571   3.498  20.063  0.00  0.00    +0.000 HD
ATOM     13  H   UNL     1      48.893   3.718  21.199  0.00  0.00    +0.000 HD
ENDBRANCH   5   9
BRANCH   1  14
ATOM     14  C   UNL     1      47.525   6.079  13.423  0.00  0.00    +0.000 C 
BRANCH  14  16
ATOM     15  C   UNL     1      46.197   8.272  13.210  0.00  0.00    +0.000 C 
ATOM     16  C   UNL     1      46.406   6.852  12.790  0.00  0.00    +0.000 C 
BRANCH  16  17
ATOM     17  C   UNL     1      45.338   6.113  12.102  0.00  0.00    +0.000 A 
ATOM     18  C   UNL     1      45.565   5.515  10.855  0.00  0.00    +0.000 A 
ATOM     19  C   UNL     1      44.581   4.726  10.254  0.00  0.00    +0.000 A 
ATOM     20  C   UNL     1      43.361   4.527  10.895  0.00  0.00    +0.000 A 
ATOM     21  C   UNL     1      43.112   5.143  12.119  0.00  0.00    +0.000 A 
ATOM     22  C   UNL     1      44.091   5.942  12.713  0.00  0.00    +0.000 A 
ENDBRANCH  16  17
ENDBRANCH  14  16
ENDBRANCH   1  14
TORSDOF 4
ENDMDL
