MODEL 1
REMARK VINA RESULT:    -7.313      0.000      0.000
REMARK INTER + INTRA:         -13.278
REMARK INTER:                 -11.374
REMARK INTRA:                  -1.904
REMARK UNBOUND:                -1.904
REMARK  Name = 
REMARK  10 active torsions:
REMARK  status: ('A' for Active; 'I' for Inactive)
REMARK    1  A    between atoms: C_2  and  C_3
REMARK    2  A    between atoms: C_3  and  N_4
REMARK    3  A    between atoms: C_5  and  C_7
REMARK    4  A    between atoms: N_17  and  CA_18
REMARK    5  A    between atoms: CA_18  and  C_19
REMARK    6  A    between atoms: CA_18  and  C_21
REMARK    7  A    between atoms: C_19  and  O_20
REMARK    8  A    between atoms: C_24  and  C_25
REMARK    9  A    between atoms: C_25  and  N_26
REMARK   10  A    between atoms: C_27  and  C_29
REMARK                            x       y       z     vdW  Elec       q    Type
REMARK                         _______ _______ _______ _____ _____    ______ ____
ROOT
ATOM      1  O   UNL     1      48.895   6.653  18.323  0.00  0.00    +0.000 OA
ATOM      2  C   UNL     1      49.031   6.270  17.165  0.00  0.00    +0.000 C 
ATOM      3  N   UNL     1      49.203   4.955  16.801  0.00  0.00    +0.000 N 
ATOM      4  H   UNL     1      49.412   4.773  15.823  0.00  0.00    +0.000 HD
ENDROOT
BRANCH   2   5
ATOM      5  C   UNL     1      49.042   7.267  16.010  0.00  0.00    +0.000 C 
BRANCH   5   6
ATOM      6  N   UNL     1      47.904   7.085  15.137  0.00  0.00    +0.000 N 
ATOM      7  C   UNL     1      48.092   6.715  13.833  0.00  0.00    +0.000 C 
ATOM      8  O   UNL     1      49.225   6.575  13.365  0.00  0.00    +0.000 OA
ATOM      9  H   UNL     1      47.018   7.497  15.424  0.00  0.00    +0.000 HD
BRANCH   7  10
ATOM     10  C   UNL     1      46.907   6.424  13.037  0.00  0.00    +0.000 A 
ATOM     11  C   UNL     1      46.236   7.450  12.390  0.00  0.00    +0.000 A 
ATOM     12  S   UNL     1      44.892   6.919  11.482  0.00  0.00    +0.000 S 
ATOM     13  C   UNL     1      45.144   5.303  11.957  0.00  0.00    +0.000 A 
ATOM     14  N   UNL     1      44.311   4.311  11.547  0.00  0.00    +0.000 NA
ATOM     15  C   UNL     1      44.602   3.145  12.021  0.00  0.00    +0.000 A 
ATOM     16  N   UNL     1      45.650   2.879  12.865  0.00  0.00    +0.000 N 
ATOM     17  C   UNL     1      46.534   3.843  13.283  0.00  0.00    +0.000 A 
ATOM     18  O   UNL     1      47.487   3.578  14.003  0.00  0.00    +0.000 OA
ATOM     19  C   UNL     1      46.243   5.172  12.784  0.00  0.00    +0.000 A 
ATOM     20  H   UNL     1      45.823   1.942  13.199  0.00  0.00    +0.000 HD
ENDBRANCH   7  10
ENDBRANCH   5   6
ENDBRANCH   2   5
BRANCH   3  21
ATOM     21  CA  UNL     1      49.167   3.776  17.684  0.00  0.00    +0.000 C 
BRANCH  21  22
ATOM     22  C   UNL     1      50.530   3.090  17.703  0.00  0.00    +0.000 A 
ATOM     23  C   UNL     1      51.682   3.771  18.124  0.00  0.00    +0.000 A 
ATOM     24  C   UNL     1      52.934   3.134  18.144  0.00  0.00    +0.000 A 
ATOM     25  C   UNL     1      53.070   1.797  17.746  0.00  0.00    +0.000 A 
ATOM     26  C   UNL     1      51.918   1.103  17.357  0.00  0.00    +0.000 A 
ATOM     27  C   UNL     1      50.671   1.744  17.326  0.00  0.00    +0.000 A 
BRANCH  25  28
ATOM     28  C   UNL     1      54.424   1.127  17.710  0.00  0.00    +0.000 C 
BRANCH  28  29
ATOM     29  N   UNL     1      54.495  -0.058  18.532  0.00  0.00    +0.000 N 
ATOM     30  C   UNL     1      54.834  -1.277  17.974  0.00  0.00    +0.000 C 
ATOM     31  O   UNL     1      55.040  -1.416  16.771  0.00  0.00    +0.000 OA
ATOM     32  H   UNL     1      54.643   0.065  19.527  0.00  0.00    +0.000 HD
BRANCH  30  33
ATOM     33  C   UNL     1      54.914  -2.466  18.931  0.00  0.00    +0.000 C 
ATOM     34  C   UNL     1      53.768  -3.443  18.800  0.00  0.00    +0.000 C 
ATOM     35  C   UNL     1      52.747  -2.950  19.806  0.00  0.00    +0.000 C 
ATOM     36  O   UNL     1      53.432  -2.100  20.737  0.00  0.00    +0.000 OA
ATOM     37  C   UNL     1      54.822  -2.045  20.380  0.00  0.00    +0.000 C 
ENDBRANCH  30  33
ENDBRANCH  28  29
ENDBRANCH  25  28
ENDBRANCH  21  22
BRANCH  21  38
ATOM     38  C   UNL     1      48.018   2.755  17.463  0.00  0.00    +0.000 C 
BRANCH  38  39
ATOM     39  O   UNL     1      46.804   3.353  17.001  0.00  0.00    +0.000 OA
ATOM     40  H   UNL     1      47.071   4.236  16.670  0.00  0.00    +0.000 HD
ENDBRANCH  38  39
ENDBRANCH  21  38
ENDBRANCH   3  21
TORSDOF 10
ENDMDL
MODEL 2
REMARK VINA RESULT:    -6.773      5.116      9.552
REMARK INTER + INTRA:         -12.438
REMARK INTER:                 -10.970
REMARK INTRA:                  -1.468
REMARK UNBOUND:                -1.904
REMARK  Name = 
REMARK  10 active torsions:
REMARK  status: ('A' for Active; 'I' for Inactive)
REMARK    1  A    between atoms: C_2  and  C_3
REMARK    2  A    between atoms: C_3  and  N_4
REMARK    3  A    between atoms: C_5  and  C_7
REMARK    4  A    between atoms: N_17  and  CA_18
REMARK    5  A    between atoms: CA_18  and  C_19
REMARK    6  A    between atoms: CA_18  and  C_21
REMARK    7  A    between atoms: C_19  and  O_20
REMARK    8  A    between atoms: C_24  and  C_25
REMARK    9  A    between atoms: C_25  and  N_26
REMARK   10  A    between atoms: C_27  and  C_29
REMARK                            x       y       z     vdW  Elec       q    Type
REMARK                         _______ _______ _______ _____ _____    ______ ____
ROOT
ATOM      1  O   UNL     1      48.165   8.520  12.165  0.00  0.00    +0.000 OA
ATOM      2  C   UNL     1      47.843   8.702  13.336  0.00  0.00    +0.000 C 
ATOM      3  N   UNL     1      46.545   8.835  13.768  0.00  0.00    +0.000 N 
ATOM      4  H   UNL     1      46.409   9.089  14.744  0.00  0.00    +0.000 HD
ENDROOT
BRANCH   2   5
ATOM      5  C   UNL     1      48.903   8.820  14.427  0.00  0.00    +0.000 C 
BRANCH   5   6
ATOM      6  N   UNL     1      48.800   7.747  15.390  0.00  0.00    +0.000 N 
ATOM      7  C   UNL     1      49.916   7.045  15.757  0.00  0.00    +0.000 C 
ATOM      8  O   UNL     1      51.015   7.279  15.247  0.00  0.00    +0.000 OA
ATOM      9  H   UNL     1      47.876   7.355  15.563  0.00  0.00    +0.000 HD
BRANCH   7  10
ATOM     10  C   UNL     1      49.774   6.061  16.822  0.00  0.00    +0.000 A 
ATOM     11  C   UNL     1      50.616   6.105  17.923  0.00  0.00    +0.000 A 
ATOM     12  S   UNL     1      50.284   4.896  19.082  0.00  0.00    +0.000 S 
ATOM     13  C   UNL     1      49.029   4.254  18.128  0.00  0.00    +0.000 A 
ATOM     14  N   UNL     1      48.327   3.162  18.531  0.00  0.00    +0.000 NA
ATOM     15  C   UNL     1      47.435   2.763  17.686  0.00  0.00    +0.000 A 
ATOM     16  N   UNL     1      47.177   3.358  16.477  0.00  0.00    +0.000 N 
ATOM     17  C   UNL     1      47.839   4.479  16.041  0.00  0.00    +0.000 A 
ATOM     18  O   UNL     1      47.566   5.020  14.977  0.00  0.00    +0.000 OA
ATOM     19  C   UNL     1      48.858   4.959  16.952  0.00  0.00    +0.000 A 
ATOM     20  H   UNL     1      46.462   2.996  15.862  0.00  0.00    +0.000 HD
ENDBRANCH   7  10
ENDBRANCH   5   6
ENDBRANCH   2   5
BRANCH   3  21
ATOM     21  CA  UNL     1      45.320   8.698  12.961  0.00  0.00    +0.000 C 
BRANCH  21  22
ATOM     22  C   UNL     1      45.248   7.304  12.343  0.00  0.00    +0.000 A 
ATOM     23  C   UNL     1      45.507   7.098  10.980  0.00  0.00    +0.000 A 
ATOM     24  C   UNL     1      45.443   5.813  10.416  0.00  0.00    +0.000 A 
ATOM     25  C   UNL     1      45.120   4.696  11.200  0.00  0.00    +0.000 A 
ATOM     26  C   UNL     1      44.893   4.892  12.568  0.00  0.00    +0.000 A 
ATOM     27  C   UNL     1      44.945   6.178  13.126  0.00  0.00    +0.000 A 
BRANCH  25  28
ATOM     28  C   UNL     1      44.991   3.322  10.586  0.00  0.00    +0.000 C 
BRANCH  28  29
ATOM     29  N   UNL     1      45.427   3.270   9.210  0.00  0.00    +0.000 N 
ATOM     30  C   UNL     1      45.375   2.082   8.505  0.00  0.00    +0.000 C 
ATOM     31  O   UNL     1      45.009   1.027   9.017  0.00  0.00    +0.000 OA
ATOM     32  H   UNL     1      45.428   4.135   8.682  0.00  0.00    +0.000 HD
BRANCH  30  33
ATOM     33  C   UNL     1      45.826   2.135   7.045  0.00  0.00    +0.000 C 
ATOM     34  C   UNL     1      46.971   1.204   6.719  0.00  0.00    +0.000 C 
ATOM     35  C   UNL     1      48.209   2.053   6.931  0.00  0.00    +0.000 C 
ATOM     36  O   UNL     1      47.801   3.428   6.899  0.00  0.00    +0.000 OA
ATOM     37  C   UNL     1      46.385   3.487   6.665  0.00  0.00    +0.000 C 
ENDBRANCH  30  33
ENDBRANCH  28  29
ENDBRANCH  25  28
ENDBRANCH  21  22
BRANCH  21  38
ATOM     38  C   UNL     1      45.034   9.803  11.908  0.00  0.00    +0.000 C 
BRANCH  38  39
ATOM     39  O   UNL     1      45.418  11.112  12.335  0.00  0.00    +0.000 OA
ATOM     40  H   UNL     1      45.878  10.971  13.190  0.00  0.00    +0.000 HD
ENDBRANCH  38  39
ENDBRANCH  21  38
ENDBRANCH   3  21
TORSDOF 10
ENDMDL
MODEL 3
REMARK VINA RESULT:    -6.718      4.293      9.796
REMARK INTER + INTRA:         -12.353
REMARK INTER:                 -10.830
REMARK INTRA:                  -1.522
REMARK UNBOUND:                -1.904
REMARK  Name = 
REMARK  10 active torsions:
REMARK  status: ('A' for Active; 'I' for Inactive)
REMARK    1  A    between atoms: C_2  and  C_3
REMARK    2  A    between atoms: C_3  and  N_4
REMARK    3  A    between atoms: C_5  and  C_7
REMARK    4  A    between atoms: N_17  and  CA_18
REMARK    5  A    between atoms: CA_18  and  C_19
REMARK    6  A    between atoms: CA_18  and  C_21
REMARK    7  A    between atoms: C_19  and  O_20
REMARK    8  A    between atoms: C_24  and  C_25
REMARK    9  A    between atoms: C_25  and  N_26
REMARK   10  A    between atoms: C_27  and  C_29
REMARK                            x       y       z     vdW  Elec       q    Type
REMARK                         _______ _______ _______ _____ _____    ______ ____
ROOT
ATOM      1  O   UNL     1      47.385   3.278  14.380  0.00  0.00    +0.000 OA
ATOM      2  C   UNL     1      47.072   4.276  15.022  0.00  0.00    +0.000 C 
ATOM      3  N   UNL     1      46.740   5.485  14.459  0.00  0.00    +0.000 N 
ATOM      4  H   UNL     1      46.603   6.267  15.096  0.00  0.00    +0.000 HD
ENDROOT
BRANCH   2   5
ATOM      5  C   UNL     1      47.052   4.246  16.548  0.00  0.00    +0.000 C 
BRANCH   5   6
ATOM      6  N   UNL     1      48.323   3.823  17.091  0.00  0.00    +0.000 N 
ATOM      7  C   UNL     1      49.414   4.644  17.001  0.00  0.00    +0.000 C 
ATOM      8  O   UNL     1      49.351   5.731  16.421  0.00  0.00    +0.000 OA
ATOM      9  H   UNL     1      48.450   2.830  17.276  0.00  0.00    +0.000 HD
BRANCH   7  10
ATOM     10  C   UNL     1      50.634   4.220  17.675  0.00  0.00    +0.000 A 
ATOM     11  C   UNL     1      51.336   5.116  18.468  0.00  0.00    +0.000 A 
ATOM     12  S   UNL     1      52.719   4.436  19.202  0.00  0.00    +0.000 S 
ATOM     13  C   UNL     1      52.443   2.934  18.451  0.00  0.00    +0.000 A 
ATOM     14  N   UNL     1      53.292   1.889  18.634  0.00  0.00    +0.000 NA
ATOM     15  C   UNL     1      52.978   0.827  17.969  0.00  0.00    +0.000 A 
ATOM     16  N   UNL     1      51.892   0.713  17.139  0.00  0.00    +0.000 N 
ATOM     17  C   UNL     1      50.992   1.730  16.945  0.00  0.00    +0.000 A 
ATOM     18  O   UNL     1      50.006   1.595  16.232  0.00  0.00    +0.000 OA
ATOM     19  C   UNL     1      51.307   2.948  17.664  0.00  0.00    +0.000 A 
ATOM     20  H   UNL     1      51.703  -0.149  16.648  0.00  0.00    +0.000 HD
ENDBRANCH   7  10
ENDBRANCH   5   6
ENDBRANCH   2   5
BRANCH   3  21
ATOM     21  CA  UNL     1      46.607   5.792  13.024  0.00  0.00    +0.000 C 
BRANCH  21  22
ATOM     22  C   UNL     1      47.584   6.895  12.628  0.00  0.00    +0.000 A 
ATOM     23  C   UNL     1      48.968   6.666  12.600  0.00  0.00    +0.000 A 
ATOM     24  C   UNL     1      49.864   7.684  12.231  0.00  0.00    +0.000 A 
ATOM     25  C   UNL     1      49.402   8.959  11.876  0.00  0.00    +0.000 A 
ATOM     26  C   UNL     1      48.019   9.182  11.870  0.00  0.00    +0.000 A 
ATOM     27  C   UNL     1      47.128   8.169  12.251  0.00  0.00    +0.000 A 
BRANCH  25  28
ATOM     28  C   UNL     1      50.365  10.072  11.536  0.00  0.00    +0.000 C 
BRANCH  28  29
ATOM     29  N   UNL     1      51.554   9.609  10.859  0.00  0.00    +0.000 N 
ATOM     30  C   UNL     1      52.069  10.317   9.789  0.00  0.00    +0.000 C 
ATOM     31  O   UNL     1      51.525  11.324   9.342  0.00  0.00    +0.000 OA
ATOM     32  H   UNL     1      52.181   9.000  11.370  0.00  0.00    +0.000 HD
BRANCH  30  33
ATOM     33  C   UNL     1      53.349   9.766   9.160  0.00  0.00    +0.000 C 
ATOM     34  C   UNL     1      53.134   9.068   7.836  0.00  0.00    +0.000 C 
ATOM     35  C   UNL     1      52.925   7.615   8.214  0.00  0.00    +0.000 C 
ATOM     36  O   UNL     1      53.447   7.433   9.538  0.00  0.00    +0.000 OA
ATOM     37  C   UNL     1      53.983   8.683  10.002  0.00  0.00    +0.000 C 
ENDBRANCH  30  33
ENDBRANCH  28  29
ENDBRANCH  25  28
ENDBRANCH  21  22
BRANCH  21  38
ATOM     38  C   UNL     1      45.178   6.075  12.485  0.00  0.00    +0.000 C 
BRANCH  38  39
ATOM     39  O   UNL     1      44.179   6.109  13.507  0.00  0.00    +0.000 OA
ATOM     40  H   UNL     1      44.410   5.368  14.106  0.00  0.00    +0.000 HD
ENDBRANCH  38  39
ENDBRANCH  21  38
ENDBRANCH   3  21
TORSDOF 10
ENDMDL
MODEL 4
REMARK VINA RESULT:    -6.549      3.514      9.682
REMARK INTER + INTRA:         -12.090
REMARK INTER:                 -10.337
REMARK INTRA:                  -1.753
REMARK UNBOUND:                -1.904
REMARK  Name = 
REMARK  10 active torsions:
REMARK  status: ('A' for Active; 'I' for Inactive)
REMARK    1  A    between atoms: C_2  and  C_3
REMARK    2  A    between atoms: C_3  and  N_4
REMARK    3  A    between atoms: C_5  and  C_7
REMARK    4  A    between atoms: N_17  and  CA_18
REMARK    5  A    between atoms: CA_18  and  C_19
REMARK    6  A    between atoms: CA_18  and  C_21
REMARK    7  A    between atoms: C_19  and  O_20
REMARK    8  A    between atoms: C_24  and  C_25
REMARK    9  A    between atoms: C_25  and  N_26
REMARK   10  A    between atoms: C_27  and  C_29
REMARK                            x       y       z     vdW  Elec       q    Type
REMARK                         _______ _______ _______ _____ _____    ______ ____
ROOT
ATOM      1  O   UNL     1      48.662  10.086  15.197  0.00  0.00    +0.000 OA
ATOM      2  C   UNL     1      49.153   8.962  15.242  0.00  0.00    +0.000 C 
ATOM      3  N   UNL     1      49.263   8.122  14.160  0.00  0.00    +0.000 N 
ATOM      4  H   UNL     1      49.589   7.176  14.343  0.00  0.00    +0.000 HD
ENDROOT
BRANCH   2   5
ATOM      5  C   UNL     1      49.676   8.392  16.558  0.00  0.00    +0.000 C 
BRANCH   5   6
ATOM      6  N   UNL     1      49.783   6.951  16.511  0.00  0.00    +0.000 N 
ATOM      7  C   UNL     1      49.060   6.181  17.382  0.00  0.00    +0.000 C 
ATOM      8  O   UNL     1      48.345   6.694  18.247  0.00  0.00    +0.000 OA
ATOM      9  H   UNL     1      50.586   6.552  16.031  0.00  0.00    +0.000 HD
BRANCH   7  10
ATOM     10  C   UNL     1      49.109   4.736  17.206  0.00  0.00    +0.000 A 
ATOM     11  C   UNL     1      47.965   4.042  16.841  0.00  0.00    +0.000 A 
ATOM     12  S   UNL     1      48.218   2.365  16.651  0.00  0.00    +0.000 S 
ATOM     13  C   UNL     1      49.857   2.510  17.088  0.00  0.00    +0.000 A 
ATOM     14  N   UNL     1      50.667   1.421  17.156  0.00  0.00    +0.000 NA
ATOM     15  C   UNL     1      51.872   1.679  17.542  0.00  0.00    +0.000 A 
ATOM     16  N   UNL     1      52.344   2.927  17.862  0.00  0.00    +0.000 N 
ATOM     17  C   UNL     1      51.573   4.059  17.781  0.00  0.00    +0.000 A 
ATOM     18  O   UNL     1      52.024   5.169  18.032  0.00  0.00    +0.000 OA
ATOM     19  C   UNL     1      50.207   3.818  17.361  0.00  0.00    +0.000 A 
ATOM     20  H   UNL     1      53.301   3.060  18.156  0.00  0.00    +0.000 HD
ENDBRANCH   7  10
ENDBRANCH   5   6
ENDBRANCH   2   5
BRANCH   3  21
ATOM     21  CA  UNL     1      48.910   8.422  12.762  0.00  0.00    +0.000 C 
BRANCH  21  22
ATOM     22  C   UNL     1      47.625   7.695  12.373  0.00  0.00    +0.000 A 
ATOM     23  C   UNL     1      46.455   7.829  13.135  0.00  0.00    +0.000 A 
ATOM     24  C   UNL     1      45.274   7.160  12.772  0.00  0.00    +0.000 A 
ATOM     25  C   UNL     1      45.228   6.342  11.635  0.00  0.00    +0.000 A 
ATOM     26  C   UNL     1      46.384   6.232  10.852  0.00  0.00    +0.000 A 
ATOM     27  C   UNL     1      47.565   6.890  11.224  0.00  0.00    +0.000 A 
BRANCH  25  28
ATOM     28  C   UNL     1      43.977   5.575  11.274  0.00  0.00    +0.000 C 
BRANCH  28  29
ATOM     29  N   UNL     1      44.114   4.800  10.063  0.00  0.00    +0.000 N 
ATOM     30  C   UNL     1      44.386   3.445  10.128  0.00  0.00    +0.000 C 
ATOM     31  O   UNL     1      44.568   2.860  11.193  0.00  0.00    +0.000 OA
ATOM     32  H   UNL     1      43.674   5.155   9.222  0.00  0.00    +0.000 HD
BRANCH  30  33
ATOM     33  C   UNL     1      44.480   2.705   8.794  0.00  0.00    +0.000 C 
ATOM     34  C   UNL     1      45.788   1.976   8.583  0.00  0.00    +0.000 C 
ATOM     35  C   UNL     1      46.661   2.985   7.864  0.00  0.00    +0.000 C 
ATOM     36  O   UNL     1      45.796   3.980   7.298  0.00  0.00    +0.000 OA
ATOM     37  C   UNL     1      44.434   3.644   7.610  0.00  0.00    +0.000 C 
ENDBRANCH  30  33
ENDBRANCH  28  29
ENDBRANCH  25  28
ENDBRANCH  21  22
BRANCH  21  38
ATOM     38  C   UNL     1      50.018   8.233  11.690  0.00  0.00    +0.000 C 
BRANCH  38  39
ATOM     39  O   UNL     1      51.219   7.656  12.208  0.00  0.00    +0.000 OA
ATOM     40  H   UNL     1      51.149   7.763  13.180  0.00  0.00    +0.000 HD
ENDBRANCH  38  39
ENDBRANCH  21  38
ENDBRANCH   3  21
TORSDOF 10
ENDMDL
MODEL 5
REMARK VINA RESULT:    -6.496      1.841      2.553
REMARK INTER + INTRA:         -12.007
REMARK INTER:                 -10.588
REMARK INTRA:                  -1.418
REMARK UNBOUND:                -1.904
REMARK  Name = 
REMARK  10 active torsions:
REMARK  status: ('A' for Active; 'I' for Inactive)
REMARK    1  A    between atoms: C_2  and  C_3
REMARK    2  A    between atoms: C_3  and  N_4
REMARK    3  A    between atoms: C_5  and  C_7
REMARK    4  A    between atoms: N_17  and  CA_18
REMARK    5  A    between atoms: CA_18  and  C_19
REMARK    6  A    between atoms: CA_18  and  C_21
REMARK    7  A    between atoms: C_19  and  O_20
REMARK    8  A    between atoms: C_24  and  C_25
REMARK    9  A    between atoms: C_25  and  N_26
REMARK   10  A    between atoms: C_27  and  C_29
REMARK                            x       y       z     vdW  Elec       q    Type
REMARK                         _______ _______ _______ _____ _____    ______ ____
ROOT
ATOM      1  O   UNL     1      48.922   7.943  17.065  0.00  0.00    +0.000 OA
ATOM      2  C   UNL     1      48.651   7.204  16.123  0.00  0.00    +0.000 C 
ATOM      3  N   UNL     1      48.268   5.891  16.255  0.00  0.00    +0.000 N 
ATOM      4  H   UNL     1      48.175   5.351  15.398  0.00  0.00    +0.000 HD
ENDROOT
BRANCH   2   5
ATOM      5  C   UNL     1      48.747   7.708  14.685  0.00  0.00    +0.000 C 
BRANCH   5   6
ATOM      6  N   UNL     1      47.514   7.496  13.962  0.00  0.00    +0.000 N 
ATOM      7  C   UNL     1      47.372   6.399  13.155  0.00  0.00    +0.000 C 
ATOM      8  O   UNL     1      48.299   5.602  12.992  0.00  0.00    +0.000 OA
ATOM      9  H   UNL     1      46.890   8.292  13.848  0.00  0.00    +0.000 HD
BRANCH   7  10
ATOM     10  C   UNL     1      46.066   6.170  12.552  0.00  0.00    +0.000 A 
ATOM     11  C   UNL     1      45.350   7.233  12.023  0.00  0.00    +0.000 A 
ATOM     12  S   UNL     1      43.858   6.771  11.332  0.00  0.00    +0.000 S 
ATOM     13  C   UNL     1      44.108   5.141  11.755  0.00  0.00    +0.000 A 
ATOM     14  N   UNL     1      43.178   4.191  11.474  0.00  0.00    +0.000 NA
ATOM     15  C   UNL     1      43.485   3.008  11.891  0.00  0.00    +0.000 A 
ATOM     16  N   UNL     1      44.639   2.686  12.560  0.00  0.00    +0.000 N 
ATOM     17  C   UNL     1      45.619   3.605  12.840  0.00  0.00    +0.000 A 
ATOM     18  O   UNL     1      46.660   3.290  13.401  0.00  0.00    +0.000 OA
ATOM     19  C   UNL     1      45.315   4.951  12.399  0.00  0.00    +0.000 A 
ATOM     20  H   UNL     1      44.819   1.738  12.858  0.00  0.00    +0.000 HD
ENDBRANCH   7  10
ENDBRANCH   5   6
ENDBRANCH   2   5
BRANCH   3  21
ATOM     21  CA  UNL     1      48.025   5.158  17.509  0.00  0.00    +0.000 C 
BRANCH  21  22
ATOM     22  C   UNL     1      49.348   4.850  18.206  0.00  0.00    +0.000 A 
ATOM     23  C   UNL     1      49.622   5.336  19.493  0.00  0.00    +0.000 A 
ATOM     24  C   UNL     1      50.839   5.048  20.133  0.00  0.00    +0.000 A 
ATOM     25  C   UNL     1      51.817   4.263  19.505  0.00  0.00    +0.000 A 
ATOM     26  C   UNL     1      51.534   3.748  18.234  0.00  0.00    +0.000 A 
ATOM     27  C   UNL     1      50.323   4.047  17.593  0.00  0.00    +0.000 A 
BRANCH  25  28
ATOM     28  C   UNL     1      53.150   4.000  20.165  0.00  0.00    +0.000 C 
BRANCH  28  29
ATOM     29  N   UNL     1      53.787   2.791  19.699  0.00  0.00    +0.000 N 
ATOM     30  C   UNL     1      54.841   2.856  18.806  0.00  0.00    +0.000 C 
ATOM     31  O   UNL     1      55.247   3.918  18.342  0.00  0.00    +0.000 OA
ATOM     32  H   UNL     1      53.703   1.960  20.274  0.00  0.00    +0.000 HD
BRANCH  30  33
ATOM     33  C   UNL     1      55.471   1.524  18.398  0.00  0.00    +0.000 C 
ATOM     34  C   UNL     1      55.015   1.014  17.050  0.00  0.00    +0.000 C 
ATOM     35  C   UNL     1      53.825   0.131  17.372  0.00  0.00    +0.000 C 
ATOM     36  O   UNL     1      53.905  -0.210  18.764  0.00  0.00    +0.000 OA
ATOM     37  C   UNL     1      55.081   0.395  19.324  0.00  0.00    +0.000 C 
ENDBRANCH  30  33
ENDBRANCH  28  29
ENDBRANCH  25  28
ENDBRANCH  21  22
BRANCH  21  38
ATOM     38  C   UNL     1      47.115   3.901  17.436  0.00  0.00    +0.000 C 
BRANCH  38  39
ATOM     39  O   UNL     1      47.084   3.294  16.142  0.00  0.00    +0.000 OA
ATOM     40  H   UNL     1      46.558   3.910  15.589  0.00  0.00    +0.000 HD
ENDBRANCH  38  39
ENDBRANCH  21  38
ENDBRANCH   3  21
TORSDOF 10
ENDMDL
MODEL 6
REMARK VINA RESULT:    -6.367      4.187      9.057
REMARK INTER + INTRA:         -11.807
REMARK INTER:                  -9.859
REMARK INTRA:                  -1.949
REMARK UNBOUND:                -1.904
REMARK  Name = 
REMARK  10 active torsions:
REMARK  status: ('A' for Active; 'I' for Inactive)
REMARK    1  A    between atoms: C_2  and  C_3
REMARK    2  A    between atoms: C_3  and  N_4
REMARK    3  A    between atoms: C_5  and  C_7
REMARK    4  A    between atoms: N_17  and  CA_18
REMARK    5  A    between atoms: CA_18  and  C_19
REMARK    6  A    between atoms: CA_18  and  C_21
REMARK    7  A    between atoms: C_19  and  O_20
REMARK    8  A    between atoms: C_24  and  C_25
REMARK    9  A    between atoms: C_25  and  N_26
REMARK   10  A    between atoms: C_27  and  C_29
REMARK                            x       y       z     vdW  Elec       q    Type
REMARK                         _______ _______ _______ _____ _____    ______ ____
ROOT
ATOM      1  O   UNL     1      53.619   9.421  15.701  0.00  0.00    +0.000 OA
ATOM      2  C   UNL     1      53.233   8.259  15.614  0.00  0.00    +0.000 C 
ATOM      3  N   UNL     1      52.437   7.783  14.600  0.00  0.00    +0.000 N 
ATOM      4  H   UNL     1      52.095   6.830  14.692  0.00  0.00    +0.000 HD
ENDROOT
BRANCH   2   5
ATOM      5  C   UNL     1      53.609   7.231  16.677  0.00  0.00    +0.000 C 
BRANCH   5   6
ATOM      6  N   UNL     1      52.770   6.056  16.604  0.00  0.00    +0.000 N 
ATOM      7  C   UNL     1      52.064   5.648  17.703  0.00  0.00    +0.000 C 
ATOM      8  O   UNL     1      52.162   6.239  18.781  0.00  0.00    +0.000 OA
ATOM      9  H   UNL     1      52.933   5.407  15.837  0.00  0.00    +0.000 HD
BRANCH   7  10
ATOM     10  C   UNL     1      51.140   4.535  17.536  0.00  0.00    +0.000 A 
ATOM     11  C   UNL     1      51.621   3.235  17.481  0.00  0.00    +0.000 A 
ATOM     12  S   UNL     1      50.393   2.062  17.313  0.00  0.00    +0.000 S 
ATOM     13  C   UNL     1      49.183   3.258  17.270  0.00  0.00    +0.000 A 
ATOM     14  N   UNL     1      47.874   2.930  17.112  0.00  0.00    +0.000 NA
ATOM     15  C   UNL     1      47.076   3.944  17.055  0.00  0.00    +0.000 A 
ATOM     16  N   UNL     1      47.466   5.256  17.146  0.00  0.00    +0.000 N 
ATOM     17  C   UNL     1      48.771   5.635  17.335  0.00  0.00    +0.000 A 
ATOM     18  O   UNL     1      49.094   6.809  17.455  0.00  0.00    +0.000 OA
ATOM     19  C   UNL     1      49.707   4.530  17.395  0.00  0.00    +0.000 A 
ATOM     20  H   UNL     1      46.788   6.004  17.096  0.00  0.00    +0.000 HD
ENDBRANCH   7  10
ENDBRANCH   5   6
ENDBRANCH   2   5
BRANCH   3  21
ATOM     21  CA  UNL     1      51.978   8.520  13.409  0.00  0.00    +0.000 C 
BRANCH  21  22
ATOM     22  C   UNL     1      50.523   8.173  13.103  0.00  0.00    +0.000 A 
ATOM     23  C   UNL     1      49.746   7.431  14.005  0.00  0.00    +0.000 A 
ATOM     24  C   UNL     1      48.406   7.118  13.721  0.00  0.00    +0.000 A 
ATOM     25  C   UNL     1      47.804   7.539  12.528  0.00  0.00    +0.000 A 
ATOM     26  C   UNL     1      48.565   8.309  11.639  0.00  0.00    +0.000 A 
ATOM     27  C   UNL     1      49.906   8.610  11.919  0.00  0.00    +0.000 A 
BRANCH  25  28
ATOM     28  C   UNL     1      46.382   7.154  12.192  0.00  0.00    +0.000 C 
BRANCH  28  29
ATOM     29  N   UNL     1      46.219   5.740  11.946  0.00  0.00    +0.000 N 
ATOM     30  C   UNL     1      45.226   5.029  12.595  0.00  0.00    +0.000 C 
ATOM     31  O   UNL     1      44.483   5.543  13.427  0.00  0.00    +0.000 OA
ATOM     32  H   UNL     1      46.577   5.367  11.075  0.00  0.00    +0.000 HD
BRANCH  30  33
ATOM     33  C   UNL     1      45.111   3.545  12.244  0.00  0.00    +0.000 C 
ATOM     34  C   UNL     1      45.376   3.233  10.789  0.00  0.00    +0.000 C 
ATOM     35  C   UNL     1      44.006   3.293  10.143  0.00  0.00    +0.000 C 
ATOM     36  O   UNL     1      43.030   3.165  11.187  0.00  0.00    +0.000 OA
ATOM     37  C   UNL     1      43.710   3.014  12.443  0.00  0.00    +0.000 C 
ENDBRANCH  30  33
ENDBRANCH  28  29
ENDBRANCH  25  28
ENDBRANCH  21  22
BRANCH  21  38
ATOM     38  C   UNL     1      52.863   8.439  12.135  0.00  0.00    +0.000 C 
BRANCH  38  39
ATOM     39  O   UNL     1      53.573   7.205  12.011  0.00  0.00    +0.000 OA
ATOM     40  H   UNL     1      53.603   6.841  12.922  0.00  0.00    +0.000 HD
ENDBRANCH  38  39
ENDBRANCH  21  38
ENDBRANCH   3  21
TORSDOF 10
ENDMDL
MODEL 7
REMARK VINA RESULT:    -5.943      3.315      9.187
REMARK INTER + INTRA:         -11.147
REMARK INTER:                  -9.476
REMARK INTRA:                  -1.671
REMARK UNBOUND:                -1.904
REMARK  Name = 
REMARK  10 active torsions:
REMARK  status: ('A' for Active; 'I' for Inactive)
REMARK    1  A    between atoms: C_2  and  C_3
REMARK    2  A    between atoms: C_3  and  N_4
REMARK    3  A    between atoms: C_5  and  C_7
REMARK    4  A    between atoms: N_17  and  CA_18
REMARK    5  A    between atoms: CA_18  and  C_19
REMARK    6  A    between atoms: CA_18  and  C_21
REMARK    7  A    between atoms: C_19  and  O_20
REMARK    8  A    between atoms: C_24  and  C_25
REMARK    9  A    between atoms: C_25  and  N_26
REMARK   10  A    between atoms: C_27  and  C_29
REMARK                            x       y       z     vdW  Elec       q    Type
REMARK                         _______ _______ _______ _____ _____    ______ ____
ROOT
ATOM      1  O   UNL     1      51.895  10.194  17.126  0.00  0.00    +0.000 OA
ATOM      2  C   UNL     1      51.449   9.051  17.064  0.00  0.00    +0.000 C 
ATOM      3  N   UNL     1      50.914   8.491  15.930  0.00  0.00    +0.000 N 
ATOM      4  H   UNL     1      50.480   7.577  16.029  0.00  0.00    +0.000 HD
ENDROOT
BRANCH   2   5
ATOM      5  C   UNL     1      51.441   8.150  18.296  0.00  0.00    +0.000 C 
BRANCH   5   6
ATOM      6  N   UNL     1      51.218   6.766  17.943  0.00  0.00    +0.000 N 
ATOM      7  C   UNL     1      50.074   6.132  18.348  0.00  0.00    +0.000 C 
ATOM      8  O   UNL     1      49.241   6.705  19.053  0.00  0.00    +0.000 OA
ATOM      9  H   UNL     1      52.023   6.219  17.647  0.00  0.00    +0.000 HD
BRANCH   7  10
ATOM     10  C   UNL     1      49.844   4.779  17.857  0.00  0.00    +0.000 A 
ATOM     11  C   UNL     1      48.615   4.439  17.313  0.00  0.00    +0.000 A 
ATOM     12  S   UNL     1      48.539   2.824  16.763  0.00  0.00    +0.000 S 
ATOM     13  C   UNL     1      50.134   2.521  17.273  0.00  0.00    +0.000 A 
ATOM     14  N   UNL     1      50.699   1.293  17.123  0.00  0.00    +0.000 NA
ATOM     15  C   UNL     1      51.898   1.201  17.594  0.00  0.00    +0.000 A 
ATOM     16  N   UNL     1      52.586   2.223  18.198  0.00  0.00    +0.000 N 
ATOM     17  C   UNL     1      52.069   3.485  18.346  0.00  0.00    +0.000 A 
ATOM     18  O   UNL     1      52.714   4.395  18.850  0.00  0.00    +0.000 OA
ATOM     19  C   UNL     1      50.719   3.636  17.840  0.00  0.00    +0.000 A 
ATOM     20  H   UNL     1      53.525   2.083  18.544  0.00  0.00    +0.000 HD
ENDBRANCH   7  10
ENDBRANCH   5   6
ENDBRANCH   2   5
BRANCH   3  21
ATOM     21  CA  UNL     1      50.851   9.092  14.586  0.00  0.00    +0.000 C 
BRANCH  21  22
ATOM     22  C   UNL     1      49.614   8.595  13.843  0.00  0.00    +0.000 A 
ATOM     23  C   UNL     1      49.181   9.209  12.658  0.00  0.00    +0.000 A 
ATOM     24  C   UNL     1      48.043   8.746  11.975  0.00  0.00    +0.000 A 
ATOM     25  C   UNL     1      47.307   7.654  12.456  0.00  0.00    +0.000 A 
ATOM     26  C   UNL     1      47.754   7.017  13.620  0.00  0.00    +0.000 A 
ATOM     27  C   UNL     1      48.883   7.488  14.306  0.00  0.00    +0.000 A 
BRANCH  25  28
ATOM     28  C   UNL     1      46.050   7.191  11.757  0.00  0.00    +0.000 C 
BRANCH  28  29
ATOM     29  N   UNL     1      45.952   5.754  11.656  0.00  0.00    +0.000 N 
ATOM     30  C   UNL     1      45.098   5.052  12.487  0.00  0.00    +0.000 C 
ATOM     31  O   UNL     1      44.433   5.600  13.363  0.00  0.00    +0.000 OA
ATOM     32  H   UNL     1      46.222   5.322  10.780  0.00  0.00    +0.000 HD
BRANCH  30  33
ATOM     33  C   UNL     1      45.039   3.538  12.282  0.00  0.00    +0.000 C 
ATOM     34  C   UNL     1      45.384   3.092  10.879  0.00  0.00    +0.000 C 
ATOM     35  C   UNL     1      44.047   3.046  10.167  0.00  0.00    +0.000 C 
ATOM     36  O   UNL     1      43.024   2.991  11.172  0.00  0.00    +0.000 OA
ATOM     37  C   UNL     1      43.645   2.986  12.467  0.00  0.00    +0.000 C 
ENDBRANCH  30  33
ENDBRANCH  28  29
ENDBRANCH  25  28
ENDBRANCH  21  22
BRANCH  21  38
ATOM     38  C   UNL     1      52.124   8.994  13.701  0.00  0.00    +0.000 C 
BRANCH  38  39
ATOM     39  O   UNL     1      52.758   7.714  13.753  0.00  0.00    +0.000 OA
ATOM     40  H   UNL     1      53.337   7.755  14.544  0.00  0.00    +0.000 HD
ENDBRANCH  38  39
ENDBRANCH  21  38
ENDBRANCH   3  21
TORSDOF 10
ENDMDL
MODEL 8
REMARK VINA RESULT:    -5.782      4.296      7.368
REMARK INTER + INTRA:         -10.897
REMARK INTER:                  -9.914
REMARK INTRA:                  -0.983
REMARK UNBOUND:                -1.904
REMARK  Name = 
REMARK  10 active torsions:
REMARK  status: ('A' for Active; 'I' for Inactive)
REMARK    1  A    between atoms: C_2  and  C_3
REMARK    2  A    between atoms: C_3  and  N_4
REMARK    3  A    between atoms: C_5  and  C_7
REMARK    4  A    between atoms: N_17  and  CA_18
REMARK    5  A    between atoms: CA_18  and  C_19
REMARK    6  A    between atoms: CA_18  and  C_21
REMARK    7  A    between atoms: C_19  and  O_20
REMARK    8  A    between atoms: C_24  and  C_25
REMARK    9  A    between atoms: C_25  and  N_26
REMARK   10  A    between atoms: C_27  and  C_29
REMARK                            x       y       z     vdW  Elec       q    Type
REMARK                         _______ _______ _______ _____ _____    ______ ____
ROOT
ATOM      1  O   UNL     1      43.692   5.521  12.995  0.00  0.00    +0.000 OA
ATOM      2  C   UNL     1      44.306   4.743  12.270  0.00  0.00    +0.000 C 
ATOM      3  N   UNL     1      45.358   5.105  11.464  0.00  0.00    +0.000 N 
ATOM      4  H   UNL     1      45.717   4.396  10.830  0.00  0.00    +0.000 HD
ENDROOT
BRANCH   2   5
ATOM      5  C   UNL     1      43.912   3.270  12.197  0.00  0.00    +0.000 C 
BRANCH   5   6
ATOM      6  N   UNL     1      44.697   2.556  11.215  0.00  0.00    +0.000 N 
ATOM      7  C   UNL     1      44.429   2.708   9.881  0.00  0.00    +0.000 C 
ATOM      8  O   UNL     1      43.494   3.412   9.493  0.00  0.00    +0.000 OA
ATOM      9  H   UNL     1      45.239   1.756  11.535  0.00  0.00    +0.000 HD
BRANCH   7  10
ATOM     10  C   UNL     1      45.331   2.065   8.935  0.00  0.00    +0.000 A 
ATOM     11  C   UNL     1      45.389   0.681   8.862  0.00  0.00    +0.000 A 
ATOM     12  S   UNL     1      46.476   0.107   7.678  0.00  0.00    +0.000 S 
ATOM     13  C   UNL     1      46.931   1.692   7.253  0.00  0.00    +0.000 A 
ATOM     14  N   UNL     1      47.870   1.922   6.298  0.00  0.00    +0.000 NA
ATOM     15  C   UNL     1      48.143   3.171   6.113  0.00  0.00    +0.000 A 
ATOM     16  N   UNL     1      47.561   4.212   6.793  0.00  0.00    +0.000 N 
ATOM     17  C   UNL     1      46.589   4.030   7.744  0.00  0.00    +0.000 A 
ATOM     18  O   UNL     1      46.051   4.973   8.309  0.00  0.00    +0.000 OA
ATOM     19  C   UNL     1      46.255   2.642   7.994  0.00  0.00    +0.000 A 
ATOM     20  H   UNL     1      47.820   5.168   6.597  0.00  0.00    +0.000 HD
ENDBRANCH   7  10
ENDBRANCH   5   6
ENDBRANCH   2   5
BRANCH   3  21
ATOM     21  CA  UNL     1      45.998   6.429  11.378  0.00  0.00    +0.000 C 
BRANCH  21  22
ATOM     22  C   UNL     1      47.009   6.602  12.509  0.00  0.00    +0.000 A 
ATOM     23  C   UNL     1      47.888   7.695  12.539  0.00  0.00    +0.000 A 
ATOM     24  C   UNL     1      48.814   7.851  13.584  0.00  0.00    +0.000 A 
ATOM     25  C   UNL     1      48.887   6.921  14.630  0.00  0.00    +0.000 A 
ATOM     26  C   UNL     1      47.989   5.846  14.622  0.00  0.00    +0.000 A 
ATOM     27  C   UNL     1      47.074   5.685  13.572  0.00  0.00    +0.000 A 
BRANCH  25  28
ATOM     28  C   UNL     1      49.921   7.054  15.723  0.00  0.00    +0.000 C 
BRANCH  28  29
ATOM     29  N   UNL     1      50.105   5.840  16.483  0.00  0.00    +0.000 N 
ATOM     30  C   UNL     1      49.526   5.703  17.732  0.00  0.00    +0.000 C 
ATOM     31  O   UNL     1      48.881   6.604  18.262  0.00  0.00    +0.000 OA
ATOM     32  H   UNL     1      50.342   4.996  15.975  0.00  0.00    +0.000 HD
BRANCH  30  33
ATOM     33  C   UNL     1      49.750   4.369  18.444  0.00  0.00    +0.000 C 
ATOM     34  C   UNL     1      50.238   3.261  17.538  0.00  0.00    +0.000 C 
ATOM     35  C   UNL     1      48.967   2.578  17.074  0.00  0.00    +0.000 C 
ATOM     36  O   UNL     1      47.923   2.938  17.989  0.00  0.00    +0.000 OA
ATOM     37  C   UNL     1      48.470   3.794  19.005  0.00  0.00    +0.000 C 
ENDBRANCH  30  33
ENDBRANCH  28  29
ENDBRANCH  25  28
ENDBRANCH  21  22
BRANCH  21  38
ATOM     38  C   UNL     1      45.066   7.666  11.255  0.00  0.00    +0.000 C 
BRANCH  38  39
ATOM     39  O   UNL     1      44.603   8.158  12.514  0.00  0.00    +0.000 OA
ATOM     40  H   UNL     1      43.708   8.516  12.329  0.00  0.00    +0.000 HD
ENDBRANCH  38  39
ENDBRANCH  21  38
ENDBRANCH   3  21
TORSDOF 10
ENDMDL
MODEL 9
REMARK VINA RESULT:    -5.749      3.996      5.979
REMARK INTER + INTRA:         -10.845
REMARK INTER:                  -9.093
REMARK INTRA:                  -1.752
REMARK UNBOUND:                -1.904
REMARK  Name = 
REMARK  10 active torsions:
REMARK  status: ('A' for Active; 'I' for Inactive)
REMARK    1  A    between atoms: C_2  and  C_3
REMARK    2  A    between atoms: C_3  and  N_4
REMARK    3  A    between atoms: C_5  and  C_7
REMARK    4  A    between atoms: N_17  and  CA_18
REMARK    5  A    between atoms: CA_18  and  C_19
REMARK    6  A    between atoms: CA_18  and  C_21
REMARK    7  A    between atoms: C_19  and  O_20
REMARK    8  A    between atoms: C_24  and  C_25
REMARK    9  A    between atoms: C_25  and  N_26
REMARK   10  A    between atoms: C_27  and  C_29
REMARK                            x       y       z     vdW  Elec       q    Type
REMARK                         _______ _______ _______ _____ _____    ______ ____
ROOT
ATOM      1  O   UNL     1      49.208  11.057  13.279  0.00  0.00    +0.000 OA
ATOM      2  C   UNL     1      49.255  10.006  12.647  0.00  0.00    +0.000 C 
ATOM      3  N   UNL     1      50.356   9.186  12.592  0.00  0.00    +0.000 N 
ATOM      4  H   UNL     1      50.312   8.398  11.950  0.00  0.00    +0.000 HD
ENDROOT
BRANCH   2   5
ATOM      5  C   UNL     1      48.055   9.533  11.831  0.00  0.00    +0.000 C 
BRANCH   5   6
ATOM      6  N   UNL     1      47.777   8.132  12.054  0.00  0.00    +0.000 N 
ATOM      7  C   UNL     1      46.786   7.760  12.922  0.00  0.00    +0.000 C 
ATOM      8  O   UNL     1      46.147   8.600  13.560  0.00  0.00    +0.000 OA
ATOM      9  H   UNL     1      48.491   7.459  11.783  0.00  0.00    +0.000 HD
BRANCH   7  10
ATOM     10  C   UNL     1      46.465   6.341  13.012  0.00  0.00    +0.000 A 
ATOM     11  C   UNL     1      47.322   5.477  13.678  0.00  0.00    +0.000 A 
ATOM     12  S   UNL     1      46.771   3.862  13.708  0.00  0.00    +0.000 S 
ATOM     13  C   UNL     1      45.388   4.263  12.798  0.00  0.00    +0.000 A 
ATOM     14  N   UNL     1      44.484   3.314  12.439  0.00  0.00    +0.000 NA
ATOM     15  C   UNL     1      43.510   3.758  11.715  0.00  0.00    +0.000 A 
ATOM     16  N   UNL     1      43.355   5.063  11.321  0.00  0.00    +0.000 N 
ATOM     17  C   UNL     1      44.226   6.059  11.683  0.00  0.00    +0.000 A 
ATOM     18  O   UNL     1      44.049   7.225  11.356  0.00  0.00    +0.000 OA
ATOM     19  C   UNL     1      45.343   5.608  12.489  0.00  0.00    +0.000 A 
ATOM     20  H   UNL     1      42.567   5.344  10.755  0.00  0.00    +0.000 HD
ENDBRANCH   7  10
ENDBRANCH   5   6
ENDBRANCH   2   5
BRANCH   3  21
ATOM     21  CA  UNL     1      51.623   9.348  13.326  0.00  0.00    +0.000 C 
BRANCH  21  22
ATOM     22  C   UNL     1      51.734   8.296  14.427  0.00  0.00    +0.000 A 
ATOM     23  C   UNL     1      50.591   7.702  14.983  0.00  0.00    +0.000 A 
ATOM     24  C   UNL     1      50.697   6.732  15.994  0.00  0.00    +0.000 A 
ATOM     25  C   UNL     1      51.949   6.326  16.476  0.00  0.00    +0.000 A 
ATOM     26  C   UNL     1      53.094   6.891  15.901  0.00  0.00    +0.000 A 
ATOM     27  C   UNL     1      52.985   7.868  14.901  0.00  0.00    +0.000 A 
BRANCH  25  28
ATOM     28  C   UNL     1      52.065   5.327  17.603  0.00  0.00    +0.000 C 
BRANCH  28  29
ATOM     29  N   UNL     1      50.787   4.912  18.130  0.00  0.00    +0.000 N 
ATOM     30  C   UNL     1      50.263   3.675  17.799  0.00  0.00    +0.000 C 
ATOM     31  O   UNL     1      50.825   2.908  17.021  0.00  0.00    +0.000 OA
ATOM     32  H   UNL     1      50.462   5.351  18.984  0.00  0.00    +0.000 HD
BRANCH  30  33
ATOM     33  C   UNL     1      48.919   3.313  18.433  0.00  0.00    +0.000 C 
ATOM     34  C   UNL     1      47.786   3.180  17.442  0.00  0.00    +0.000 C 
ATOM     35  C   UNL     1      47.171   4.565  17.396  0.00  0.00    +0.000 C 
ATOM     36  O   UNL     1      47.588   5.262  18.579  0.00  0.00    +0.000 OA
ATOM     37  C   UNL     1      48.414   4.390  19.366  0.00  0.00    +0.000 C 
ENDBRANCH  30  33
ENDBRANCH  28  29
ENDBRANCH  25  28
ENDBRANCH  21  22
BRANCH  21  38
ATOM     38  C   UNL     1      51.963  10.767  13.858  0.00  0.00    +0.000 C 
BRANCH  38  39
ATOM     39  O   UNL     1      51.443  11.026  15.165  0.00  0.00    +0.000 OA
ATOM     40  H   UNL     1      52.134  10.697  15.778  0.00  0.00    +0.000 HD
ENDBRANCH  38  39
ENDBRANCH  21  38
ENDBRANCH   3  21
TORSDOF 10
ENDMDL
