MODEL 1
REMARK VINA RESULT:    -8.747      0.000      0.000
REMARK INTER + INTRA:         -12.991
REMARK INTER:                 -12.071
REMARK INTRA:                  -0.921
REMARK UNBOUND:                -0.921
REMARK  Name = 
REMARK  7 active torsions:
REMARK  status: ('A' for Active; 'I' for Inactive)
REMARK    1  A    between atoms: C_2  and  C_20
REMARK    2  A    between atoms: N_3  and  C_4
REMARK    3  A    between atoms: C_4  and  C_5
REMARK    4  A    between atoms: C_8  and  C_9
REMARK    5  A    between atoms: C_9  and  O_10
REMARK    6  A    between atoms: C_9  and  C_11
REMARK    7  A    between atoms: C_11  and  C_12
REMARK                            x       y       z     vdW  Elec       q    Type
REMARK                         _______ _______ _______ _____ _____    ______ ____
ROOT
ATOM      1  C   UNL     1      46.706   8.225  13.103  0.00  0.00    +0.000 C 
ENDROOT
BRANCH   1   2
ATOM      2  C   UNL     1      46.048   7.032  12.447  0.00  0.00    +0.000 A 
ATOM      3  N   UNL     1      46.523   6.601  11.265  0.00  0.00    +0.000 NA
ATOM      4  C   UNL     1      45.896   5.545  10.709  0.00  0.00    +0.000 A 
ATOM      5  C   UNL     1      44.797   4.917  11.261  0.00  0.00    +0.000 A 
ATOM      6  C   UNL     1      44.372   5.465  12.454  0.00  0.00    +0.000 A 
ATOM      7  N   UNL     1      44.952   6.525  13.051  0.00  0.00    +0.000 NA
BRANCH   5   8
ATOM      8  C   UNL     1      44.212   3.679  10.646  0.00  0.00    +0.000 C 
BRANCH   8   9
ATOM      9  O   UNL     1      42.871   3.593  11.130  0.00  0.00    +0.000 OA
ATOM     10  H   UNL     1      42.260   3.733  10.385  0.00  0.00    +0.000 HD
ENDBRANCH   8   9
BRANCH   8  11
ATOM     11  C   UNL     1      44.243   3.641   9.101  0.00  0.00    +0.000 C 
BRANCH  11  12
ATOM     12  C   UNL     1      45.353   2.852   8.445  0.00  0.00    +0.000 A 
ATOM     13  C   UNL     1      46.208   3.505   7.547  0.00  0.00    +0.000 A 
ATOM     14  C   UNL     1      47.203   2.792   6.885  0.00  0.00    +0.000 A 
ATOM     15  C   UNL     1      47.322   1.439   7.145  0.00  0.00    +0.000 A 
ATOM     16  N   UNL     1      46.531   0.775   8.012  0.00  0.00    +0.000 NA
ATOM     17  C   UNL     1      45.568   1.489   8.636  0.00  0.00    +0.000 A 
ENDBRANCH  11  12
ENDBRANCH   8  11
ENDBRANCH   5   8
ENDBRANCH   1   2
BRANCH   1  20
ATOM     18  O   UNL     1      49.007   6.580  13.492  0.00  0.00    +0.000 OA
ATOM     19  C   UNL     1      48.369   6.994  14.444  0.00  0.00    +0.000 C 
ATOM     20  N   UNL     1      47.306   7.864  14.364  0.00  0.00    +0.000 N 
ATOM     21  H   UNL     1      46.679   7.922  15.155  0.00  0.00    +0.000 HD
BRANCH  19  22
ATOM     22  C   UNL     1      48.473   6.448  15.792  0.00  0.00    +0.000 A 
ATOM     23  C   UNL     1      49.026   7.160  16.841  0.00  0.00    +0.000 A 
ATOM     24  S   UNL     1      49.643   6.101  18.044  0.00  0.00    +0.000 S 
ATOM     25  C   UNL     1      49.002   4.733  17.251  0.00  0.00    +0.000 A 
ATOM     26  N   UNL     1      49.287   3.461  17.637  0.00  0.00    +0.000 NA
ATOM     27  C   UNL     1      48.661   2.550  16.963  0.00  0.00    +0.000 A 
ATOM     28  N   UNL     1      47.740   2.794  15.971  0.00  0.00    +0.000 N 
ATOM     29  C   UNL     1      47.440   4.066  15.531  0.00  0.00    +0.000 A 
ATOM     30  O   UNL     1      46.571   4.266  14.689  0.00  0.00    +0.000 OA
ATOM     31  C   UNL     1      48.207   5.100  16.187  0.00  0.00    +0.000 A 
ATOM     32  H   UNL     1      47.218   2.040  15.549  0.00  0.00    +0.000 HD
ENDBRANCH  19  22
ENDBRANCH   1  20
TORSDOF 7
ENDMDL
MODEL 2
REMARK VINA RESULT:    -8.393      1.320      1.441
REMARK INTER + INTRA:         -12.503
REMARK INTER:                 -11.646
REMARK INTRA:                  -0.856
REMARK UNBOUND:                -0.921
REMARK  Name = 
REMARK  7 active torsions:
REMARK  status: ('A' for Active; 'I' for Inactive)
REMARK    1  A    between atoms: C_2  and  C_20
REMARK    2  A    between atoms: N_3  and  C_4
REMARK    3  A    between atoms: C_4  and  C_5
REMARK    4  A    between atoms: C_8  and  C_9
REMARK    5  A    between atoms: C_9  and  O_10
REMARK    6  A    between atoms: C_9  and  C_11
REMARK    7  A    between atoms: C_11  and  C_12
REMARK                            x       y       z     vdW  Elec       q    Type
REMARK                         _______ _______ _______ _____ _____    ______ ____
ROOT
ATOM      1  C   UNL     1      47.745   7.110  13.863  0.00  0.00    +0.000 C 
ENDROOT
BRANCH   1   2
ATOM      2  C   UNL     1      46.831   6.231  13.037  0.00  0.00    +0.000 A 
ATOM      3  N   UNL     1      46.626   6.546  11.747  0.00  0.00    +0.000 NA
ATOM      4  C   UNL     1      45.792   5.744  11.053  0.00  0.00    +0.000 A 
ATOM      5  C   UNL     1      45.130   4.660  11.595  0.00  0.00    +0.000 A 
ATOM      6  C   UNL     1      45.385   4.453  12.935  0.00  0.00    +0.000 A 
ATOM      7  N   UNL     1      46.199   5.225  13.680  0.00  0.00    +0.000 NA
BRANCH   5   8
ATOM      8  C   UNL     1      44.300   3.745  10.743  0.00  0.00    +0.000 C 
BRANCH   8   9
ATOM      9  O   UNL     1      42.945   3.950  11.146  0.00  0.00    +0.000 OA
ATOM     10  H   UNL     1      42.533   4.593  10.543  0.00  0.00    +0.000 HD
ENDBRANCH   8   9
BRANCH   8  11
ATOM     11  C   UNL     1      44.458   3.950   9.220  0.00  0.00    +0.000 C 
BRANCH  11  12
ATOM     12  C   UNL     1      45.415   3.036   8.488  0.00  0.00    +0.000 A 
ATOM     13  C   UNL     1      46.203   3.566   7.458  0.00  0.00    +0.000 A 
ATOM     14  C   UNL     1      47.051   2.738   6.730  0.00  0.00    +0.000 A 
ATOM     15  C   UNL     1      47.094   1.395   7.058  0.00  0.00    +0.000 A 
ATOM     16  N   UNL     1      46.365   0.846   8.049  0.00  0.00    +0.000 NA
ATOM     17  C   UNL     1      45.543   1.671   8.736  0.00  0.00    +0.000 A 
ENDBRANCH  11  12
ENDBRANCH   8  11
ENDBRANCH   5   8
ENDBRANCH   1   2
BRANCH   1  20
ATOM     18  O   UNL     1      48.525   8.264  16.355  0.00  0.00    +0.000 OA
ATOM     19  C   UNL     1      48.666   7.071  16.149  0.00  0.00    +0.000 C 
ATOM     20  N   UNL     1      48.238   6.409  15.022  0.00  0.00    +0.000 N 
ATOM     21  H   UNL     1      48.643   5.504  14.821  0.00  0.00    +0.000 HD
BRANCH  19  22
ATOM     22  C   UNL     1      49.522   6.203  16.950  0.00  0.00    +0.000 A 
ATOM     23  C   UNL     1      50.744   6.619  17.447  0.00  0.00    +0.000 A 
ATOM     24  S   UNL     1      51.788   5.281  17.708  0.00  0.00    +0.000 S 
ATOM     25  C   UNL     1      50.548   4.168  17.342  0.00  0.00    +0.000 A 
ATOM     26  N   UNL     1      50.776   2.834  17.207  0.00  0.00    +0.000 NA
ATOM     27  C   UNL     1      49.708   2.134  16.993  0.00  0.00    +0.000 A 
ATOM     28  N   UNL     1      48.429   2.636  16.950  0.00  0.00    +0.000 N 
ATOM     29  C   UNL     1      48.154   3.983  17.056  0.00  0.00    +0.000 A 
ATOM     30  O   UNL     1      47.003   4.405  17.076  0.00  0.00    +0.000 OA
ATOM     31  C   UNL     1      49.337   4.804  17.182  0.00  0.00    +0.000 A 
ATOM     32  H   UNL     1      47.632   2.022  16.873  0.00  0.00    +0.000 HD
ENDBRANCH  19  22
ENDBRANCH   1  20
TORSDOF 7
ENDMDL
MODEL 3
REMARK VINA RESULT:    -8.283      2.467      3.182
REMARK INTER + INTRA:         -12.351
REMARK INTER:                 -11.581
REMARK INTRA:                  -0.770
REMARK UNBOUND:                -0.921
REMARK  Name = 
REMARK  7 active torsions:
REMARK  status: ('A' for Active; 'I' for Inactive)
REMARK    1  A    between atoms: C_2  and  C_20
REMARK    2  A    between atoms: N_3  and  C_4
REMARK    3  A    between atoms: C_4  and  C_5
REMARK    4  A    between atoms: C_8  and  C_9
REMARK    5  A    between atoms: C_9  and  O_10
REMARK    6  A    between atoms: C_9  and  C_11
REMARK    7  A    between atoms: C_11  and  C_12
REMARK                            x       y       z     vdW  Elec       q    Type
REMARK                         _______ _______ _______ _____ _____    ______ ____
ROOT
ATOM      1  C   UNL     1      47.178   4.365  15.066  0.00  0.00    +0.000 C 
ENDROOT
BRANCH   1   2
ATOM      2  C   UNL     1      46.407   4.374  13.764  0.00  0.00    +0.000 A 
ATOM      3  N   UNL     1      46.091   5.557  13.209  0.00  0.00    +0.000 NA
ATOM      4  C   UNL     1      45.390   5.518  12.058  0.00  0.00    +0.000 A 
ATOM      5  C   UNL     1      44.963   4.354  11.450  0.00  0.00    +0.000 A 
ATOM      6  C   UNL     1      45.311   3.202  12.125  0.00  0.00    +0.000 A 
ATOM      7  N   UNL     1      46.000   3.180  13.282  0.00  0.00    +0.000 NA
BRANCH   5   8
ATOM      8  C   UNL     1      44.281   4.375  10.113  0.00  0.00    +0.000 C 
BRANCH   8   9
ATOM      9  O   UNL     1      43.303   5.415  10.185  0.00  0.00    +0.000 OA
ATOM     10  H   UNL     1      43.585   6.149   9.610  0.00  0.00    +0.000 HD
ENDBRANCH   8   9
BRANCH   8  11
ATOM     11  C   UNL     1      45.219   4.585   8.904  0.00  0.00    +0.000 C 
BRANCH  11  12
ATOM     12  C   UNL     1      45.889   3.362   8.320  0.00  0.00    +0.000 A 
ATOM     13  C   UNL     1      46.792   3.525   7.262  0.00  0.00    +0.000 A 
ATOM     14  C   UNL     1      47.382   2.413   6.668  0.00  0.00    +0.000 A 
ATOM     15  C   UNL     1      47.054   1.161   7.154  0.00  0.00    +0.000 A 
ATOM     16  N   UNL     1      46.201   0.959   8.178  0.00  0.00    +0.000 NA
ATOM     17  C   UNL     1      45.637   2.055   8.733  0.00  0.00    +0.000 A 
ENDBRANCH  11  12
ENDBRANCH   8  11
ENDBRANCH   5   8
ENDBRANCH   1   2
BRANCH   1  20
ATOM     18  O   UNL     1      49.524   5.060  16.537  0.00  0.00    +0.000 OA
ATOM     19  C   UNL     1      48.716   5.913  16.213  0.00  0.00    +0.000 C 
ATOM     20  N   UNL     1      47.608   5.693  15.428  0.00  0.00    +0.000 N 
ATOM     21  H   UNL     1      46.866   6.380  15.450  0.00  0.00    +0.000 HD
BRANCH  19  22
ATOM     22  C   UNL     1      48.661   7.246  16.801  0.00  0.00    +0.000 A 
ATOM     23  C   UNL     1      49.101   8.373  16.130  0.00  0.00    +0.000 A 
ATOM     24  S   UNL     1      49.566   9.603  17.235  0.00  0.00    +0.000 S 
ATOM     25  C   UNL     1      49.001   8.699  18.568  0.00  0.00    +0.000 A 
ATOM     26  N   UNL     1      49.226   9.074  19.855  0.00  0.00    +0.000 NA
ATOM     27  C   UNL     1      48.668   8.305  20.735  0.00  0.00    +0.000 A 
ATOM     28  N   UNL     1      47.868   7.224  20.447  0.00  0.00    +0.000 N 
ATOM     29  C   UNL     1      47.635   6.794  19.158  0.00  0.00    +0.000 A 
ATOM     30  O   UNL     1      46.869   5.867  18.918  0.00  0.00    +0.000 OA
ATOM     31  C   UNL     1      48.336   7.565  18.156  0.00  0.00    +0.000 A 
ATOM     32  H   UNL     1      47.388   6.723  21.179  0.00  0.00    +0.000 HD
ENDBRANCH  19  22
ENDBRANCH   1  20
TORSDOF 7
ENDMDL
MODEL 4
REMARK VINA RESULT:    -8.065      2.026      2.700
REMARK INTER + INTRA:         -12.050
REMARK INTER:                 -11.148
REMARK INTRA:                  -0.902
REMARK UNBOUND:                -0.921
REMARK  Name = 
REMARK  7 active torsions:
REMARK  status: ('A' for Active; 'I' for Inactive)
REMARK    1  A    between atoms: C_2  and  C_20
REMARK    2  A    between atoms: N_3  and  C_4
REMARK    3  A    between atoms: C_4  and  C_5
REMARK    4  A    between atoms: C_8  and  C_9
REMARK    5  A    between atoms: C_9  and  O_10
REMARK    6  A    between atoms: C_9  and  C_11
REMARK    7  A    between atoms: C_11  and  C_12
REMARK                            x       y       z     vdW  Elec       q    Type
REMARK                         _______ _______ _______ _____ _____    ______ ____
ROOT
ATOM      1  C   UNL     1      47.774   7.077  13.319  0.00  0.00    +0.000 C 
ENDROOT
BRANCH   1   2
ATOM      2  C   UNL     1      46.829   6.127  12.618  0.00  0.00    +0.000 A 
ATOM      3  N   UNL     1      46.359   6.463  11.403  0.00  0.00    +0.000 NA
ATOM      4  C   UNL     1      45.507   5.595  10.822  0.00  0.00    +0.000 A 
ATOM      5  C   UNL     1      45.077   4.421  11.408  0.00  0.00    +0.000 A 
ATOM      6  C   UNL     1      45.592   4.195  12.668  0.00  0.00    +0.000 A 
ATOM      7  N   UNL     1      46.438   5.031  13.303  0.00  0.00    +0.000 NA
BRANCH   5   8
ATOM      8  C   UNL     1      44.213   3.446  10.663  0.00  0.00    +0.000 C 
BRANCH   8   9
ATOM      9  O   UNL     1      42.881   3.660  11.132  0.00  0.00    +0.000 OA
ATOM     10  H   UNL     1      42.919   3.950  12.061  0.00  0.00    +0.000 HD
ENDBRANCH   8   9
BRANCH   8  11
ATOM     11  C   UNL     1      44.279   3.558   9.124  0.00  0.00    +0.000 C 
BRANCH  11  12
ATOM     12  C   UNL     1      45.399   2.827   8.418  0.00  0.00    +0.000 A 
ATOM     13  C   UNL     1      46.191   3.528   7.499  0.00  0.00    +0.000 A 
ATOM     14  C   UNL     1      47.193   2.868   6.793  0.00  0.00    +0.000 A 
ATOM     15  C   UNL     1      47.380   1.519   7.031  0.00  0.00    +0.000 A 
ATOM     16  N   UNL     1      46.651   0.810   7.916  0.00  0.00    +0.000 NA
ATOM     17  C   UNL     1      45.680   1.473   8.583  0.00  0.00    +0.000 A 
ENDBRANCH  11  12
ENDBRANCH   8  11
ENDBRANCH   5   8
ENDBRANCH   1   2
BRANCH   1  20
ATOM     18  O   UNL     1      50.104   6.920  14.963  0.00  0.00    +0.000 OA
ATOM     19  C   UNL     1      48.999   6.684  15.422  0.00  0.00    +0.000 C 
ATOM     20  N   UNL     1      47.814   6.822  14.738  0.00  0.00    +0.000 N 
ATOM     21  H   UNL     1      46.999   6.343  15.099  0.00  0.00    +0.000 HD
BRANCH  19  22
ATOM     22  C   UNL     1      48.775   5.990  16.684  0.00  0.00    +0.000 A 
ATOM     23  C   UNL     1      48.354   4.673  16.743  0.00  0.00    +0.000 A 
ATOM     24  S   UNL     1      47.530   4.358  18.217  0.00  0.00    +0.000 S 
ATOM     25  C   UNL     1      47.910   5.905  18.828  0.00  0.00    +0.000 A 
ATOM     26  N   UNL     1      47.382   6.386  19.985  0.00  0.00    +0.000 NA
ATOM     27  C   UNL     1      47.832   7.551  20.328  0.00  0.00    +0.000 A 
ATOM     28  N   UNL     1      48.796   8.258  19.647  0.00  0.00    +0.000 N 
ATOM     29  C   UNL     1      49.339   7.820  18.458  0.00  0.00    +0.000 A 
ATOM     30  O   UNL     1      50.241   8.434  17.899  0.00  0.00    +0.000 OA
ATOM     31  C   UNL     1      48.774   6.575  17.990  0.00  0.00    +0.000 A 
ATOM     32  H   UNL     1      49.170   9.118  20.020  0.00  0.00    +0.000 HD
ENDBRANCH  19  22
ENDBRANCH   1  20
TORSDOF 7
ENDMDL
MODEL 5
REMARK VINA RESULT:    -7.933      2.108      3.804
REMARK INTER + INTRA:         -11.867
REMARK INTER:                 -10.990
REMARK INTRA:                  -0.877
REMARK UNBOUND:                -0.921
REMARK  Name = 
REMARK  7 active torsions:
REMARK  status: ('A' for Active; 'I' for Inactive)
REMARK    1  A    between atoms: C_2  and  C_20
REMARK    2  A    between atoms: N_3  and  C_4
REMARK    3  A    between atoms: C_4  and  C_5
REMARK    4  A    between atoms: C_8  and  C_9
REMARK    5  A    between atoms: C_9  and  O_10
REMARK    6  A    between atoms: C_9  and  C_11
REMARK    7  A    between atoms: C_11  and  C_12
REMARK                            x       y       z     vdW  Elec       q    Type
REMARK                         _______ _______ _______ _____ _____    ______ ____
ROOT
ATOM      1  C   UNL     1      47.201   5.096  14.769  0.00  0.00    +0.000 C 
ENDROOT
BRANCH   1   2
ATOM      2  C   UNL     1      46.430   4.876  13.486  0.00  0.00    +0.000 A 
ATOM      3  N   UNL     1      46.150   5.939  12.712  0.00  0.00    +0.000 NA
ATOM      4  C   UNL     1      45.446   5.700  11.586  0.00  0.00    +0.000 A 
ATOM      5  C   UNL     1      44.983   4.454  11.212  0.00  0.00    +0.000 A 
ATOM      6  C   UNL     1      45.296   3.444  12.099  0.00  0.00    +0.000 A 
ATOM      7  N   UNL     1      45.986   3.625  13.242  0.00  0.00    +0.000 NA
BRANCH   5   8
ATOM      8  C   UNL     1      44.300   4.237   9.894  0.00  0.00    +0.000 C 
BRANCH   8   9
ATOM      9  O   UNL     1      43.223   5.174   9.849  0.00  0.00    +0.000 OA
ATOM     10  H   UNL     1      43.289   5.686   9.023  0.00  0.00    +0.000 HD
ENDBRANCH   8   9
BRANCH   8  11
ATOM     11  C   UNL     1      45.211   4.385   8.655  0.00  0.00    +0.000 C 
BRANCH  11  12
ATOM     12  C   UNL     1      45.932   3.149   8.167  0.00  0.00    +0.000 A 
ATOM     13  C   UNL     1      46.897   3.281   7.160  0.00  0.00    +0.000 A 
ATOM     14  C   UNL     1      47.537   2.155   6.652  0.00  0.00    +0.000 A 
ATOM     15  C   UNL     1      47.198   0.920   7.173  0.00  0.00    +0.000 A 
ATOM     16  N   UNL     1      46.287   0.748   8.151  0.00  0.00    +0.000 NA
ATOM     17  C   UNL     1      45.674   1.858   8.622  0.00  0.00    +0.000 A 
ENDBRANCH  11  12
ENDBRANCH   8  11
ENDBRANCH   5   8
ENDBRANCH   1   2
BRANCH   1  20
ATOM     18  O   UNL     1      49.570   5.680  16.252  0.00  0.00    +0.000 OA
ATOM     19  C   UNL     1      49.062   6.522  15.531  0.00  0.00    +0.000 C 
ATOM     20  N   UNL     1      47.980   6.308  14.710  0.00  0.00    +0.000 N 
ATOM     21  H   UNL     1      47.469   7.116  14.378  0.00  0.00    +0.000 HD
BRANCH  19  22
ATOM     22  C   UNL     1      49.366   7.946  15.605  0.00  0.00    +0.000 A 
ATOM     23  C   UNL     1      49.417   8.633  16.805  0.00  0.00    +0.000 A 
ATOM     24  S   UNL     1      49.095  10.304  16.569  0.00  0.00    +0.000 S 
ATOM     25  C   UNL     1      49.082  10.122  14.873  0.00  0.00    +0.000 A 
ATOM     26  N   UNL     1      48.704  11.120  14.031  0.00  0.00    +0.000 NA
ATOM     27  C   UNL     1      48.819  10.826  12.775  0.00  0.00    +0.000 A 
ATOM     28  N   UNL     1      49.322   9.644  12.283  0.00  0.00    +0.000 N 
ATOM     29  C   UNL     1      49.694   8.597  13.099  0.00  0.00    +0.000 A 
ATOM     30  O   UNL     1      50.198   7.576  12.644  0.00  0.00    +0.000 OA
ATOM     31  C   UNL     1      49.471   8.852  14.504  0.00  0.00    +0.000 A 
ATOM     32  H   UNL     1      49.473   9.516  11.294  0.00  0.00    +0.000 HD
ENDBRANCH  19  22
ENDBRANCH   1  20
TORSDOF 7
ENDMDL
MODEL 6
REMARK VINA RESULT:    -7.857      2.159      2.677
REMARK INTER + INTRA:         -11.764
REMARK INTER:                 -10.703
REMARK INTRA:                  -1.060
REMARK UNBOUND:                -0.921
REMARK  Name = 
REMARK  7 active torsions:
REMARK  status: ('A' for Active; 'I' for Inactive)
REMARK    1  A    between atoms: C_2  and  C_20
REMARK    2  A    between atoms: N_3  and  C_4
REMARK    3  A    between atoms: C_4  and  C_5
REMARK    4  A    between atoms: C_8  and  C_9
REMARK    5  A    between atoms: C_9  and  O_10
REMARK    6  A    between atoms: C_9  and  C_11
REMARK    7  A    between atoms: C_11  and  C_12
REMARK                            x       y       z     vdW  Elec       q    Type
REMARK                         _______ _______ _______ _____ _____    ______ ____
ROOT
ATOM      1  C   UNL     1      48.499   6.685  14.165  0.00  0.00    +0.000 C 
ENDROOT
BRANCH   1   2
ATOM      2  C   UNL     1      47.451   5.747  13.607  0.00  0.00    +0.000 A 
ATOM      3  N   UNL     1      47.564   4.431  13.856  0.00  0.00    +0.000 NA
ATOM      4  C   UNL     1      46.617   3.631  13.326  0.00  0.00    +0.000 A 
ATOM      5  C   UNL     1      45.580   4.079  12.532  0.00  0.00    +0.000 A 
ATOM      6  C   UNL     1      45.583   5.440  12.311  0.00  0.00    +0.000 A 
ATOM      7  N   UNL     1      46.508   6.287  12.806  0.00  0.00    +0.000 NA
BRANCH   5   8
ATOM      8  C   UNL     1      44.498   3.150  12.062  0.00  0.00    +0.000 C 
BRANCH   8   9
ATOM      9  O   UNL     1      43.483   3.186  13.067  0.00  0.00    +0.000 OA
ATOM     10  H   UNL     1      43.277   4.116  13.271  0.00  0.00    +0.000 HD
ENDBRANCH   8   9
BRANCH   8  11
ATOM     11  C   UNL     1      43.910   3.483  10.673  0.00  0.00    +0.000 C 
BRANCH  11  12
ATOM     12  C   UNL     1      44.822   3.339   9.476  0.00  0.00    +0.000 A 
ATOM     13  C   UNL     1      45.270   2.061   9.117  0.00  0.00    +0.000 A 
ATOM     14  C   UNL     1      46.155   1.904   8.054  0.00  0.00    +0.000 A 
ATOM     15  C   UNL     1      46.565   3.034   7.372  0.00  0.00    +0.000 A 
ATOM     16  N   UNL     1      46.148   4.280   7.675  0.00  0.00    +0.000 NA
ATOM     17  C   UNL     1      45.295   4.406   8.716  0.00  0.00    +0.000 A 
ENDBRANCH  11  12
ENDBRANCH   8  11
ENDBRANCH   5   8
ENDBRANCH   1   2
BRANCH   1  20
ATOM     18  O   UNL     1      50.312   7.169  16.317  0.00  0.00    +0.000 OA
ATOM     19  C   UNL     1      49.107   7.237  16.490  0.00  0.00    +0.000 C 
ATOM     20  N   UNL     1      48.160   7.112  15.500  0.00  0.00    +0.000 N 
ATOM     21  H   UNL     1      47.209   6.903  15.776  0.00  0.00    +0.000 HD
BRANCH  19  22
ATOM     22  C   UNL     1      48.471   7.219  17.802  0.00  0.00    +0.000 A 
ATOM     23  C   UNL     1      48.105   8.376  18.466  0.00  0.00    +0.000 A 
ATOM     24  S   UNL     1      48.054   8.119  20.164  0.00  0.00    +0.000 S 
ATOM     25  C   UNL     1      48.330   6.446  19.977  0.00  0.00    +0.000 A 
ATOM     26  N   UNL     1      48.570   5.620  21.031  0.00  0.00    +0.000 NA
ATOM     27  C   UNL     1      48.691   4.372  20.709  0.00  0.00    +0.000 A 
ATOM     28  N   UNL     1      48.547   3.866  19.438  0.00  0.00    +0.000 N 
ATOM     29  C   UNL     1      48.329   4.668  18.338  0.00  0.00    +0.000 A 
ATOM     30  O   UNL     1      48.141   4.193  17.223  0.00  0.00    +0.000 OA
ATOM     31  C   UNL     1      48.300   6.079  18.649  0.00  0.00    +0.000 A 
ATOM     32  H   UNL     1      48.562   2.871  19.270  0.00  0.00    +0.000 HD
ENDBRANCH  19  22
ENDBRANCH   1  20
TORSDOF 7
ENDMDL
MODEL 7
REMARK VINA RESULT:    -7.761      2.066      3.524
REMARK INTER + INTRA:         -11.630
REMARK INTER:                 -11.212
REMARK INTRA:                  -0.418
REMARK UNBOUND:                -0.921
REMARK  Name = 
REMARK  7 active torsions:
REMARK  status: ('A' for Active; 'I' for Inactive)
REMARK    1  A    between atoms: C_2  and  C_20
REMARK    2  A    between atoms: N_3  and  C_4
REMARK    3  A    between atoms: C_4  and  C_5
REMARK    4  A    between atoms: C_8  and  C_9
REMARK    5  A    between atoms: C_9  and  O_10
REMARK    6  A    between atoms: C_9  and  C_11
REMARK    7  A    between atoms: C_11  and  C_12
REMARK                            x       y       z     vdW  Elec       q    Type
REMARK                         _______ _______ _______ _____ _____    ______ ____
ROOT
ATOM      1  C   UNL     1      47.013   4.092  15.134  0.00  0.00    +0.000 C 
ENDROOT
BRANCH   1   2
ATOM      2  C   UNL     1      46.441   4.341  13.755  0.00  0.00    +0.000 A 
ATOM      3  N   UNL     1      45.758   3.352  13.152  0.00  0.00    +0.000 NA
ATOM      4  C   UNL     1      45.280   3.612  11.918  0.00  0.00    +0.000 A 
ATOM      5  C   UNL     1      45.477   4.801  11.245  0.00  0.00    +0.000 A 
ATOM      6  C   UNL     1      46.224   5.729  11.942  0.00  0.00    +0.000 A 
ATOM      7  N   UNL     1      46.735   5.522  13.171  0.00  0.00    +0.000 NA
BRANCH   5   8
ATOM      8  C   UNL     1      44.827   5.066   9.919  0.00  0.00    +0.000 C 
BRANCH   8   9
ATOM      9  O   UNL     1      45.801   5.754   9.132  0.00  0.00    +0.000 OA
ATOM     10  H   UNL     1      46.105   5.161   8.422  0.00  0.00    +0.000 HD
ENDBRANCH   8   9
BRANCH   8  11
ATOM     11  C   UNL     1      44.312   3.809   9.182  0.00  0.00    +0.000 C 
BRANCH  11  12
ATOM     12  C   UNL     1      45.327   2.973   8.435  0.00  0.00    +0.000 A 
ATOM     13  C   UNL     1      45.983   3.532   7.330  0.00  0.00    +0.000 A 
ATOM     14  C   UNL     1      46.880   2.768   6.590  0.00  0.00    +0.000 A 
ATOM     15  C   UNL     1      47.103   1.460   6.981  0.00  0.00    +0.000 A 
ATOM     16  N   UNL     1      46.505   0.888   8.044  0.00  0.00    +0.000 NA
ATOM     17  C   UNL     1      45.632   1.649   8.742  0.00  0.00    +0.000 A 
ENDBRANCH  11  12
ENDBRANCH   8  11
ENDBRANCH   5   8
ENDBRANCH   1   2
BRANCH   1  20
ATOM     18  O   UNL     1      49.312   4.319  16.812  0.00  0.00    +0.000 OA
ATOM     19  C   UNL     1      48.619   5.292  16.569  0.00  0.00    +0.000 C 
ATOM     20  N   UNL     1      47.551   5.303  15.703  0.00  0.00    +0.000 N 
ATOM     21  H   UNL     1      46.883   6.059  15.783  0.00  0.00    +0.000 HD
BRANCH  19  22
ATOM     22  C   UNL     1      48.659   6.531  17.337  0.00  0.00    +0.000 A 
ATOM     23  C   UNL     1      48.114   6.637  18.604  0.00  0.00    +0.000 A 
ATOM     24  S   UNL     1      47.683   8.263  18.952  0.00  0.00    +0.000 S 
ATOM     25  C   UNL     1      48.395   8.823  17.505  0.00  0.00    +0.000 A 
ATOM     26  N   UNL     1      48.257  10.103  17.068  0.00  0.00    +0.000 NA
ATOM     27  C   UNL     1      48.919  10.366  15.987  0.00  0.00    +0.000 A 
ATOM     28  N   UNL     1      49.743   9.484  15.329  0.00  0.00    +0.000 N 
ATOM     29  C   UNL     1      49.891   8.171  15.722  0.00  0.00    +0.000 A 
ATOM     30  O   UNL     1      50.678   7.416  15.160  0.00  0.00    +0.000 OA
ATOM     31  C   UNL     1      49.077   7.814  16.862  0.00  0.00    +0.000 A 
ATOM     32  H   UNL     1      50.303   9.781  14.544  0.00  0.00    +0.000 HD
ENDBRANCH  19  22
ENDBRANCH   1  20
TORSDOF 7
ENDMDL
MODEL 8
REMARK VINA RESULT:    -7.498      2.914      7.865
REMARK INTER + INTRA:         -11.268
REMARK INTER:                 -10.293
REMARK INTRA:                  -0.975
REMARK UNBOUND:                -0.921
REMARK  Name = 
REMARK  7 active torsions:
REMARK  status: ('A' for Active; 'I' for Inactive)
REMARK    1  A    between atoms: C_2  and  C_20
REMARK    2  A    between atoms: N_3  and  C_4
REMARK    3  A    between atoms: C_4  and  C_5
REMARK    4  A    between atoms: C_8  and  C_9
REMARK    5  A    between atoms: C_9  and  O_10
REMARK    6  A    between atoms: C_9  and  C_11
REMARK    7  A    between atoms: C_11  and  C_12
REMARK                            x       y       z     vdW  Elec       q    Type
REMARK                         _______ _______ _______ _____ _____    ______ ____
ROOT
ATOM      1  C   UNL     1      48.053   6.706  12.454  0.00  0.00    +0.000 C 
ENDROOT
BRANCH   1   2
ATOM      2  C   UNL     1      48.055   6.222  13.888  0.00  0.00    +0.000 A 
ATOM      3  N   UNL     1      48.766   6.909  14.800  0.00  0.00    +0.000 NA
ATOM      4  C   UNL     1      48.752   6.434  16.061  0.00  0.00    +0.000 A 
ATOM      5  C   UNL     1      48.088   5.287  16.450  0.00  0.00    +0.000 A 
ATOM      6  C   UNL     1      47.425   4.642  15.426  0.00  0.00    +0.000 A 
ATOM      7  N   UNL     1      47.411   5.064  14.147  0.00  0.00    +0.000 NA
BRANCH   5   8
ATOM      8  C   UNL     1      48.024   4.871  17.891  0.00  0.00    +0.000 C 
BRANCH   8   9
ATOM      9  O   UNL     1      46.663   5.046  18.292  0.00  0.00    +0.000 OA
ATOM     10  H   UNL     1      46.631   5.706  19.007  0.00  0.00    +0.000 HD
ENDBRANCH   8   9
BRANCH   8  11
ATOM     11  C   UNL     1      48.501   3.430  18.176  0.00  0.00    +0.000 C 
BRANCH  11  12
ATOM     12  C   UNL     1      49.976   3.139  18.018  0.00  0.00    +0.000 A 
ATOM     13  C   UNL     1      50.368   1.925  17.439  0.00  0.00    +0.000 A 
ATOM     14  C   UNL     1      51.718   1.605  17.332  0.00  0.00    +0.000 A 
ATOM     15  C   UNL     1      52.645   2.516  17.803  0.00  0.00    +0.000 A 
ATOM     16  N   UNL     1      52.313   3.700  18.354  0.00  0.00    +0.000 NA
ATOM     17  C   UNL     1      50.995   3.983  18.453  0.00  0.00    +0.000 A 
ENDBRANCH  11  12
ENDBRANCH   8  11
ENDBRANCH   5   8
ENDBRANCH   1   2
BRANCH   1  20
ATOM     18  O   UNL     1      45.671   8.132  11.789  0.00  0.00    +0.000 OA
ATOM     19  C   UNL     1      45.778   6.945  11.535  0.00  0.00    +0.000 C 
ATOM     20  N   UNL     1      46.915   6.195  11.732  0.00  0.00    +0.000 N 
ATOM     21  H   UNL     1      46.821   5.189  11.759  0.00  0.00    +0.000 HD
BRANCH  19  22
ATOM     22  C   UNL     1      44.652   6.077  11.213  0.00  0.00    +0.000 A 
ATOM     23  C   UNL     1      43.461   6.114  11.916  0.00  0.00    +0.000 A 
ATOM     24  S   UNL     1      42.640   4.609  11.813  0.00  0.00    +0.000 S 
ATOM     25  C   UNL     1      43.773   4.002  10.691  0.00  0.00    +0.000 A 
ATOM     26  N   UNL     1      43.784   2.703  10.290  0.00  0.00    +0.000 NA
ATOM     27  C   UNL     1      44.671   2.435   9.386  0.00  0.00    +0.000 A 
ATOM     28  N   UNL     1      45.517   3.355   8.812  0.00  0.00    +0.000 N 
ATOM     29  C   UNL     1      45.558   4.676   9.206  0.00  0.00    +0.000 A 
ATOM     30  O   UNL     1      46.275   5.494   8.640  0.00  0.00    +0.000 OA
ATOM     31  C   UNL     1      44.656   4.982  10.293  0.00  0.00    +0.000 A 
ATOM     32  H   UNL     1      46.121   3.099   8.045  0.00  0.00    +0.000 HD
ENDBRANCH  19  22
ENDBRANCH   1  20
TORSDOF 7
ENDMDL
MODEL 9
REMARK VINA RESULT:    -7.062      2.595      3.832
REMARK INTER + INTRA:         -10.666
REMARK INTER:                  -9.671
REMARK INTRA:                  -0.995
REMARK UNBOUND:                -0.921
REMARK  Name = 
REMARK  7 active torsions:
REMARK  status: ('A' for Active; 'I' for Inactive)
REMARK    1  A    between atoms: C_2  and  C_20
REMARK    2  A    between atoms: N_3  and  C_4
REMARK    3  A    between atoms: C_4  and  C_5
REMARK    4  A    between atoms: C_8  and  C_9
REMARK    5  A    between atoms: C_9  and  O_10
REMARK    6  A    between atoms: C_9  and  C_11
REMARK    7  A    between atoms: C_11  and  C_12
REMARK                            x       y       z     vdW  Elec       q    Type
REMARK                         _______ _______ _______ _____ _____    ______ ____
ROOT
ATOM      1  C   UNL     1      48.541   6.824  13.976  0.00  0.00    +0.000 C 
ENDROOT
BRANCH   1   2
ATOM      2  C   UNL     1      47.263   6.123  13.571  0.00  0.00    +0.000 A 
ATOM      3  N   UNL     1      47.211   4.782  13.645  0.00  0.00    +0.000 NA
ATOM      4  C   UNL     1      46.058   4.198  13.259  0.00  0.00    +0.000 A 
ATOM      5  C   UNL     1      44.965   4.888  12.774  0.00  0.00    +0.000 A 
ATOM      6  C   UNL     1      45.143   6.255  12.705  0.00  0.00    +0.000 A 
ATOM      7  N   UNL     1      46.274   6.892  13.067  0.00  0.00    +0.000 NA
BRANCH   5   8
ATOM      8  C   UNL     1      43.674   4.189  12.464  0.00  0.00    +0.000 C 
BRANCH   8   9
ATOM      9  O   UNL     1      42.701   4.742  13.352  0.00  0.00    +0.000 OA
ATOM     10  H   UNL     1      42.381   4.037  13.942  0.00  0.00    +0.000 HD
ENDBRANCH   8   9
BRANCH   8  11
ATOM     11  C   UNL     1      43.206   4.303  10.995  0.00  0.00    +0.000 C 
BRANCH  11  12
ATOM     12  C   UNL     1      44.156   3.824   9.921  0.00  0.00    +0.000 A 
ATOM     13  C   UNL     1      44.378   2.448   9.778  0.00  0.00    +0.000 A 
ATOM     14  C   UNL     1      45.289   1.981   8.836  0.00  0.00    +0.000 A 
ATOM     15  C   UNL     1      45.952   2.907   8.052  0.00  0.00    +0.000 A 
ATOM     16  N   UNL     1      45.759   4.238   8.147  0.00  0.00    +0.000 NA
ATOM     17  C   UNL     1      44.874   4.666   9.075  0.00  0.00    +0.000 A 
ENDBRANCH  11  12
ENDBRANCH   8  11
ENDBRANCH   5   8
ENDBRANCH   1   2
BRANCH   1  20
ATOM     18  O   UNL     1      50.506   6.211  15.955  0.00  0.00    +0.000 OA
ATOM     19  C   UNL     1      49.473   6.783  16.258  0.00  0.00    +0.000 C 
ATOM     20  N   UNL     1      48.512   7.202  15.367  0.00  0.00    +0.000 N 
ATOM     21  H   UNL     1      47.588   7.402  15.725  0.00  0.00    +0.000 HD
BRANCH  19  22
ATOM     22  C   UNL     1      48.978   6.897  17.625  0.00  0.00    +0.000 A 
ATOM     23  C   UNL     1      48.439   5.824  18.312  0.00  0.00    +0.000 A 
ATOM     24  S   UNL     1      47.352   6.358  19.530  0.00  0.00    +0.000 S 
ATOM     25  C   UNL     1      47.756   7.992  19.255  0.00  0.00    +0.000 A 
ATOM     26  N   UNL     1      47.083   9.021  19.836  0.00  0.00    +0.000 NA
ATOM     27  C   UNL     1      47.568  10.191  19.565  0.00  0.00    +0.000 A 
ATOM     28  N   UNL     1      48.691  10.425  18.807  0.00  0.00    +0.000 N 
ATOM     29  C   UNL     1      49.388   9.415  18.179  0.00  0.00    +0.000 A 
ATOM     30  O   UNL     1      50.423   9.636  17.558  0.00  0.00    +0.000 OA
ATOM     31  C   UNL     1      48.805   8.106  18.370  0.00  0.00    +0.000 A 
ATOM     32  H   UNL     1      49.070  11.355  18.712  0.00  0.00    +0.000 HD
ENDBRANCH  19  22
ENDBRANCH   1  20
TORSDOF 7
ENDMDL
