MODEL 1
REMARK VINA RESULT:    -7.470      0.000      0.000
REMARK INTER + INTRA:         -12.810
REMARK INTER:                 -11.836
REMARK INTRA:                  -0.973
REMARK UNBOUND:                -0.973
REMARK  Name = 
REMARK  12 active torsions:
REMARK  status: ('A' for Active; 'I' for Inactive)
REMARK    1  A    between atoms: C_1  and  N_2
REMARK    2  A    between atoms: N_2  and  C_3
REMARK    3  A    between atoms: C_3  and  C_4
REMARK    4  A    between atoms: C_4  and  N_5
REMARK    5  A    between atoms: C_4  and  C_6
REMARK    6  A    between atoms: C_9  and  C_10
REMARK    7  A    between atoms: C_10  and  N_11
REMARK    8  A    between atoms: N_11  and  CA_12
REMARK    9  A    between atoms: CA_12  and  C_13
REMARK   10  A    between atoms: CA_12  and  C_15
REMARK   11  A    between atoms: C_13  and  O_14
REMARK   12  A    between atoms: C_22  and  C_24
REMARK                            x       y       z     vdW  Elec       q    Type
REMARK                         _______ _______ _______ _____ _____    ______ ____
ROOT
ATOM      1  C   UNL     1      48.023   7.480  14.050  0.00  0.00    +0.000 C 
ENDROOT
BRANCH   1   2
ATOM      2  C   UNL     1      47.123   6.431  13.453  0.00  0.00    +0.000 A 
ATOM      3  C   UNL     1      47.162   5.120  13.941  0.00  0.00    +0.000 A 
ATOM      4  C   UNL     1      46.343   4.145  13.382  0.00  0.00    +0.000 A 
ATOM      5  C   UNL     1      45.493   4.509  12.343  0.00  0.00    +0.000 A 
ATOM      6  N   UNL     1      45.426   5.774  11.863  0.00  0.00    +0.000 NA
ATOM      7  C   UNL     1      46.233   6.697  12.421  0.00  0.00    +0.000 A 
BRANCH   5   8
ATOM      8  C   UNL     1      44.529   3.507  11.744  0.00  0.00    +0.000 C 
BRANCH   8   9
ATOM      9  N   UNL     1      45.130   2.576  10.774  0.00  0.00    +0.000 NA
ATOM     10  H   UNL     1      44.773   1.640  10.978  0.00  0.00    +0.000 HD
BRANCH   9  11
ATOM     11  CA  UNL     1      44.763   2.862   9.357  0.00  0.00    +0.000 C 
BRANCH  11  12
ATOM     12  C   UNL     1      45.750   2.181   8.409  0.00  0.00    +0.000 A 
ATOM     13  N   UNL     1      46.012   0.886   8.431  0.00  0.00    +0.000 NA
ATOM     14  C   UNL     1      46.935   0.577   7.450  0.00  0.00    +0.000 A 
ATOM     15  C   UNL     1      47.389   1.639   6.701  0.00  0.00    +0.000 A 
ATOM     16  S   UNL     1      46.653   3.083   7.243  0.00  0.00    +0.000 S 
ENDBRANCH  11  12
BRANCH  11  17
ATOM     17  C   UNL     1      44.638   4.368   9.014  0.00  0.00    +0.000 C 
BRANCH  17  18
ATOM     18  O   UNL     1      43.389   4.931   9.431  0.00  0.00    +0.000 OA
ATOM     19  H   UNL     1      43.188   5.640   8.791  0.00  0.00    +0.000 HD
ENDBRANCH  17  18
ENDBRANCH  11  17
ENDBRANCH   9  11
ENDBRANCH   8   9
ENDBRANCH   5   8
ENDBRANCH   1   2
BRANCH   1  20
ATOM     20  N   UNL     1      48.859   8.056  12.984  0.00  0.00    +0.000 NA
ATOM     21  H   UNL     1      48.432   8.912  12.631  0.00  0.00    +0.000 HD
ATOM     22  H   UNL     1      48.924   7.417  12.193  0.00  0.00    +0.000 HD
ENDBRANCH   1  20
BRANCH   1  23
ATOM     23  C   UNL     1      48.892   7.004  15.251  0.00  0.00    +0.000 C 
BRANCH  23  25
ATOM     24  C   UNL     1      48.817   9.055  16.768  0.00  0.00    +0.000 C 
ATOM     25  N   UNL     1      48.720   7.610  16.583  0.00  0.00    +0.000 N 
ATOM     26  C   UNL     1      48.435   6.879  17.761  0.00  0.00    +0.000 C 
ATOM     27  O   UNL     1      48.267   7.457  18.829  0.00  0.00    +0.000 OA
BRANCH  26  28
ATOM     28  C   UNL     1      48.381   5.409  17.714  0.00  0.00    +0.000 A 
ATOM     29  C   UNL     1      47.229   4.668  17.511  0.00  0.00    +0.000 A 
ATOM     30  S   UNL     1      47.487   2.983  17.451  0.00  0.00    +0.000 S 
ATOM     31  C   UNL     1      49.171   3.193  17.524  0.00  0.00    +0.000 A 
ATOM     32  N   UNL     1      50.008   2.129  17.400  0.00  0.00    +0.000 NA
ATOM     33  C   UNL     1      51.261   2.443  17.402  0.00  0.00    +0.000 A 
ATOM     34  N   UNL     1      51.751   3.715  17.557  0.00  0.00    +0.000 N 
ATOM     35  C   UNL     1      50.942   4.801  17.817  0.00  0.00    +0.000 A 
ATOM     36  O   UNL     1      51.423   5.872  18.176  0.00  0.00    +0.000 OA
ATOM     37  C   UNL     1      49.523   4.520  17.700  0.00  0.00    +0.000 A 
ATOM     38  H   UNL     1      52.743   3.882  17.615  0.00  0.00    +0.000 HD
ENDBRANCH  26  28
ENDBRANCH  23  25
ENDBRANCH   1  23
TORSDOF 11
ENDMDL
MODEL 2
REMARK VINA RESULT:    -7.323      1.471      1.858
REMARK INTER + INTRA:         -12.577
REMARK INTER:                 -11.160
REMARK INTRA:                  -1.417
REMARK UNBOUND:                -0.973
REMARK  Name = 
REMARK  12 active torsions:
REMARK  status: ('A' for Active; 'I' for Inactive)
REMARK    1  A    between atoms: C_1  and  N_2
REMARK    2  A    between atoms: N_2  and  C_3
REMARK    3  A    between atoms: C_3  and  C_4
REMARK    4  A    between atoms: C_4  and  N_5
REMARK    5  A    between atoms: C_4  and  C_6
REMARK    6  A    between atoms: C_9  and  C_10
REMARK    7  A    between atoms: C_10  and  N_11
REMARK    8  A    between atoms: N_11  and  CA_12
REMARK    9  A    between atoms: CA_12  and  C_13
REMARK   10  A    between atoms: CA_12  and  C_15
REMARK   11  A    between atoms: C_13  and  O_14
REMARK   12  A    between atoms: C_22  and  C_24
REMARK                            x       y       z     vdW  Elec       q    Type
REMARK                         _______ _______ _______ _____ _____    ______ ____
ROOT
ATOM      1  C   UNL     1      48.883   7.315  13.609  0.00  0.00    +0.000 C 
ENDROOT
BRANCH   1   2
ATOM      2  C   UNL     1      47.517   6.985  13.066  0.00  0.00    +0.000 A 
ATOM      3  C   UNL     1      47.073   7.591  11.885  0.00  0.00    +0.000 A 
ATOM      4  C   UNL     1      45.807   7.301  11.389  0.00  0.00    +0.000 A 
ATOM      5  C   UNL     1      45.011   6.400  12.088  0.00  0.00    +0.000 A 
ATOM      6  N   UNL     1      45.424   5.790  13.224  0.00  0.00    +0.000 NA
ATOM      7  C   UNL     1      46.653   6.091  13.685  0.00  0.00    +0.000 A 
BRANCH   5   8
ATOM      8  C   UNL     1      43.652   5.993  11.557  0.00  0.00    +0.000 C 
BRANCH   8   9
ATOM      9  N   UNL     1      43.688   5.135  10.361  0.00  0.00    +0.000 NA
ATOM     10  H   UNL     1      44.134   5.665   9.611  0.00  0.00    +0.000 HD
BRANCH   9  11
ATOM     11  CA  UNL     1      44.497   3.894  10.533  0.00  0.00    +0.000 C 
BRANCH  11  12
ATOM     12  C   UNL     1      45.239   3.565   9.237  0.00  0.00    +0.000 A 
ATOM     13  N   UNL     1      45.691   4.481   8.399  0.00  0.00    +0.000 NA
ATOM     14  C   UNL     1      46.321   3.871   7.332  0.00  0.00    +0.000 A 
ATOM     15  C   UNL     1      46.328   2.494   7.349  0.00  0.00    +0.000 A 
ATOM     16  S   UNL     1      45.506   1.931   8.738  0.00  0.00    +0.000 S 
ENDBRANCH  11  12
BRANCH  11  17
ATOM     17  C   UNL     1      43.693   2.662  11.022  0.00  0.00    +0.000 C 
BRANCH  17  18
ATOM     18  O   UNL     1      43.822   2.439  12.430  0.00  0.00    +0.000 OA
ATOM     19  H   UNL     1      42.913   2.320  12.766  0.00  0.00    +0.000 HD
ENDBRANCH  17  18
ENDBRANCH  11  17
ENDBRANCH   9  11
ENDBRANCH   8   9
ENDBRANCH   5   8
ENDBRANCH   1   2
BRANCH   1  20
ATOM     20  N   UNL     1      49.894   6.991  12.589  0.00  0.00    +0.000 NA
ATOM     21  H   UNL     1      50.320   7.849  12.237  0.00  0.00    +0.000 HD
ATOM     22  H   UNL     1      49.463   6.532  11.788  0.00  0.00    +0.000 HD
ENDBRANCH   1  20
BRANCH   1  23
ATOM     23  C   UNL     1      49.231   6.655  14.975  0.00  0.00    +0.000 C 
BRANCH  23  25
ATOM     24  C   UNL     1      49.075   8.818  16.321  0.00  0.00    +0.000 C 
ATOM     25  N   UNL     1      48.960   7.364  16.237  0.00  0.00    +0.000 N 
ATOM     26  C   UNL     1      48.557   6.731  17.437  0.00  0.00    +0.000 C 
ATOM     27  O   UNL     1      48.311   7.392  18.440  0.00  0.00    +0.000 OA
BRANCH  26  28
ATOM     28  C   UNL     1      48.472   5.263  17.496  0.00  0.00    +0.000 A 
ATOM     29  C   UNL     1      47.307   4.532  17.333  0.00  0.00    +0.000 A 
ATOM     30  S   UNL     1      47.530   2.843  17.398  0.00  0.00    +0.000 S 
ATOM     31  C   UNL     1      49.217   3.023  17.476  0.00  0.00    +0.000 A 
ATOM     32  N   UNL     1      50.033   1.936  17.440  0.00  0.00    +0.000 NA
ATOM     33  C   UNL     1      51.292   2.224  17.435  0.00  0.00    +0.000 A 
ATOM     34  N   UNL     1      51.807   3.493  17.503  0.00  0.00    +0.000 N 
ATOM     35  C   UNL     1      51.018   4.612  17.674  0.00  0.00    +0.000 A 
ATOM     36  O   UNL     1      51.518   5.697  17.961  0.00  0.00    +0.000 OA
ATOM     37  C   UNL     1      49.595   4.352  17.561  0.00  0.00    +0.000 A 
ATOM     38  H   UNL     1      52.801   3.645  17.561  0.00  0.00    +0.000 HD
ENDBRANCH  26  28
ENDBRANCH  23  25
ENDBRANCH   1  23
TORSDOF 11
ENDMDL
MODEL 3
REMARK VINA RESULT:    -7.238      2.119      2.825
REMARK INTER + INTRA:         -12.444
REMARK INTER:                 -11.066
REMARK INTRA:                  -1.378
REMARK UNBOUND:                -0.973
REMARK  Name = 
REMARK  12 active torsions:
REMARK  status: ('A' for Active; 'I' for Inactive)
REMARK    1  A    between atoms: C_1  and  N_2
REMARK    2  A    between atoms: N_2  and  C_3
REMARK    3  A    between atoms: C_3  and  C_4
REMARK    4  A    between atoms: C_4  and  N_5
REMARK    5  A    between atoms: C_4  and  C_6
REMARK    6  A    between atoms: C_9  and  C_10
REMARK    7  A    between atoms: C_10  and  N_11
REMARK    8  A    between atoms: N_11  and  CA_12
REMARK    9  A    between atoms: CA_12  and  C_13
REMARK   10  A    between atoms: CA_12  and  C_15
REMARK   11  A    between atoms: C_13  and  O_14
REMARK   12  A    between atoms: C_22  and  C_24
REMARK                            x       y       z     vdW  Elec       q    Type
REMARK                         _______ _______ _______ _____ _____    ______ ____
ROOT
ATOM      1  C   UNL     1      47.649   5.700  14.236  0.00  0.00    +0.000 C 
ENDROOT
BRANCH   1   2
ATOM      2  C   UNL     1      46.625   5.521  13.147  0.00  0.00    +0.000 A 
ATOM      3  C   UNL     1      46.714   6.283  11.976  0.00  0.00    +0.000 A 
ATOM      4  C   UNL     1      45.761   6.131  10.974  0.00  0.00    +0.000 A 
ATOM      5  C   UNL     1      44.738   5.209  11.166  0.00  0.00    +0.000 A 
ATOM      6  N   UNL     1      44.639   4.450  12.283  0.00  0.00    +0.000 NA
ATOM      7  C   UNL     1      45.573   4.619  13.239  0.00  0.00    +0.000 A 
BRANCH   5   8
ATOM      8  C   UNL     1      43.714   4.951  10.080  0.00  0.00    +0.000 C 
BRANCH   8   9
ATOM      9  N   UNL     1      44.261   4.377   8.840  0.00  0.00    +0.000 NA
ATOM     10  H   UNL     1      44.892   5.067   8.429  0.00  0.00    +0.000 HD
BRANCH   9  11
ATOM     11  CA  UNL     1      45.073   3.144   9.052  0.00  0.00    +0.000 C 
BRANCH  11  12
ATOM     12  C   UNL     1      45.971   2.889   7.841  0.00  0.00    +0.000 A 
ATOM     13  N   UNL     1      46.161   3.767   6.872  0.00  0.00    +0.000 NA
ATOM     14  C   UNL     1      47.028   3.247   5.930  0.00  0.00    +0.000 A 
ATOM     15  C   UNL     1      47.477   1.968   6.173  0.00  0.00    +0.000 A 
ATOM     16  S   UNL     1      46.784   1.379   7.621  0.00  0.00    +0.000 S 
ENDBRANCH  11  12
BRANCH  11  17
ATOM     17  C   UNL     1      44.247   1.877   9.387  0.00  0.00    +0.000 C 
BRANCH  17  18
ATOM     18  O   UNL     1      43.746   1.879  10.729  0.00  0.00    +0.000 OA
ATOM     19  H   UNL     1      43.253   2.715  10.829  0.00  0.00    +0.000 HD
ENDBRANCH  17  18
ENDBRANCH  11  17
ENDBRANCH   9  11
ENDBRANCH   8   9
ENDBRANCH   5   8
ENDBRANCH   1   2
BRANCH   1  20
ATOM     20  N   UNL     1      47.212   4.958  15.430  0.00  0.00    +0.000 NA
ATOM     21  H   UNL     1      46.671   5.569  16.042  0.00  0.00    +0.000 HD
ATOM     22  H   UNL     1      48.015   4.643  15.972  0.00  0.00    +0.000 HD
ENDBRANCH   1  20
BRANCH   1  23
ATOM     23  C   UNL     1      47.994   7.177  14.587  0.00  0.00    +0.000 C 
BRANCH  23  25
ATOM     24  C   UNL     1      50.220   7.803  13.508  0.00  0.00    +0.000 C 
ATOM     25  N   UNL     1      49.397   7.610  14.699  0.00  0.00    +0.000 N 
ATOM     26  C   UNL     1      50.051   7.889  15.923  0.00  0.00    +0.000 C 
ATOM     27  O   UNL     1      51.212   8.282  15.935  0.00  0.00    +0.000 OA
BRANCH  26  28
ATOM     28  C   UNL     1      49.346   7.665  17.196  0.00  0.00    +0.000 A 
ATOM     29  C   UNL     1      48.503   8.580  17.802  0.00  0.00    +0.000 A 
ATOM     30  S   UNL     1      47.786   8.017  19.244  0.00  0.00    +0.000 S 
ATOM     31  C   UNL     1      48.445   6.467  19.019  0.00  0.00    +0.000 A 
ATOM     32  N   UNL     1      48.121   5.448  19.859  0.00  0.00    +0.000 NA
ATOM     33  C   UNL     1      48.637   4.311  19.528  0.00  0.00    +0.000 A 
ATOM     34  N   UNL     1      49.476   4.110  18.461  0.00  0.00    +0.000 N 
ATOM     35  C   UNL     1      49.933   5.140  17.666  0.00  0.00    +0.000 A 
ATOM     36  O   UNL     1      50.854   4.961  16.873  0.00  0.00    +0.000 OA
ATOM     37  C   UNL     1      49.285   6.414  17.921  0.00  0.00    +0.000 A 
ATOM     38  H   UNL     1      49.896   3.210  18.298  0.00  0.00    +0.000 HD
ENDBRANCH  26  28
ENDBRANCH  23  25
ENDBRANCH   1  23
TORSDOF 11
ENDMDL
MODEL 4
REMARK VINA RESULT:    -7.186      1.801      2.503
REMARK INTER + INTRA:         -12.361
REMARK INTER:                 -10.955
REMARK INTRA:                  -1.406
REMARK UNBOUND:                -0.973
REMARK  Name = 
REMARK  12 active torsions:
REMARK  status: ('A' for Active; 'I' for Inactive)
REMARK    1  A    between atoms: C_1  and  N_2
REMARK    2  A    between atoms: N_2  and  C_3
REMARK    3  A    between atoms: C_3  and  C_4
REMARK    4  A    between atoms: C_4  and  N_5
REMARK    5  A    between atoms: C_4  and  C_6
REMARK    6  A    between atoms: C_9  and  C_10
REMARK    7  A    between atoms: C_10  and  N_11
REMARK    8  A    between atoms: N_11  and  CA_12
REMARK    9  A    between atoms: CA_12  and  C_13
REMARK   10  A    between atoms: CA_12  and  C_15
REMARK   11  A    between atoms: C_13  and  O_14
REMARK   12  A    between atoms: C_22  and  C_24
REMARK                            x       y       z     vdW  Elec       q    Type
REMARK                         _______ _______ _______ _____ _____    ______ ____
ROOT
ATOM      1  C   UNL     1      50.188   8.028  14.440  0.00  0.00    +0.000 C 
ENDROOT
BRANCH   1   2
ATOM      2  C   UNL     1      48.853   7.925  13.751  0.00  0.00    +0.000 A 
ATOM      3  C   UNL     1      48.704   7.082  12.643  0.00  0.00    +0.000 A 
ATOM      4  C   UNL     1      47.477   6.996  11.995  0.00  0.00    +0.000 A 
ATOM      5  C   UNL     1      46.418   7.757  12.476  0.00  0.00    +0.000 A 
ATOM      6  N   UNL     1      46.532   8.569  13.554  0.00  0.00    +0.000 NA
ATOM      7  C   UNL     1      47.733   8.636  14.161  0.00  0.00    +0.000 A 
BRANCH   5   8
ATOM      8  C   UNL     1      45.041   7.651  11.854  0.00  0.00    +0.000 C 
BRANCH   8   9
ATOM      9  N   UNL     1      44.898   6.585  10.849  0.00  0.00    +0.000 NA
ATOM     10  H   UNL     1      45.831   6.364  10.495  0.00  0.00    +0.000 HD
BRANCH   9  11
ATOM     11  CA  UNL     1      44.347   5.311  11.395  0.00  0.00    +0.000 C 
BRANCH  11  12
ATOM     12  C   UNL     1      44.524   4.182  10.380  0.00  0.00    +0.000 A 
ATOM     13  N   UNL     1      44.133   2.938  10.592  0.00  0.00    +0.000 NA
ATOM     14  C   UNL     1      44.423   2.159   9.488  0.00  0.00    +0.000 A 
ATOM     15  C   UNL     1      45.053   2.807   8.449  0.00  0.00    +0.000 A 
ATOM     16  S   UNL     1      45.311   4.445   8.863  0.00  0.00    +0.000 S 
ENDBRANCH  11  12
BRANCH  11  17
ATOM     17  C   UNL     1      42.870   5.393  11.859  0.00  0.00    +0.000 C 
BRANCH  17  18
ATOM     18  O   UNL     1      42.741   5.563  13.274  0.00  0.00    +0.000 OA
ATOM     19  H   UNL     1      42.548   6.510  13.413  0.00  0.00    +0.000 HD
ENDBRANCH  17  18
ENDBRANCH  11  17
ENDBRANCH   9  11
ENDBRANCH   8   9
ENDBRANCH   5   8
ENDBRANCH   1   2
BRANCH   1  20
ATOM     20  N   UNL     1      51.253   7.764  13.460  0.00  0.00    +0.000 NA
ATOM     21  H   UNL     1      51.813   8.605  13.318  0.00  0.00    +0.000 HD
ATOM     22  H   UNL     1      50.857   7.524  12.552  0.00  0.00    +0.000 HD
ENDBRANCH   1  20
BRANCH   1  23
ATOM     23  C   UNL     1      50.353   7.135  15.704  0.00  0.00    +0.000 C 
BRANCH  23  25
ATOM     24  C   UNL     1      49.808   8.792  17.568  0.00  0.00    +0.000 C 
ATOM     25  N   UNL     1      49.653   7.475  16.955  0.00  0.00    +0.000 N 
ATOM     26  C   UNL     1      48.780   6.599  17.644  0.00  0.00    +0.000 C 
ATOM     27  O   UNL     1      48.201   6.967  18.661  0.00  0.00    +0.000 OA
BRANCH  26  28
ATOM     28  C   UNL     1      48.596   5.221  17.161  0.00  0.00    +0.000 A 
ATOM     29  C   UNL     1      47.604   4.818  16.283  0.00  0.00    +0.000 A 
ATOM     30  S   UNL     1      47.677   3.167  15.861  0.00  0.00    +0.000 S 
ATOM     31  C   UNL     1      49.139   2.970  16.704  0.00  0.00    +0.000 A 
ATOM     32  N   UNL     1      49.815   1.792  16.651  0.00  0.00    +0.000 NA
ATOM     33  C   UNL     1      50.945   1.806  17.279  0.00  0.00    +0.000 A 
ATOM     34  N   UNL     1      51.437   2.875  17.983  0.00  0.00    +0.000 N 
ATOM     35  C   UNL     1      50.723   4.040  18.171  0.00  0.00    +0.000 A 
ATOM     36  O   UNL     1      51.090   4.878  18.991  0.00  0.00    +0.000 OA
ATOM     37  C   UNL     1      49.506   4.118  17.384  0.00  0.00    +0.000 A 
ATOM     38  H   UNL     1      52.295   2.797  18.505  0.00  0.00    +0.000 HD
ENDBRANCH  26  28
ENDBRANCH  23  25
ENDBRANCH   1  23
TORSDOF 11
ENDMDL
MODEL 5
REMARK VINA RESULT:    -7.164      2.493      8.788
REMARK INTER + INTRA:         -12.325
REMARK INTER:                 -10.986
REMARK INTRA:                  -1.339
REMARK UNBOUND:                -0.973
REMARK  Name = 
REMARK  12 active torsions:
REMARK  status: ('A' for Active; 'I' for Inactive)
REMARK    1  A    between atoms: C_1  and  N_2
REMARK    2  A    between atoms: N_2  and  C_3
REMARK    3  A    between atoms: C_3  and  C_4
REMARK    4  A    between atoms: C_4  and  N_5
REMARK    5  A    between atoms: C_4  and  C_6
REMARK    6  A    between atoms: C_9  and  C_10
REMARK    7  A    between atoms: C_10  and  N_11
REMARK    8  A    between atoms: N_11  and  CA_12
REMARK    9  A    between atoms: CA_12  and  C_13
REMARK   10  A    between atoms: CA_12  and  C_15
REMARK   11  A    between atoms: C_13  and  O_14
REMARK   12  A    between atoms: C_22  and  C_24
REMARK                            x       y       z     vdW  Elec       q    Type
REMARK                         _______ _______ _______ _____ _____    ______ ____
ROOT
ATOM      1  C   UNL     1      46.746   4.627  14.230  0.00  0.00    +0.000 C 
ENDROOT
BRANCH   1   2
ATOM      2  C   UNL     1      47.530   4.737  15.511  0.00  0.00    +0.000 A 
ATOM      3  C   UNL     1      47.424   3.733  16.480  0.00  0.00    +0.000 A 
ATOM      4  C   UNL     1      48.134   3.839  17.671  0.00  0.00    +0.000 A 
ATOM      5  C   UNL     1      48.944   4.952  17.864  0.00  0.00    +0.000 A 
ATOM      6  N   UNL     1      49.074   5.930  16.935  0.00  0.00    +0.000 NA
ATOM      7  C   UNL     1      48.373   5.804  15.792  0.00  0.00    +0.000 A 
BRANCH   5   8
ATOM      8  C   UNL     1      49.794   5.086  19.109  0.00  0.00    +0.000 C 
BRANCH   8   9
ATOM      9  N   UNL     1      50.876   4.095  19.229  0.00  0.00    +0.000 NA
ATOM     10  H   UNL     1      50.446   3.182  19.387  0.00  0.00    +0.000 HD
BRANCH   9  11
ATOM     11  CA  UNL     1      51.705   3.957  17.997  0.00  0.00    +0.000 C 
BRANCH  11  12
ATOM     12  C   UNL     1      52.525   2.667  18.055  0.00  0.00    +0.000 A 
ATOM     13  N   UNL     1      52.124   1.520  17.534  0.00  0.00    +0.000 NA
ATOM     14  C   UNL     1      53.085   0.550  17.741  0.00  0.00    +0.000 A 
ATOM     15  C   UNL     1      54.202   0.953  18.438  0.00  0.00    +0.000 A 
ATOM     16  S   UNL     1      54.050   2.600  18.867  0.00  0.00    +0.000 S 
ENDBRANCH  11  12
BRANCH  11  17
ATOM     17  C   UNL     1      52.626   5.168  17.699  0.00  0.00    +0.000 C 
BRANCH  17  18
ATOM     18  O   UNL     1      52.163   5.961  16.602  0.00  0.00    +0.000 OA
ATOM     19  H   UNL     1      51.655   5.355  16.029  0.00  0.00    +0.000 HD
ENDBRANCH  17  18
ENDBRANCH  11  17
ENDBRANCH   9  11
ENDBRANCH   8   9
ENDBRANCH   5   8
ENDBRANCH   1   2
BRANCH   1  20
ATOM     20  N   UNL     1      46.843   3.247  13.727  0.00  0.00    +0.000 NA
ATOM     21  H   UNL     1      46.523   2.593  14.442  0.00  0.00    +0.000 HD
ATOM     22  H   UNL     1      47.812   3.005  13.525  0.00  0.00    +0.000 HD
ENDBRANCH   1  20
BRANCH   1  23
ATOM     23  C   UNL     1      47.130   5.656  13.126  0.00  0.00    +0.000 C 
BRANCH  23  25
ATOM     24  C   UNL     1      46.453   8.115  13.057  0.00  0.00    +0.000 C 
ATOM     25  N   UNL     1      46.186   6.717  12.734  0.00  0.00    +0.000 N 
ATOM     26  C   UNL     1      44.987   6.492  12.016  0.00  0.00    +0.000 C 
ATOM     27  O   UNL     1      44.269   7.432  11.691  0.00  0.00    +0.000 OA
BRANCH  26  28
ATOM     28  C   UNL     1      44.575   5.117  11.693  0.00  0.00    +0.000 A 
ATOM     29  C   UNL     1      43.752   4.333  12.483  0.00  0.00    +0.000 A 
ATOM     30  S   UNL     1      43.405   2.800  11.820  0.00  0.00    +0.000 S 
ATOM     31  C   UNL     1      44.205   3.195  10.374  0.00  0.00    +0.000 A 
ATOM     32  N   UNL     1      44.185   2.341   9.316  0.00  0.00    +0.000 NA
ATOM     33  C   UNL     1      44.771   2.799   8.260  0.00  0.00    +0.000 A 
ATOM     34  N   UNL     1      45.408   4.012   8.180  0.00  0.00    +0.000 N 
ATOM     35  C   UNL     1      45.565   4.847   9.266  0.00  0.00    +0.000 A 
ATOM     36  O   UNL     1      46.331   5.805   9.217  0.00  0.00    +0.000 OA
ATOM     37  C   UNL     1      44.818   4.434  10.440  0.00  0.00    +0.000 A 
ATOM     38  H   UNL     1      45.903   4.280   7.345  0.00  0.00    +0.000 HD
ENDBRANCH  26  28
ENDBRANCH  23  25
ENDBRANCH   1  23
TORSDOF 11
ENDMDL
MODEL 6
REMARK VINA RESULT:    -6.961      2.560      4.514
REMARK INTER + INTRA:         -12.004
REMARK INTER:                 -10.231
REMARK INTRA:                  -1.773
REMARK UNBOUND:                -0.973
REMARK  Name = 
REMARK  12 active torsions:
REMARK  status: ('A' for Active; 'I' for Inactive)
REMARK    1  A    between atoms: C_1  and  N_2
REMARK    2  A    between atoms: N_2  and  C_3
REMARK    3  A    between atoms: C_3  and  C_4
REMARK    4  A    between atoms: C_4  and  N_5
REMARK    5  A    between atoms: C_4  and  C_6
REMARK    6  A    between atoms: C_9  and  C_10
REMARK    7  A    between atoms: C_10  and  N_11
REMARK    8  A    between atoms: N_11  and  CA_12
REMARK    9  A    between atoms: CA_12  and  C_13
REMARK   10  A    between atoms: CA_12  and  C_15
REMARK   11  A    between atoms: C_13  and  O_14
REMARK   12  A    between atoms: C_22  and  C_24
REMARK                            x       y       z     vdW  Elec       q    Type
REMARK                         _______ _______ _______ _____ _____    ______ ____
ROOT
ATOM      1  C   UNL     1      48.977   3.917  18.597  0.00  0.00    +0.000 C 
ENDROOT
BRANCH   1   2
ATOM      2  C   UNL     1      48.374   3.962  17.218  0.00  0.00    +0.000 A 
ATOM      3  C   UNL     1      47.874   5.168  16.715  0.00  0.00    +0.000 A 
ATOM      4  C   UNL     1      47.302   5.210  15.448  0.00  0.00    +0.000 A 
ATOM      5  C   UNL     1      47.250   4.036  14.705  0.00  0.00    +0.000 A 
ATOM      6  N   UNL     1      47.740   2.859  15.164  0.00  0.00    +0.000 NA
ATOM      7  C   UNL     1      48.285   2.846  16.395  0.00  0.00    +0.000 A 
BRANCH   5   8
ATOM      8  C   UNL     1      46.703   4.036  13.293  0.00  0.00    +0.000 C 
BRANCH   8   9
ATOM      9  N   UNL     1      45.570   3.123  13.069  0.00  0.00    +0.000 NA
ATOM     10  H   UNL     1      45.234   2.814  13.983  0.00  0.00    +0.000 HD
BRANCH   9  11
ATOM     11  CA  UNL     1      44.406   3.763  12.391  0.00  0.00    +0.000 C 
BRANCH  11  12
ATOM     12  C   UNL     1      44.563   3.669  10.873  0.00  0.00    +0.000 A 
ATOM     13  N   UNL     1      44.286   2.583  10.173  0.00  0.00    +0.000 NA
ATOM     14  C   UNL     1      44.521   2.815   8.832  0.00  0.00    +0.000 A 
ATOM     15  C   UNL     1      44.997   4.068   8.517  0.00  0.00    +0.000 A 
ATOM     16  S   UNL     1      45.175   4.993   9.944  0.00  0.00    +0.000 S 
ENDBRANCH  11  12
BRANCH  11  17
ATOM     17  C   UNL     1      44.137   5.229  12.816  0.00  0.00    +0.000 C 
BRANCH  17  18
ATOM     18  O   UNL     1      42.831   5.416  13.371  0.00  0.00    +0.000 OA
ATOM     19  H   UNL     1      42.942   6.040  14.113  0.00  0.00    +0.000 HD
ENDBRANCH  17  18
ENDBRANCH  11  17
ENDBRANCH   9  11
ENDBRANCH   8   9
ENDBRANCH   5   8
ENDBRANCH   1   2
BRANCH   1  20
ATOM     20  N   UNL     1      48.287   2.884  19.387  0.00  0.00    +0.000 NA
ATOM     21  H   UNL     1      48.072   3.244  20.318  0.00  0.00    +0.000 HD
ATOM     22  H   UNL     1      48.889   2.073  19.522  0.00  0.00    +0.000 HD
ENDBRANCH   1  20
BRANCH   1  23
ATOM     23  C   UNL     1      49.006   5.278  19.353  0.00  0.00    +0.000 C 
BRANCH  23  25
ATOM     24  C   UNL     1      51.184   5.249  20.682  0.00  0.00    +0.000 C 
ATOM     25  N   UNL     1      50.290   5.896  19.727  0.00  0.00    +0.000 N 
ATOM     26  C   UNL     1      50.769   7.120  19.200  0.00  0.00    +0.000 C 
ATOM     27  O   UNL     1      51.867   7.554  19.531  0.00  0.00    +0.000 OA
BRANCH  26  28
ATOM     28  C   UNL     1      49.925   7.899  18.279  0.00  0.00    +0.000 A 
ATOM     29  C   UNL     1      49.066   8.915  18.664  0.00  0.00    +0.000 A 
ATOM     30  S   UNL     1      48.261   9.674  17.366  0.00  0.00    +0.000 S 
ATOM     31  C   UNL     1      49.159   8.785  16.230  0.00  0.00    +0.000 A 
ATOM     32  N   UNL     1      49.036   9.038  14.900  0.00  0.00    +0.000 NA
ATOM     33  C   UNL     1      49.829   8.339  14.157  0.00  0.00    +0.000 A 
ATOM     34  N   UNL     1      50.701   7.387  14.620  0.00  0.00    +0.000 N 
ATOM     35  C   UNL     1      50.762   7.009  15.945  0.00  0.00    +0.000 A 
ATOM     36  O   UNL     1      51.380   6.003  16.285  0.00  0.00    +0.000 OA
ATOM     37  C   UNL     1      49.980   7.850  16.834  0.00  0.00    +0.000 A 
ATOM     38  H   UNL     1      51.246   6.831  13.980  0.00  0.00    +0.000 HD
ENDBRANCH  26  28
ENDBRANCH  23  25
ENDBRANCH   1  23
TORSDOF 11
ENDMDL
MODEL 7
REMARK VINA RESULT:    -6.886      1.950      2.730
REMARK INTER + INTRA:         -11.885
REMARK INTER:                 -10.147
REMARK INTRA:                  -1.738
REMARK UNBOUND:                -0.973
REMARK  Name = 
REMARK  12 active torsions:
REMARK  status: ('A' for Active; 'I' for Inactive)
REMARK    1  A    between atoms: C_1  and  N_2
REMARK    2  A    between atoms: N_2  and  C_3
REMARK    3  A    between atoms: C_3  and  C_4
REMARK    4  A    between atoms: C_4  and  N_5
REMARK    5  A    between atoms: C_4  and  C_6
REMARK    6  A    between atoms: C_9  and  C_10
REMARK    7  A    between atoms: C_10  and  N_11
REMARK    8  A    between atoms: N_11  and  CA_12
REMARK    9  A    between atoms: CA_12  and  C_13
REMARK   10  A    between atoms: CA_12  and  C_15
REMARK   11  A    between atoms: C_13  and  O_14
REMARK   12  A    between atoms: C_22  and  C_24
REMARK                            x       y       z     vdW  Elec       q    Type
REMARK                         _______ _______ _______ _____ _____    ______ ____
ROOT
ATOM      1  C   UNL     1      47.903   7.079  14.405  0.00  0.00    +0.000 C 
ENDROOT
BRANCH   1   2
ATOM      2  C   UNL     1      47.033   6.118  13.639  0.00  0.00    +0.000 A 
ATOM      3  C   UNL     1      46.986   4.770  14.013  0.00  0.00    +0.000 A 
ATOM      4  C   UNL     1      46.196   3.876  13.298  0.00  0.00    +0.000 A 
ATOM      5  C   UNL     1      45.460   4.357  12.221  0.00  0.00    +0.000 A 
ATOM      6  N   UNL     1      45.477   5.659  11.848  0.00  0.00    +0.000 NA
ATOM      7  C   UNL     1      46.254   6.502  12.556  0.00  0.00    +0.000 A 
BRANCH   5   8
ATOM      8  C   UNL     1      44.528   3.446  11.451  0.00  0.00    +0.000 C 
BRANCH   8   9
ATOM      9  N   UNL     1      45.185   2.608  10.434  0.00  0.00    +0.000 NA
ATOM     10  H   UNL     1      44.920   1.637  10.612  0.00  0.00    +0.000 HD
BRANCH   9  11
ATOM     11  CA  UNL     1      44.757   2.908   9.037  0.00  0.00    +0.000 C 
BRANCH  11  12
ATOM     12  C   UNL     1      45.871   2.543   8.055  0.00  0.00    +0.000 A 
ATOM     13  N   UNL     1      46.415   3.403   7.212  0.00  0.00    +0.000 NA
ATOM     14  C   UNL     1      47.395   2.776   6.468  0.00  0.00    +0.000 A 
ATOM     15  C   UNL     1      47.578   1.436   6.730  0.00  0.00    +0.000 A 
ATOM     16  S   UNL     1      46.481   0.929   7.938  0.00  0.00    +0.000 S 
ENDBRANCH  11  12
BRANCH  11  17
ATOM     17  C   UNL     1      44.290   4.367   8.805  0.00  0.00    +0.000 C 
BRANCH  17  18
ATOM     18  O   UNL     1      45.359   5.314   8.896  0.00  0.00    +0.000 OA
ATOM     19  H   UNL     1      44.938   6.177   9.072  0.00  0.00    +0.000 HD
ENDBRANCH  17  18
ENDBRANCH  11  17
ENDBRANCH   9  11
ENDBRANCH   8   9
ENDBRANCH   5   8
ENDBRANCH   1   2
BRANCH   1  20
ATOM     20  N   UNL     1      47.336   8.432  14.291  0.00  0.00    +0.000 NA
ATOM     21  H   UNL     1      48.054   9.085  13.978  0.00  0.00    +0.000 HD
ATOM     22  H   UNL     1      47.017   8.766  15.199  0.00  0.00    +0.000 HD
ENDBRANCH   1  20
BRANCH   1  23
ATOM     23  C   UNL     1      49.410   7.065  14.016  0.00  0.00    +0.000 C 
BRANCH  23  25
ATOM     24  C   UNL     1      50.891   9.141  13.907  0.00  0.00    +0.000 C 
ATOM     25  N   UNL     1      50.352   8.004  14.648  0.00  0.00    +0.000 N 
ATOM     26  C   UNL     1      50.793   7.909  15.990  0.00  0.00    +0.000 C 
ATOM     27  O   UNL     1      51.550   8.752  16.460  0.00  0.00    +0.000 OA
BRANCH  26  28
ATOM     28  C   UNL     1      50.373   6.767  16.819  0.00  0.00    +0.000 A 
ATOM     29  C   UNL     1      51.070   5.577  16.934  0.00  0.00    +0.000 A 
ATOM     30  S   UNL     1      50.365   4.459  18.011  0.00  0.00    +0.000 S 
ATOM     31  C   UNL     1      49.194   5.592  18.492  0.00  0.00    +0.000 A 
ATOM     32  N   UNL     1      48.323   5.305  19.496  0.00  0.00    +0.000 NA
ATOM     33  C   UNL     1      47.536   6.282  19.804  0.00  0.00    +0.000 A 
ATOM     34  N   UNL     1      47.515   7.501  19.174  0.00  0.00    +0.000 N 
ATOM     35  C   UNL     1      48.289   7.785  18.068  0.00  0.00    +0.000 A 
ATOM     36  O   UNL     1      48.079   8.791  17.396  0.00  0.00    +0.000 OA
ATOM     37  C   UNL     1      49.275   6.765  17.762  0.00  0.00    +0.000 A 
ATOM     38  H   UNL     1      46.831   8.197  19.421  0.00  0.00    +0.000 HD
ENDBRANCH  26  28
ENDBRANCH  23  25
ENDBRANCH   1  23
TORSDOF 11
ENDMDL
MODEL 8
REMARK VINA RESULT:    -6.866      2.659      4.132
REMARK INTER + INTRA:         -11.854
REMARK INTER:                  -9.895
REMARK INTRA:                  -1.959
REMARK UNBOUND:                -0.973
REMARK  Name = 
REMARK  12 active torsions:
REMARK  status: ('A' for Active; 'I' for Inactive)
REMARK    1  A    between atoms: C_1  and  N_2
REMARK    2  A    between atoms: N_2  and  C_3
REMARK    3  A    between atoms: C_3  and  C_4
REMARK    4  A    between atoms: C_4  and  N_5
REMARK    5  A    between atoms: C_4  and  C_6
REMARK    6  A    between atoms: C_9  and  C_10
REMARK    7  A    between atoms: C_10  and  N_11
REMARK    8  A    between atoms: N_11  and  CA_12
REMARK    9  A    between atoms: CA_12  and  C_13
REMARK   10  A    between atoms: CA_12  and  C_15
REMARK   11  A    between atoms: C_13  and  O_14
REMARK   12  A    between atoms: C_22  and  C_24
REMARK                            x       y       z     vdW  Elec       q    Type
REMARK                         _______ _______ _______ _____ _____    ______ ____
ROOT
ATOM      1  C   UNL     1      51.720   8.080  14.798  0.00  0.00    +0.000 C 
ENDROOT
BRANCH   1   2
ATOM      2  C   UNL     1      50.334   8.005  14.214  0.00  0.00    +0.000 A 
ATOM      3  C   UNL     1      50.168   7.790  12.841  0.00  0.00    +0.000 A 
ATOM      4  C   UNL     1      48.890   7.736  12.295  0.00  0.00    +0.000 A 
ATOM      5  C   UNL     1      47.800   7.891  13.143  0.00  0.00    +0.000 A 
ATOM      6  N   UNL     1      47.933   8.085  14.477  0.00  0.00    +0.000 NA
ATOM      7  C   UNL     1      49.182   8.137  14.979  0.00  0.00    +0.000 A 
BRANCH   5   8
ATOM      8  C   UNL     1      46.385   7.770  12.617  0.00  0.00    +0.000 C 
BRANCH   8   9
ATOM      9  N   UNL     1      45.609   6.654  13.182  0.00  0.00    +0.000 NA
ATOM     10  H   UNL     1      44.692   6.653  12.732  0.00  0.00    +0.000 HD
BRANCH   9  11
ATOM     11  CA  UNL     1      46.204   5.312  12.918  0.00  0.00    +0.000 C 
BRANCH  11  12
ATOM     12  C   UNL     1      45.162   4.389  12.284  0.00  0.00    +0.000 A 
ATOM     13  N   UNL     1      44.461   3.499  12.963  0.00  0.00    +0.000 NA
ATOM     14  C   UNL     1      43.602   2.830  12.114  0.00  0.00    +0.000 A 
ATOM     15  C   UNL     1      43.667   3.196  10.788  0.00  0.00    +0.000 A 
ATOM     16  S   UNL     1      44.853   4.410  10.583  0.00  0.00    +0.000 S 
ENDBRANCH  11  12
BRANCH  11  17
ATOM     17  C   UNL     1      46.842   4.634  14.157  0.00  0.00    +0.000 C 
BRANCH  17  18
ATOM     18  O   UNL     1      47.210   3.272  13.917  0.00  0.00    +0.000 OA
ATOM     19  H   UNL     1      47.615   3.257  13.029  0.00  0.00    +0.000 HD
ENDBRANCH  17  18
ENDBRANCH  11  17
ENDBRANCH   9  11
ENDBRANCH   8   9
ENDBRANCH   5   8
ENDBRANCH   1   2
BRANCH   1  20
ATOM     20  N   UNL     1      52.702   8.067  13.702  0.00  0.00    +0.000 NA
ATOM     21  H   UNL     1      52.822   9.010  13.331  0.00  0.00    +0.000 HD
ATOM     22  H   UNL     1      52.372   7.491  12.930  0.00  0.00    +0.000 HD
ENDBRANCH   1  20
BRANCH   1  23
ATOM     23  C   UNL     1      52.052   6.995  15.864  0.00  0.00    +0.000 C 
BRANCH  23  25
ATOM     24  C   UNL     1      52.494   8.565  17.826  0.00  0.00    +0.000 C 
ATOM     25  N   UNL     1      51.968   7.309  17.300  0.00  0.00    +0.000 N 
ATOM     26  C   UNL     1      51.374   6.463  18.268  0.00  0.00    +0.000 C 
ATOM     27  O   UNL     1      51.307   6.810  19.443  0.00  0.00    +0.000 OA
BRANCH  26  28
ATOM     28  C   UNL     1      50.870   5.139  17.871  0.00  0.00    +0.000 A 
ATOM     29  C   UNL     1      51.647   3.998  17.762  0.00  0.00    +0.000 A 
ATOM     30  S   UNL     1      50.772   2.598  17.335  0.00  0.00    +0.000 S 
ATOM     31  C   UNL     1      49.296   3.432  17.446  0.00  0.00    +0.000 A 
ATOM     32  N   UNL     1      48.116   2.772  17.305  0.00  0.00    +0.000 NA
ATOM     33  C   UNL     1      47.074   3.516  17.484  0.00  0.00    +0.000 A 
ATOM     34  N   UNL     1      47.107   4.861  17.750  0.00  0.00    +0.000 N 
ATOM     35  C   UNL     1      48.277   5.591  17.770  0.00  0.00    +0.000 A 
ATOM     36  O   UNL     1      48.252   6.819  17.781  0.00  0.00    +0.000 OA
ATOM     37  C   UNL     1      49.478   4.780  17.698  0.00  0.00    +0.000 A 
ATOM     38  H   UNL     1      46.255   5.395  17.814  0.00  0.00    +0.000 HD
ENDBRANCH  26  28
ENDBRANCH  23  25
ENDBRANCH   1  23
TORSDOF 11
ENDMDL
MODEL 9
REMARK VINA RESULT:    -6.779      2.859      9.137
REMARK INTER + INTRA:         -11.716
REMARK INTER:                 -10.480
REMARK INTRA:                  -1.235
REMARK UNBOUND:                -0.973
REMARK  Name = 
REMARK  12 active torsions:
REMARK  status: ('A' for Active; 'I' for Inactive)
REMARK    1  A    between atoms: C_1  and  N_2
REMARK    2  A    between atoms: N_2  and  C_3
REMARK    3  A    between atoms: C_3  and  C_4
REMARK    4  A    between atoms: C_4  and  N_5
REMARK    5  A    between atoms: C_4  and  C_6
REMARK    6  A    between atoms: C_9  and  C_10
REMARK    7  A    between atoms: C_10  and  N_11
REMARK    8  A    between atoms: N_11  and  CA_12
REMARK    9  A    between atoms: CA_12  and  C_13
REMARK   10  A    between atoms: CA_12  and  C_15
REMARK   11  A    between atoms: C_13  and  O_14
REMARK   12  A    between atoms: C_22  and  C_24
REMARK                            x       y       z     vdW  Elec       q    Type
REMARK                         _______ _______ _______ _____ _____    ______ ____
ROOT
ATOM      1  C   UNL     1      46.760   4.637  14.208  0.00  0.00    +0.000 C 
ENDROOT
BRANCH   1   2
ATOM      2  C   UNL     1      47.553   4.734  15.485  0.00  0.00    +0.000 A 
ATOM      3  C   UNL     1      48.319   5.876  15.744  0.00  0.00    +0.000 A 
ATOM      4  C   UNL     1      49.065   5.963  16.914  0.00  0.00    +0.000 A 
ATOM      5  C   UNL     1      49.020   4.899  17.809  0.00  0.00    +0.000 A 
ATOM      6  N   UNL     1      48.275   3.790  17.588  0.00  0.00    +0.000 NA
ATOM      7  C   UNL     1      47.566   3.730  16.445  0.00  0.00    +0.000 A 
BRANCH   5   8
ATOM      8  C   UNL     1      49.755   4.967  19.131  0.00  0.00    +0.000 C 
BRANCH   8   9
ATOM      9  N   UNL     1      50.885   4.033  19.259  0.00  0.00    +0.000 NA
ATOM     10  H   UNL     1      50.990   3.547  18.367  0.00  0.00    +0.000 HD
BRANCH   9  11
ATOM     11  CA  UNL     1      52.192   4.701  19.525  0.00  0.00    +0.000 C 
BRANCH  11  12
ATOM     12  C   UNL     1      52.509   5.701  18.412  0.00  0.00    +0.000 A 
ATOM     13  N   UNL     1      52.696   5.357  17.150  0.00  0.00    +0.000 NA
ATOM     14  C   UNL     1      52.955   6.481  16.390  0.00  0.00    +0.000 A 
ATOM     15  C   UNL     1      52.988   7.673  17.078  0.00  0.00    +0.000 A 
ATOM     16  S   UNL     1      52.699   7.388  18.739  0.00  0.00    +0.000 S 
ENDBRANCH  11  12
BRANCH  11  17
ATOM     17  C   UNL     1      53.383   3.731  19.734  0.00  0.00    +0.000 C 
BRANCH  17  18
ATOM     18  O   UNL     1      53.103   2.403  19.279  0.00  0.00    +0.000 OA
ATOM     19  H   UNL     1      52.485   2.021  19.931  0.00  0.00    +0.000 HD
ENDBRANCH  17  18
ENDBRANCH  11  17
ENDBRANCH   9  11
ENDBRANCH   8   9
ENDBRANCH   5   8
ENDBRANCH   1   2
BRANCH   1  20
ATOM     20  N   UNL     1      46.841   3.259  13.699  0.00  0.00    +0.000 NA
ATOM     21  H   UNL     1      47.689   2.808  14.044  0.00  0.00    +0.000 HD
ATOM     22  H   UNL     1      46.905   3.254  12.682  0.00  0.00    +0.000 HD
ENDBRANCH   1  20
BRANCH   1  23
ATOM     23  C   UNL     1      47.147   5.667  13.107  0.00  0.00    +0.000 C 
BRANCH  23  25
ATOM     24  C   UNL     1      46.476   8.128  13.023  0.00  0.00    +0.000 C 
ATOM     25  N   UNL     1      46.203   6.728  12.713  0.00  0.00    +0.000 N 
ATOM     26  C   UNL     1      44.998   6.501  12.005  0.00  0.00    +0.000 C 
ATOM     27  O   UNL     1      44.281   7.440  11.678  0.00  0.00    +0.000 OA
BRANCH  26  28
ATOM     28  C   UNL     1      44.581   5.124  11.696  0.00  0.00    +0.000 A 
ATOM     29  C   UNL     1      43.762   4.348  12.499  0.00  0.00    +0.000 A 
ATOM     30  S   UNL     1      43.406   2.811  11.851  0.00  0.00    +0.000 S 
ATOM     31  C   UNL     1      44.195   3.192  10.395  0.00  0.00    +0.000 A 
ATOM     32  N   UNL     1      44.164   2.331   9.344  0.00  0.00    +0.000 NA
ATOM     33  C   UNL     1      44.744   2.779   8.280  0.00  0.00    +0.000 A 
ATOM     34  N   UNL     1      45.383   3.989   8.186  0.00  0.00    +0.000 N 
ATOM     35  C   UNL     1      45.551   4.832   9.264  0.00  0.00    +0.000 A 
ATOM     36  O   UNL     1      46.319   5.788   9.201  0.00  0.00    +0.000 OA
ATOM     37  C   UNL     1      44.812   4.430  10.447  0.00  0.00    +0.000 A 
ATOM     38  H   UNL     1      45.872   4.250   7.344  0.00  0.00    +0.000 HD
ENDBRANCH  26  28
ENDBRANCH  23  25
ENDBRANCH   1  23
TORSDOF 11
ENDMDL
