MODEL 1
REMARK VINA RESULT:    -8.310      0.000      0.000
REMARK INTER + INTRA:         -11.422
REMARK INTER:                 -10.739
REMARK INTRA:                  -0.683
REMARK UNBOUND:                -0.683
REMARK  Name = 
REMARK  5 active torsions:
REMARK  status: ('A' for Active; 'I' for Inactive)
REMARK    1  A    between atoms: C_2  and  C_4
REMARK    2  A    between atoms: C_7  and  S_8
REMARK    3  A    between atoms: S_8  and  C_9
REMARK    4  A    between atoms: C_9  and  C_10
REMARK    5  A    between atoms: C_12  and  C_13
REMARK                            x       y       z     vdW  Elec       q    Type
REMARK                         _______ _______ _______ _____ _____    ______ ____
ROOT
ATOM      1  C   UNL     1      44.090   3.584  12.195  0.00  0.00    +0.000 C 
ENDROOT
BRANCH   1   2
ATOM      2  C   UNL     1      45.272   4.324  12.779  0.00  0.00    +0.000 A 
ATOM      3  C   UNL     1      45.590   5.611  12.339  0.00  0.00    +0.000 A 
ATOM      4  C   UNL     1      46.659   6.320  12.910  0.00  0.00    +0.000 A 
ATOM      5  C   UNL     1      47.409   5.650  13.883  0.00  0.00    +0.000 A 
ATOM      6  C   UNL     1      47.063   4.354  14.235  0.00  0.00    +0.000 A 
ATOM      7  N   UNL     1      46.014   3.686  13.713  0.00  0.00    +0.000 NA
BRANCH   4   8
ATOM      8  C   UNL     1      46.952   7.715  12.509  0.00  0.00    +0.000 A 
ATOM      9  C   UNL     1      48.251   8.106  12.144  0.00  0.00    +0.000 A 
ATOM     10  C   UNL     1      48.498   9.423  11.788  0.00  0.00    +0.000 A 
ATOM     11  N   UNL     1      47.549  10.378  11.752  0.00  0.00    +0.000 NA
ATOM     12  C   UNL     1      46.302   9.997  12.090  0.00  0.00    +0.000 A 
ATOM     13  C   UNL     1      45.962   8.704  12.469  0.00  0.00    +0.000 A 
ENDBRANCH   4   8
ENDBRANCH   1   2
BRANCH   1  14
ATOM     14  S   UNL     1      43.487   4.334  10.631  0.00  0.00    +0.000 S 
BRANCH  14  18
ATOM     15  C   UNL     1      46.442   2.460   7.747  0.00  0.00    +0.000 A 
ATOM     16  C   UNL     1      46.308   3.848   7.765  0.00  0.00    +0.000 A 
ATOM     17  C   UNL     1      45.389   4.430   8.644  0.00  0.00    +0.000 A 
ATOM     18  C   UNL     1      44.634   3.609   9.478  0.00  0.00    +0.000 A 
ATOM     19  N   UNL     1      44.747   2.265   9.463  0.00  0.00    +0.000 NA
ATOM     20  C   UNL     1      45.630   1.718   8.592  0.00  0.00    +0.000 A 
BRANCH  15  22
ATOM     21  N   UNL     1      48.481   2.434   6.431  0.00  0.00    +0.000 N 
ATOM     22  C   UNL     1      47.391   1.739   6.877  0.00  0.00    +0.000 C 
ATOM     23  O   UNL     1      47.238   0.557   6.606  0.00  0.00    +0.000 OA
ATOM     24  H   UNL     1      49.183   1.890   5.944  0.00  0.00    +0.000 HD
ATOM     25  H   UNL     1      48.774   3.306   6.846  0.00  0.00    +0.000 HD
ENDBRANCH  15  22
ENDBRANCH  14  18
ENDBRANCH   1  14
TORSDOF 5
ENDMDL
MODEL 2
REMARK VINA RESULT:    -7.991      1.212      1.417
REMARK INTER + INTRA:         -11.010
REMARK INTER:                 -10.378
REMARK INTRA:                  -0.632
REMARK UNBOUND:                -0.683
REMARK  Name = 
REMARK  5 active torsions:
REMARK  status: ('A' for Active; 'I' for Inactive)
REMARK    1  A    between atoms: C_2  and  C_4
REMARK    2  A    between atoms: C_7  and  S_8
REMARK    3  A    between atoms: S_8  and  C_9
REMARK    4  A    between atoms: C_9  and  C_10
REMARK    5  A    between atoms: C_12  and  C_13
REMARK                            x       y       z     vdW  Elec       q    Type
REMARK                         _______ _______ _______ _____ _____    ______ ____
ROOT
ATOM      1  C   UNL     1      43.974   5.220  11.265  0.00  0.00    +0.000 C 
ENDROOT
BRANCH   1   2
ATOM      2  C   UNL     1      45.232   5.452  12.072  0.00  0.00    +0.000 A 
ATOM      3  C   UNL     1      46.175   6.394  11.657  0.00  0.00    +0.000 A 
ATOM      4  C   UNL     1      47.323   6.645  12.426  0.00  0.00    +0.000 A 
ATOM      5  C   UNL     1      47.491   5.868  13.578  0.00  0.00    +0.000 A 
ATOM      6  C   UNL     1      46.534   4.917  13.901  0.00  0.00    +0.000 A 
ATOM      7  N   UNL     1      45.413   4.700  13.182  0.00  0.00    +0.000 NA
BRANCH   4   8
ATOM      8  C   UNL     1      48.288   7.699  12.039  0.00  0.00    +0.000 A 
ATOM      9  C   UNL     1      49.630   7.389  11.767  0.00  0.00    +0.000 A 
ATOM     10  C   UNL     1      50.513   8.399  11.421  0.00  0.00    +0.000 A 
ATOM     11  N   UNL     1      50.161   9.695  11.310  0.00  0.00    +0.000 NA
ATOM     12  C   UNL     1      48.870   9.988  11.559  0.00  0.00    +0.000 A 
ATOM     13  C   UNL     1      47.916   9.045  11.921  0.00  0.00    +0.000 A 
ENDBRANCH   4   8
ENDBRANCH   1   2
BRANCH   1  14
ATOM     14  S   UNL     1      43.654   3.440  10.948  0.00  0.00    +0.000 S 
BRANCH  14  18
ATOM     15  C   UNL     1      46.497   2.724   7.489  0.00  0.00    +0.000 A 
ATOM     16  C   UNL     1      46.036   4.019   7.722  0.00  0.00    +0.000 A 
ATOM     17  C   UNL     1      45.149   4.243   8.781  0.00  0.00    +0.000 A 
ATOM     18  C   UNL     1      44.752   3.169   9.573  0.00  0.00    +0.000 A 
ATOM     19  N   UNL     1      45.183   1.910   9.350  0.00  0.00    +0.000 NA
ATOM     20  C   UNL     1      46.028   1.709   8.309  0.00  0.00    +0.000 A 
BRANCH  15  22
ATOM     21  N   UNL     1      47.385   3.107   5.263  0.00  0.00    +0.000 N 
ATOM     22  C   UNL     1      47.447   2.374   6.416  0.00  0.00    +0.000 C 
ATOM     23  O   UNL     1      48.290   1.501   6.567  0.00  0.00    +0.000 OA
ATOM     24  H   UNL     1      48.126   2.940   4.592  0.00  0.00    +0.000 HD
ATOM     25  H   UNL     1      46.900   3.991   5.208  0.00  0.00    +0.000 HD
ENDBRANCH  15  22
ENDBRANCH  14  18
ENDBRANCH   1  14
TORSDOF 5
ENDMDL
MODEL 3
REMARK VINA RESULT:    -7.981      2.017      3.937
REMARK INTER + INTRA:         -10.996
REMARK INTER:                 -10.493
REMARK INTRA:                  -0.503
REMARK UNBOUND:                -0.683
REMARK  Name = 
REMARK  5 active torsions:
REMARK  status: ('A' for Active; 'I' for Inactive)
REMARK    1  A    between atoms: C_2  and  C_4
REMARK    2  A    between atoms: C_7  and  S_8
REMARK    3  A    between atoms: S_8  and  C_9
REMARK    4  A    between atoms: C_9  and  C_10
REMARK    5  A    between atoms: C_12  and  C_13
REMARK                            x       y       z     vdW  Elec       q    Type
REMARK                         _______ _______ _______ _____ _____    ______ ____
ROOT
ATOM      1  C   UNL     1      44.298   4.002  11.968  0.00  0.00    +0.000 C 
ENDROOT
BRANCH   1   2
ATOM      2  C   UNL     1      45.445   4.785  12.568  0.00  0.00    +0.000 A 
ATOM      3  C   UNL     1      46.002   4.401  13.790  0.00  0.00    +0.000 A 
ATOM      4  C   UNL     1      47.096   5.098  14.329  0.00  0.00    +0.000 A 
ATOM      5  C   UNL     1      47.546   6.213  13.614  0.00  0.00    +0.000 A 
ATOM      6  C   UNL     1      46.911   6.562  12.430  0.00  0.00    +0.000 A 
ATOM      7  N   UNL     1      45.884   5.872  11.893  0.00  0.00    +0.000 NA
BRANCH   4   8
ATOM      8  C   UNL     1      47.745   4.649  15.582  0.00  0.00    +0.000 A 
ATOM      9  C   UNL     1      48.424   5.556  16.411  0.00  0.00    +0.000 A 
ATOM     10  C   UNL     1      49.036   5.104  17.570  0.00  0.00    +0.000 A 
ATOM     11  N   UNL     1      49.012   3.820  17.976  0.00  0.00    +0.000 NA
ATOM     12  C   UNL     1      48.348   2.954  17.185  0.00  0.00    +0.000 A 
ATOM     13  C   UNL     1      47.715   3.313  16.002  0.00  0.00    +0.000 A 
ENDBRANCH   4   8
ENDBRANCH   1   2
BRANCH   1  14
ATOM     14  S   UNL     1      43.727   4.698  10.369  0.00  0.00    +0.000 S 
BRANCH  14  18
ATOM     15  C   UNL     1      46.601   2.695   7.490  0.00  0.00    +0.000 A 
ATOM     16  C   UNL     1      45.899   1.903   8.398  0.00  0.00    +0.000 A 
ATOM     17  C   UNL     1      45.020   2.517   9.296  0.00  0.00    +0.000 A 
ATOM     18  C   UNL     1      44.869   3.901   9.259  0.00  0.00    +0.000 A 
ATOM     19  N   UNL     1      45.551   4.679   8.394  0.00  0.00    +0.000 NA
ATOM     20  C   UNL     1      46.412   4.067   7.542  0.00  0.00    +0.000 A 
BRANCH  15  22
ATOM     21  N   UNL     1      47.850   2.960   5.426  0.00  0.00    +0.000 N 
ATOM     22  C   UNL     1      47.538   2.155   6.486  0.00  0.00    +0.000 C 
ATOM     23  O   UNL     1      48.056   1.055   6.621  0.00  0.00    +0.000 OA
ATOM     24  H   UNL     1      48.589   2.626   4.819  0.00  0.00    +0.000 HD
ATOM     25  H   UNL     1      47.660   3.951   5.424  0.00  0.00    +0.000 HD
ENDBRANCH  15  22
ENDBRANCH  14  18
ENDBRANCH   1  14
TORSDOF 5
ENDMDL
MODEL 4
REMARK VINA RESULT:    -7.405      3.289      7.207
REMARK INTER + INTRA:         -10.253
REMARK INTER:                  -9.900
REMARK INTRA:                  -0.353
REMARK UNBOUND:                -0.683
REMARK  Name = 
REMARK  5 active torsions:
REMARK  status: ('A' for Active; 'I' for Inactive)
REMARK    1  A    between atoms: C_2  and  C_4
REMARK    2  A    between atoms: C_7  and  S_8
REMARK    3  A    between atoms: S_8  and  C_9
REMARK    4  A    between atoms: C_9  and  C_10
REMARK    5  A    between atoms: C_12  and  C_13
REMARK                            x       y       z     vdW  Elec       q    Type
REMARK                         _______ _______ _______ _____ _____    ______ ____
ROOT
ATOM      1  C   UNL     1      45.833   7.432  11.944  0.00  0.00    +0.000 C 
ENDROOT
BRANCH   1   2
ATOM      2  C   UNL     1      45.069   6.301  11.293  0.00  0.00    +0.000 A 
ATOM      3  C   UNL     1      45.670   5.516  10.308  0.00  0.00    +0.000 A 
ATOM      4  C   UNL     1      44.979   4.437   9.733  0.00  0.00    +0.000 A 
ATOM      5  C   UNL     1      43.660   4.238  10.153  0.00  0.00    +0.000 A 
ATOM      6  C   UNL     1      43.114   5.089  11.103  0.00  0.00    +0.000 A 
ATOM      7  N   UNL     1      43.788   6.104  11.682  0.00  0.00    +0.000 NA
BRANCH   4   8
ATOM      8  C   UNL     1      45.636   3.547   8.747  0.00  0.00    +0.000 A 
ATOM      9  C   UNL     1      45.607   2.152   8.899  0.00  0.00    +0.000 A 
ATOM     10  C   UNL     1      46.244   1.345   7.968  0.00  0.00    +0.000 A 
ATOM     11  N   UNL     1      46.895   1.820   6.889  0.00  0.00    +0.000 NA
ATOM     12  C   UNL     1      46.910   3.159   6.739  0.00  0.00    +0.000 A 
ATOM     13  C   UNL     1      46.309   4.045   7.624  0.00  0.00    +0.000 A 
ENDBRANCH   4   8
ENDBRANCH   1   2
BRANCH   1  14
ATOM     14  S   UNL     1      47.616   7.050  12.160  0.00  0.00    +0.000 S 
BRANCH  14  18
ATOM     15  C   UNL     1      47.477   4.358  15.806  0.00  0.00    +0.000 A 
ATOM     16  C   UNL     1      46.721   4.012  14.687  0.00  0.00    +0.000 A 
ATOM     17  C   UNL     1      46.751   4.846  13.564  0.00  0.00    +0.000 A 
ATOM     18  C   UNL     1      47.535   5.997  13.593  0.00  0.00    +0.000 A 
ATOM     19  N   UNL     1      48.261   6.348  14.674  0.00  0.00    +0.000 NA
ATOM     20  C   UNL     1      48.206   5.537  15.760  0.00  0.00    +0.000 A 
BRANCH  15  22
ATOM     21  N   UNL     1      48.731   3.508  17.702  0.00  0.00    +0.000 N 
ATOM     22  C   UNL     1      47.537   3.546  17.037  0.00  0.00    +0.000 C 
ATOM     23  O   UNL     1      46.549   2.973  17.473  0.00  0.00    +0.000 OA
ATOM     24  H   UNL     1      48.718   3.054  18.608  0.00  0.00    +0.000 HD
ATOM     25  H   UNL     1      49.471   4.170  17.526  0.00  0.00    +0.000 HD
ENDBRANCH  15  22
ENDBRANCH  14  18
ENDBRANCH   1  14
TORSDOF 5
ENDMDL
MODEL 5
REMARK VINA RESULT:    -6.424      3.196      7.016
REMARK INTER + INTRA:          -8.985
REMARK INTER:                  -8.409
REMARK INTRA:                  -0.575
REMARK UNBOUND:                -0.683
REMARK  Name = 
REMARK  5 active torsions:
REMARK  status: ('A' for Active; 'I' for Inactive)
REMARK    1  A    between atoms: C_2  and  C_4
REMARK    2  A    between atoms: C_7  and  S_8
REMARK    3  A    between atoms: S_8  and  C_9
REMARK    4  A    between atoms: C_9  and  C_10
REMARK    5  A    between atoms: C_12  and  C_13
REMARK                            x       y       z     vdW  Elec       q    Type
REMARK                         _______ _______ _______ _____ _____    ______ ____
ROOT
ATOM      1  C   UNL     1      44.131   6.167  12.372  0.00  0.00    +0.000 C 
ENDROOT
BRANCH   1   2
ATOM      2  C   UNL     1      44.081   4.805  11.717  0.00  0.00    +0.000 A 
ATOM      3  C   UNL     1      44.800   4.555  10.547  0.00  0.00    +0.000 A 
ATOM      4  C   UNL     1      44.792   3.279   9.960  0.00  0.00    +0.000 A 
ATOM      5  C   UNL     1      43.988   2.310  10.572  0.00  0.00    +0.000 A 
ATOM      6  C   UNL     1      43.264   2.646  11.706  0.00  0.00    +0.000 A 
ATOM      7  N   UNL     1      43.299   3.861  12.291  0.00  0.00    +0.000 NA
BRANCH   4   8
ATOM      8  C   UNL     1      45.616   2.981   8.767  0.00  0.00    +0.000 A 
ATOM      9  C   UNL     1      46.021   1.669   8.475  0.00  0.00    +0.000 A 
ATOM     10  C   UNL     1      46.805   1.423   7.358  0.00  0.00    +0.000 A 
ATOM     11  N   UNL     1      47.207   2.381   6.500  0.00  0.00    +0.000 NA
ATOM     12  C   UNL     1      46.806   3.637   6.777  0.00  0.00    +0.000 A 
ATOM     13  C   UNL     1      46.028   3.980   7.876  0.00  0.00    +0.000 A 
ENDBRANCH   4   8
ENDBRANCH   1   2
BRANCH   1  14
ATOM     14  S   UNL     1      45.071   7.394  11.382  0.00  0.00    +0.000 S 
BRANCH  14  18
ATOM     15  C   UNL     1      48.855   7.597  13.872  0.00  0.00    +0.000 A 
ATOM     16  C   UNL     1      47.805   8.462  14.174  0.00  0.00    +0.000 A 
ATOM     17  C   UNL     1      46.640   8.412  13.401  0.00  0.00    +0.000 A 
ATOM     18  C   UNL     1      46.560   7.500  12.352  0.00  0.00    +0.000 A 
ATOM     19  N   UNL     1      47.573   6.665  12.043  0.00  0.00    +0.000 NA
ATOM     20  C   UNL     1      48.701   6.740  12.792  0.00  0.00    +0.000 A 
BRANCH  15  22
ATOM     21  N   UNL     1      50.111   6.874  15.819  0.00  0.00    +0.000 N 
ATOM     22  C   UNL     1      50.121   7.548  14.629  0.00  0.00    +0.000 C 
ATOM     23  O   UNL     1      51.148   8.044  14.189  0.00  0.00    +0.000 OA
ATOM     24  H   UNL     1      51.014   6.742  16.259  0.00  0.00    +0.000 HD
ATOM     25  H   UNL     1      49.371   6.237  16.074  0.00  0.00    +0.000 HD
ENDBRANCH  15  22
ENDBRANCH  14  18
ENDBRANCH   1  14
TORSDOF 5
ENDMDL
MODEL 6
REMARK VINA RESULT:    -6.406      4.836      7.967
REMARK INTER + INTRA:          -8.961
REMARK INTER:                  -8.503
REMARK INTRA:                  -0.458
REMARK UNBOUND:                -0.683
REMARK  Name = 
REMARK  5 active torsions:
REMARK  status: ('A' for Active; 'I' for Inactive)
REMARK    1  A    between atoms: C_2  and  C_4
REMARK    2  A    between atoms: C_7  and  S_8
REMARK    3  A    between atoms: S_8  and  C_9
REMARK    4  A    between atoms: C_9  and  C_10
REMARK    5  A    between atoms: C_12  and  C_13
REMARK                            x       y       z     vdW  Elec       q    Type
REMARK                         _______ _______ _______ _____ _____    ______ ____
ROOT
ATOM      1  C   UNL     1      48.638   6.280  15.778  0.00  0.00    +0.000 C 
ENDROOT
BRANCH   1   2
ATOM      2  C   UNL     1      48.127   6.384  14.358  0.00  0.00    +0.000 A 
ATOM      3  C   UNL     1      47.031   5.627  13.943  0.00  0.00    +0.000 A 
ATOM      4  C   UNL     1      46.525   5.754  12.639  0.00  0.00    +0.000 A 
ATOM      5  C   UNL     1      47.209   6.621  11.780  0.00  0.00    +0.000 A 
ATOM      6  C   UNL     1      48.321   7.305  12.250  0.00  0.00    +0.000 A 
ATOM      7  N   UNL     1      48.786   7.211  13.513  0.00  0.00    +0.000 NA
BRANCH   4   8
ATOM      8  C   UNL     1      45.313   5.017  12.214  0.00  0.00    +0.000 A 
ATOM      9  C   UNL     1      44.181   5.698  11.737  0.00  0.00    +0.000 A 
ATOM     10  C   UNL     1      43.055   4.982  11.361  0.00  0.00    +0.000 A 
ATOM     11  N   UNL     1      42.973   3.638  11.409  0.00  0.00    +0.000 NA
ATOM     12  C   UNL     1      44.065   2.987  11.855  0.00  0.00    +0.000 A 
ATOM     13  C   UNL     1      45.233   3.619  12.262  0.00  0.00    +0.000 A 
ENDBRANCH   4   8
ENDBRANCH   1   2
BRANCH   1  14
ATOM     14  S   UNL     1      47.867   4.898  16.708  0.00  0.00    +0.000 S 
BRANCH  14  18
ATOM     15  C   UNL     1      51.493   2.316  17.568  0.00  0.00    +0.000 A 
ATOM     16  C   UNL     1      51.576   3.689  17.798  0.00  0.00    +0.000 A 
ATOM     17  C   UNL     1      50.464   4.492  17.522  0.00  0.00    +0.000 A 
ATOM     18  C   UNL     1      49.305   3.899  17.028  0.00  0.00    +0.000 A 
ATOM     19  N   UNL     1      49.216   2.574  16.791  0.00  0.00    +0.000 NA
ATOM     20  C   UNL     1      50.310   1.815  17.047  0.00  0.00    +0.000 A 
BRANCH  15  22
ATOM     21  N   UNL     1      52.252   0.107  18.228  0.00  0.00    +0.000 N 
ATOM     22  C   UNL     1      52.595   1.373  17.839  0.00  0.00    +0.000 C 
ATOM     23  O   UNL     1      53.764   1.690  17.675  0.00  0.00    +0.000 OA
ATOM     24  H   UNL     1      53.012  -0.560  18.284  0.00  0.00    +0.000 HD
ATOM     25  H   UNL     1      51.319  -0.261  18.112  0.00  0.00    +0.000 HD
ENDBRANCH  15  22
ENDBRANCH  14  18
ENDBRANCH   1  14
TORSDOF 5
ENDMDL
MODEL 7
REMARK VINA RESULT:    -6.261      3.693      7.590
REMARK INTER + INTRA:          -8.774
REMARK INTER:                  -8.508
REMARK INTRA:                  -0.266
REMARK UNBOUND:                -0.683
REMARK  Name = 
REMARK  5 active torsions:
REMARK  status: ('A' for Active; 'I' for Inactive)
REMARK    1  A    between atoms: C_2  and  C_4
REMARK    2  A    between atoms: C_7  and  S_8
REMARK    3  A    between atoms: S_8  and  C_9
REMARK    4  A    between atoms: C_9  and  C_10
REMARK    5  A    between atoms: C_12  and  C_13
REMARK                            x       y       z     vdW  Elec       q    Type
REMARK                         _______ _______ _______ _____ _____    ______ ____
ROOT
ATOM      1  C   UNL     1      49.031   7.585  12.941  0.00  0.00    +0.000 C 
ENDROOT
BRANCH   1   2
ATOM      2  C   UNL     1      47.589   7.591  12.484  0.00  0.00    +0.000 A 
ATOM      3  C   UNL     1      47.005   6.432  11.970  0.00  0.00    +0.000 A 
ATOM      4  C   UNL     1      45.655   6.420  11.586  0.00  0.00    +0.000 A 
ATOM      5  C   UNL     1      44.960   7.631  11.691  0.00  0.00    +0.000 A 
ATOM      6  C   UNL     1      45.621   8.754  12.167  0.00  0.00    +0.000 A 
ATOM      7  N   UNL     1      46.908   8.757  12.570  0.00  0.00    +0.000 NA
BRANCH   4   8
ATOM      8  C   UNL     1      45.004   5.176  11.117  0.00  0.00    +0.000 A 
ATOM      9  C   UNL     1      45.157   4.733   9.793  0.00  0.00    +0.000 A 
ATOM     10  C   UNL     1      44.523   3.571   9.379  0.00  0.00    +0.000 A 
ATOM     11  N   UNL     1      43.759   2.808  10.184  0.00  0.00    +0.000 NA
ATOM     12  C   UNL     1      43.624   3.230  11.457  0.00  0.00    +0.000 A 
ATOM     13  C   UNL     1      44.213   4.384  11.959  0.00  0.00    +0.000 A 
ENDBRANCH   4   8
ENDBRANCH   1   2
BRANCH   1  14
ATOM     14  S   UNL     1      49.245   8.297  14.620  0.00  0.00    +0.000 S 
BRANCH  14  18
ATOM     15  C   UNL     1      48.035   4.718  17.127  0.00  0.00    +0.000 A 
ATOM     16  C   UNL     1      48.624   5.812  17.759  0.00  0.00    +0.000 A 
ATOM     17  C   UNL     1      49.011   6.914  16.988  0.00  0.00    +0.000 A 
ATOM     18  C   UNL     1      48.795   6.889  15.612  0.00  0.00    +0.000 A 
ATOM     19  N   UNL     1      48.236   5.832  14.988  0.00  0.00    +0.000 NA
ATOM     20  C   UNL     1      47.884   4.766  15.749  0.00  0.00    +0.000 A 
BRANCH  15  22
ATOM     21  N   UNL     1      48.248   3.159  18.975  0.00  0.00    +0.000 N 
ATOM     22  C   UNL     1      47.571   3.512  17.840  0.00  0.00    +0.000 C 
ATOM     23  O   UNL     1      46.593   2.883  17.463  0.00  0.00    +0.000 OA
ATOM     24  H   UNL     1      47.838   2.409  19.518  0.00  0.00    +0.000 HD
ATOM     25  H   UNL     1      48.871   3.793  19.453  0.00  0.00    +0.000 HD
ENDBRANCH  15  22
ENDBRANCH  14  18
ENDBRANCH   1  14
TORSDOF 5
ENDMDL
MODEL 8
REMARK VINA RESULT:    -5.694      1.798      2.934
REMARK INTER + INTRA:          -8.042
REMARK INTER:                  -7.559
REMARK INTRA:                  -0.483
REMARK UNBOUND:                -0.683
REMARK  Name = 
REMARK  5 active torsions:
REMARK  status: ('A' for Active; 'I' for Inactive)
REMARK    1  A    between atoms: C_2  and  C_4
REMARK    2  A    between atoms: C_7  and  S_8
REMARK    3  A    between atoms: S_8  and  C_9
REMARK    4  A    between atoms: C_9  and  C_10
REMARK    5  A    between atoms: C_12  and  C_13
REMARK                            x       y       z     vdW  Elec       q    Type
REMARK                         _______ _______ _______ _____ _____    ______ ____
ROOT
ATOM      1  C   UNL     1      45.859   5.629  12.052  0.00  0.00    +0.000 C 
ENDROOT
BRANCH   1   2
ATOM      2  C   UNL     1      46.040   7.131  12.040  0.00  0.00    +0.000 A 
ATOM      3  C   UNL     1      47.314   7.691  12.151  0.00  0.00    +0.000 A 
ATOM      4  C   UNL     1      47.491   9.083  12.096  0.00  0.00    +0.000 A 
ATOM      5  C   UNL     1      46.333   9.861  11.987  0.00  0.00    +0.000 A 
ATOM      6  C   UNL     1      45.097   9.234  11.930  0.00  0.00    +0.000 A 
ATOM      7  N   UNL     1      44.928   7.896  11.946  0.00  0.00    +0.000 NA
BRANCH   4   8
ATOM      8  C   UNL     1      48.845   9.683  12.130  0.00  0.00    +0.000 A 
ATOM      9  C   UNL     1      49.654   9.581  13.272  0.00  0.00    +0.000 A 
ATOM     10  C   UNL     1      50.911  10.166  13.279  0.00  0.00    +0.000 A 
ATOM     11  N   UNL     1      51.431  10.834  12.231  0.00  0.00    +0.000 NA
ATOM     12  C   UNL     1      50.656  10.919  11.132  0.00  0.00    +0.000 A 
ATOM     13  C   UNL     1      49.382  10.373  11.036  0.00  0.00    +0.000 A 
ENDBRANCH   4   8
ENDBRANCH   1   2
BRANCH   1  14
ATOM     14  S   UNL     1      44.369   5.088  11.126  0.00  0.00    +0.000 S 
BRANCH  14  18
ATOM     15  C   UNL     1      46.366   3.212   7.514  0.00  0.00    +0.000 A 
ATOM     16  C   UNL     1      46.554   4.573   7.753  0.00  0.00    +0.000 A 
ATOM     17  C   UNL     1      45.929   5.159   8.860  0.00  0.00    +0.000 A 
ATOM     18  C   UNL     1      45.140   4.369   9.692  0.00  0.00    +0.000 A 
ATOM     19  N   UNL     1      44.942   3.054   9.464  0.00  0.00    +0.000 NA
ATOM     20  C   UNL     1      45.541   2.507   8.377  0.00  0.00    +0.000 A 
BRANCH  15  22
ATOM     21  N   UNL     1      48.141   1.797   6.654  0.00  0.00    +0.000 N 
ATOM     22  C   UNL     1      46.989   2.485   6.390  0.00  0.00    +0.000 C 
ATOM     23  O   UNL     1      46.471   2.454   5.283  0.00  0.00    +0.000 OA
ATOM     24  H   UNL     1      48.482   1.203   5.908  0.00  0.00    +0.000 HD
ATOM     25  H   UNL     1      48.441   1.581   7.593  0.00  0.00    +0.000 HD
ENDBRANCH  15  22
ENDBRANCH  14  18
ENDBRANCH   1  14
TORSDOF 5
ENDMDL
