MODEL 1
REMARK VINA RESULT:    -7.836      0.000      0.000
REMARK INTER + INTRA:         -11.201
REMARK INTER:                 -10.356
REMARK INTRA:                  -0.845
REMARK UNBOUND:                -0.845
REMARK  Name = 
REMARK  7 active torsions:
REMARK  status: ('A' for Active; 'I' for Inactive)
REMARK    1  A    between atoms: C_1  and  C_2
REMARK    2  A    between atoms: C_2  and  C_3
REMARK    3  A    between atoms: C_2  and  C_14
REMARK    4  A    between atoms: C_3  and  O_4
REMARK    5  A    between atoms: O_4  and  C_5
REMARK    6  A    between atoms: C_8  and  C_9
REMARK    7  A    between atoms: C_9  and  O_11
REMARK                            x       y       z     vdW  Elec       q    Type
REMARK                         _______ _______ _______ _____ _____    ______ ____
ROOT
ATOM      1  O   UNL     1      43.545   3.423  10.194  0.00  0.00    +0.000 OA
ENDROOT
BRANCH   1   2
ATOM      2  C   UNL     1      44.542   3.086   9.319  0.00  0.00    +0.000 A 
ATOM      3  C   UNL     1      45.059   1.799   9.158  0.00  0.00    +0.000 A 
ATOM      4  C   UNL     1      46.052   1.552   8.205  0.00  0.00    +0.000 A 
ATOM      5  C   UNL     1      46.546   2.598   7.418  0.00  0.00    +0.000 A 
ATOM      6  C   UNL     1      46.009   3.883   7.562  0.00  0.00    +0.000 A 
ATOM      7  C   UNL     1      45.008   4.121   8.507  0.00  0.00    +0.000 A 
BRANCH   5   8
ATOM      8  C   UNL     1      47.585   2.378   6.379  0.00  0.00    +0.000 C 
ATOM      9  O   UNL     1      48.425   1.500   6.461  0.00  0.00    +0.000 OA
BRANCH   8  10
ATOM     10  O   UNL     1      47.496   3.215   5.322  0.00  0.00    +0.000 OA
ATOM     11  H   UNL     1      47.330   4.149   5.541  0.00  0.00    +0.000 HD
ENDBRANCH   8  10
ENDBRANCH   5   8
ENDBRANCH   1   2
BRANCH   1  12
ATOM     12  C   UNL     1      43.822   3.159  11.570  0.00  0.00    +0.000 C 
BRANCH  12  14
ATOM     13  C   UNL     1      42.644   5.229  12.521  0.00  0.00    +0.000 C 
ATOM     14  C   UNL     1      43.910   4.464  12.299  0.00  0.00    +0.000 C 
BRANCH  14  15
ATOM     15  C   UNL     1      45.216   5.100  12.528  0.00  0.00    +0.000 A 
ATOM     16  C   UNL     1      45.977   4.791  13.662  0.00  0.00    +0.000 A 
ATOM     17  C   UNL     1      47.229   5.381  13.861  0.00  0.00    +0.000 A 
ATOM     18  C   UNL     1      47.728   6.294  12.935  0.00  0.00    +0.000 A 
ATOM     19  C   UNL     1      46.978   6.615  11.806  0.00  0.00    +0.000 A 
ATOM     20  C   UNL     1      45.731   6.019  11.604  0.00  0.00    +0.000 A 
ENDBRANCH  14  15
ENDBRANCH  12  14
ENDBRANCH   1  12
TORSDOF 6
ENDMDL
MODEL 2
REMARK VINA RESULT:    -7.564      1.327      2.316
REMARK INTER + INTRA:         -10.841
REMARK INTER:                 -10.119
REMARK INTRA:                  -0.722
REMARK UNBOUND:                -0.845
REMARK  Name = 
REMARK  7 active torsions:
REMARK  status: ('A' for Active; 'I' for Inactive)
REMARK    1  A    between atoms: C_1  and  C_2
REMARK    2  A    between atoms: C_2  and  C_3
REMARK    3  A    between atoms: C_2  and  C_14
REMARK    4  A    between atoms: C_3  and  O_4
REMARK    5  A    between atoms: O_4  and  C_5
REMARK    6  A    between atoms: C_8  and  C_9
REMARK    7  A    between atoms: C_9  and  O_11
REMARK                            x       y       z     vdW  Elec       q    Type
REMARK                         _______ _______ _______ _____ _____    ______ ____
ROOT
ATOM      1  O   UNL     1      43.770   4.684   9.834  0.00  0.00    +0.000 OA
ENDROOT
BRANCH   1   2
ATOM      2  C   UNL     1      44.615   3.862   9.140  0.00  0.00    +0.000 A 
ATOM      3  C   UNL     1      45.629   4.299   8.287  0.00  0.00    +0.000 A 
ATOM      4  C   UNL     1      46.467   3.376   7.654  0.00  0.00    +0.000 A 
ATOM      5  C   UNL     1      46.282   2.004   7.860  0.00  0.00    +0.000 A 
ATOM      6  C   UNL     1      45.281   1.566   8.735  0.00  0.00    +0.000 A 
ATOM      7  C   UNL     1      44.455   2.495   9.375  0.00  0.00    +0.000 A 
BRANCH   5   8
ATOM      8  C   UNL     1      47.160   0.987   7.225  0.00  0.00    +0.000 C 
ATOM      9  O   UNL     1      47.968   1.263   6.356  0.00  0.00    +0.000 OA
BRANCH   8  10
ATOM     10  O   UNL     1      47.009  -0.260   7.720  0.00  0.00    +0.000 OA
ATOM     11  H   UNL     1      47.800  -0.826   7.680  0.00  0.00    +0.000 HD
ENDBRANCH   8  10
ENDBRANCH   5   8
ENDBRANCH   1   2
BRANCH   1  12
ATOM     12  C   UNL     1      43.678   4.427  11.236  0.00  0.00    +0.000 C 
BRANCH  12  14
ATOM     13  C   UNL     1      45.654   3.607  12.651  0.00  0.00    +0.000 C 
ATOM     14  C   UNL     1      45.012   4.702  11.860  0.00  0.00    +0.000 C 
BRANCH  14  15
ATOM     15  C   UNL     1      45.527   6.077  11.934  0.00  0.00    +0.000 A 
ATOM     16  C   UNL     1      44.663   7.175  11.846  0.00  0.00    +0.000 A 
ATOM     17  C   UNL     1      45.157   8.480  11.941  0.00  0.00    +0.000 A 
ATOM     18  C   UNL     1      46.521   8.701  12.113  0.00  0.00    +0.000 A 
ATOM     19  C   UNL     1      47.393   7.618  12.194  0.00  0.00    +0.000 A 
ATOM     20  C   UNL     1      46.898   6.315  12.107  0.00  0.00    +0.000 A 
ENDBRANCH  14  15
ENDBRANCH  12  14
ENDBRANCH   1  12
TORSDOF 6
ENDMDL
MODEL 3
REMARK VINA RESULT:    -7.058      2.820      5.638
REMARK INTER + INTRA:         -10.173
REMARK INTER:                  -9.103
REMARK INTRA:                  -1.070
REMARK UNBOUND:                -0.845
REMARK  Name = 
REMARK  7 active torsions:
REMARK  status: ('A' for Active; 'I' for Inactive)
REMARK    1  A    between atoms: C_1  and  C_2
REMARK    2  A    between atoms: C_2  and  C_3
REMARK    3  A    between atoms: C_2  and  C_14
REMARK    4  A    between atoms: C_3  and  O_4
REMARK    5  A    between atoms: O_4  and  C_5
REMARK    6  A    between atoms: C_8  and  C_9
REMARK    7  A    between atoms: C_9  and  O_11
REMARK                            x       y       z     vdW  Elec       q    Type
REMARK                         _______ _______ _______ _____ _____    ______ ____
ROOT
ATOM      1  O   UNL     1      43.707   5.514  12.236  0.00  0.00    +0.000 OA
ENDROOT
BRANCH   1   2
ATOM      2  C   UNL     1      45.024   5.834  12.427  0.00  0.00    +0.000 A 
ATOM      3  C   UNL     1      45.873   5.203  13.337  0.00  0.00    +0.000 A 
ATOM      4  C   UNL     1      47.217   5.578  13.427  0.00  0.00    +0.000 A 
ATOM      5  C   UNL     1      47.716   6.602  12.614  0.00  0.00    +0.000 A 
ATOM      6  C   UNL     1      46.870   7.218  11.683  0.00  0.00    +0.000 A 
ATOM      7  C   UNL     1      45.531   6.829  11.589  0.00  0.00    +0.000 A 
BRANCH   5   8
ATOM      8  C   UNL     1      49.141   7.021  12.660  0.00  0.00    +0.000 C 
ATOM      9  O   UNL     1      49.705   7.548  11.718  0.00  0.00    +0.000 OA
BRANCH   8  10
ATOM     10  O   UNL     1      49.744   6.796  13.848  0.00  0.00    +0.000 OA
ATOM     11  H   UNL     1      49.514   7.420  14.559  0.00  0.00    +0.000 HD
ENDBRANCH   8  10
ENDBRANCH   5   8
ENDBRANCH   1   2
BRANCH   1  12
ATOM     12  C   UNL     1      43.347   5.176  10.896  0.00  0.00    +0.000 C 
BRANCH  12  14
ATOM     13  C   UNL     1      43.354   2.734  11.682  0.00  0.00    +0.000 C 
ATOM     14  C   UNL     1      43.723   3.747  10.646  0.00  0.00    +0.000 C 
BRANCH  14  15
ATOM     15  C   UNL     1      44.666   3.406   9.571  0.00  0.00    +0.000 A 
ATOM     16  C   UNL     1      45.265   4.405   8.794  0.00  0.00    +0.000 A 
ATOM     17  C   UNL     1      46.179   4.075   7.789  0.00  0.00    +0.000 A 
ATOM     18  C   UNL     1      46.496   2.741   7.543  0.00  0.00    +0.000 A 
ATOM     19  C   UNL     1      45.903   1.736   8.303  0.00  0.00    +0.000 A 
ATOM     20  C   UNL     1      44.995   2.068   9.312  0.00  0.00    +0.000 A 
ENDBRANCH  14  15
ENDBRANCH  12  14
ENDBRANCH   1  12
TORSDOF 6
ENDMDL
MODEL 4
REMARK VINA RESULT:    -7.000      2.554      6.100
REMARK INTER + INTRA:         -10.096
REMARK INTER:                  -9.450
REMARK INTRA:                  -0.645
REMARK UNBOUND:                -0.845
REMARK  Name = 
REMARK  7 active torsions:
REMARK  status: ('A' for Active; 'I' for Inactive)
REMARK    1  A    between atoms: C_1  and  C_2
REMARK    2  A    between atoms: C_2  and  C_3
REMARK    3  A    between atoms: C_2  and  C_14
REMARK    4  A    between atoms: C_3  and  O_4
REMARK    5  A    between atoms: O_4  and  C_5
REMARK    6  A    between atoms: C_8  and  C_9
REMARK    7  A    between atoms: C_9  and  O_11
REMARK                            x       y       z     vdW  Elec       q    Type
REMARK                         _______ _______ _______ _____ _____    ______ ____
ROOT
ATOM      1  O   UNL     1      43.848   4.763  10.697  0.00  0.00    +0.000 OA
ENDROOT
BRANCH   1   2
ATOM      2  C   UNL     1      44.856   5.180  11.524  0.00  0.00    +0.000 A 
ATOM      3  C   UNL     1      45.095   4.679  12.804  0.00  0.00    +0.000 A 
ATOM      4  C   UNL     1      46.178   5.145  13.555  0.00  0.00    +0.000 A 
ATOM      5  C   UNL     1      47.022   6.131  13.032  0.00  0.00    +0.000 A 
ATOM      6  C   UNL     1      46.797   6.616  11.738  0.00  0.00    +0.000 A 
ATOM      7  C   UNL     1      45.720   6.137  10.988  0.00  0.00    +0.000 A 
BRANCH   5   8
ATOM      8  C   UNL     1      48.197   6.642  13.784  0.00  0.00    +0.000 C 
ATOM      9  O   UNL     1      49.319   6.678  13.311  0.00  0.00    +0.000 OA
BRANCH   8  10
ATOM     10  O   UNL     1      47.906   7.094  15.024  0.00  0.00    +0.000 OA
ATOM     11  H   UNL     1      48.371   7.905  15.294  0.00  0.00    +0.000 HD
ENDBRANCH   8  10
ENDBRANCH   5   8
ENDBRANCH   1   2
BRANCH   1  12
ATOM     12  C   UNL     1      44.225   4.534   9.339  0.00  0.00    +0.000 C 
BRANCH  12  14
ATOM     13  C   UNL     1      44.124   2.130  10.227  0.00  0.00    +0.000 C 
ATOM     14  C   UNL     1      44.596   3.091   9.183  0.00  0.00    +0.000 C 
BRANCH  14  15
ATOM     15  C   UNL     1      45.618   2.689   8.206  0.00  0.00    +0.000 A 
ATOM     16  C   UNL     1      46.180   1.406   8.238  0.00  0.00    +0.000 A 
ATOM     17  C   UNL     1      47.134   1.022   7.291  0.00  0.00    +0.000 A 
ATOM     18  C   UNL     1      47.545   1.920   6.308  0.00  0.00    +0.000 A 
ATOM     19  C   UNL     1      47.001   3.201   6.270  0.00  0.00    +0.000 A 
ATOM     20  C   UNL     1      46.041   3.581   7.212  0.00  0.00    +0.000 A 
ENDBRANCH  14  15
ENDBRANCH  12  14
ENDBRANCH   1  12
TORSDOF 6
ENDMDL
MODEL 5
REMARK VINA RESULT:    -6.131      3.115      6.535
REMARK INTER + INTRA:          -8.947
REMARK INTER:                  -8.506
REMARK INTRA:                  -0.441
REMARK UNBOUND:                -0.845
REMARK  Name = 
REMARK  7 active torsions:
REMARK  status: ('A' for Active; 'I' for Inactive)
REMARK    1  A    between atoms: C_1  and  C_2
REMARK    2  A    between atoms: C_2  and  C_3
REMARK    3  A    between atoms: C_2  and  C_14
REMARK    4  A    between atoms: C_3  and  O_4
REMARK    5  A    between atoms: O_4  and  C_5
REMARK    6  A    between atoms: C_8  and  C_9
REMARK    7  A    between atoms: C_9  and  O_11
REMARK                            x       y       z     vdW  Elec       q    Type
REMARK                         _______ _______ _______ _____ _____    ______ ____
ROOT
ATOM      1  O   UNL     1      46.260   5.878  11.248  0.00  0.00    +0.000 OA
ENDROOT
BRANCH   1   2
ATOM      2  C   UNL     1      46.628   5.563  12.527  0.00  0.00    +0.000 A 
ATOM      3  C   UNL     1      46.304   4.372  13.179  0.00  0.00    +0.000 A 
ATOM      4  C   UNL     1      46.764   4.128  14.476  0.00  0.00    +0.000 A 
ATOM      5  C   UNL     1      47.542   5.086  15.136  0.00  0.00    +0.000 A 
ATOM      6  C   UNL     1      47.889   6.270  14.473  0.00  0.00    +0.000 A 
ATOM      7  C   UNL     1      47.436   6.501  13.172  0.00  0.00    +0.000 A 
BRANCH   5   8
ATOM      8  C   UNL     1      48.071   4.863  16.507  0.00  0.00    +0.000 C 
ATOM      9  O   UNL     1      49.203   4.469  16.721  0.00  0.00    +0.000 OA
BRANCH   8  10
ATOM     10  O   UNL     1      47.198   5.167  17.492  0.00  0.00    +0.000 OA
ATOM     11  H   UNL     1      46.323   5.473  17.196  0.00  0.00    +0.000 HD
ENDBRANCH   8  10
ENDBRANCH   5   8
ENDBRANCH   1   2
BRANCH   1  12
ATOM     12  C   UNL     1      44.863   6.104  11.050  0.00  0.00    +0.000 C 
BRANCH  12  14
ATOM     13  C   UNL     1      43.050   4.309  11.313  0.00  0.00    +0.000 C 
ATOM     14  C   UNL     1      44.237   4.832  10.568  0.00  0.00    +0.000 C 
BRANCH  14  15
ATOM     15  C   UNL     1      44.934   3.987   9.587  0.00  0.00    +0.000 A 
ATOM     16  C   UNL     1      44.906   2.591   9.691  0.00  0.00    +0.000 A 
ATOM     17  C   UNL     1      45.550   1.793   8.741  0.00  0.00    +0.000 A 
ATOM     18  C   UNL     1      46.239   2.382   7.683  0.00  0.00    +0.000 A 
ATOM     19  C   UNL     1      46.282   3.770   7.572  0.00  0.00    +0.000 A 
ATOM     20  C   UNL     1      45.630   4.566   8.518  0.00  0.00    +0.000 A 
ENDBRANCH  14  15
ENDBRANCH  12  14
ENDBRANCH   1  12
TORSDOF 6
ENDMDL
MODEL 6
REMARK VINA RESULT:    -5.804      3.498      6.383
REMARK INTER + INTRA:          -8.515
REMARK INTER:                  -7.794
REMARK INTRA:                  -0.721
REMARK UNBOUND:                -0.845
REMARK  Name = 
REMARK  7 active torsions:
REMARK  status: ('A' for Active; 'I' for Inactive)
REMARK    1  A    between atoms: C_1  and  C_2
REMARK    2  A    between atoms: C_2  and  C_3
REMARK    3  A    between atoms: C_2  and  C_14
REMARK    4  A    between atoms: C_3  and  O_4
REMARK    5  A    between atoms: O_4  and  C_5
REMARK    6  A    between atoms: C_8  and  C_9
REMARK    7  A    between atoms: C_9  and  O_11
REMARK                            x       y       z     vdW  Elec       q    Type
REMARK                         _______ _______ _______ _____ _____    ______ ____
ROOT
ATOM      1  O   UNL     1      46.134   5.193  12.579  0.00  0.00    +0.000 OA
ENDROOT
BRANCH   1   2
ATOM      2  C   UNL     1      46.441   6.522  12.466  0.00  0.00    +0.000 A 
ATOM      3  C   UNL     1      45.609   7.568  12.868  0.00  0.00    +0.000 A 
ATOM      4  C   UNL     1      46.034   8.895  12.747  0.00  0.00    +0.000 A 
ATOM      5  C   UNL     1      47.293   9.182  12.206  0.00  0.00    +0.000 A 
ATOM      6  C   UNL     1      48.137   8.131  11.826  0.00  0.00    +0.000 A 
ATOM      7  C   UNL     1      47.711   6.807  11.962  0.00  0.00    +0.000 A 
BRANCH   5   8
ATOM      8  C   UNL     1      47.794  10.575  12.077  0.00  0.00    +0.000 C 
ATOM      9  O   UNL     1      48.212  11.031  11.028  0.00  0.00    +0.000 OA
BRANCH   8  10
ATOM     10  O   UNL     1      47.715  11.298  13.215  0.00  0.00    +0.000 OA
ATOM     11  H   UNL     1      48.314  12.063  13.267  0.00  0.00    +0.000 HD
ENDBRANCH   8  10
ENDBRANCH   5   8
ENDBRANCH   1   2
BRANCH   1  12
ATOM     12  C   UNL     1      44.751   4.899  12.781  0.00  0.00    +0.000 C 
BRANCH  12  14
ATOM     13  C   UNL     1      42.669   5.493  11.406  0.00  0.00    +0.000 C 
ATOM     14  C   UNL     1      44.056   4.936  11.454  0.00  0.00    +0.000 C 
BRANCH  14  15
ATOM     15  C   UNL     1      44.602   4.194  10.309  0.00  0.00    +0.000 A 
ATOM     16  C   UNL     1      44.417   2.810  10.193  0.00  0.00    +0.000 A 
ATOM     17  C   UNL     1      44.918   2.114   9.090  0.00  0.00    +0.000 A 
ATOM     18  C   UNL     1      45.621   2.792   8.095  0.00  0.00    +0.000 A 
ATOM     19  C   UNL     1      45.819   4.166   8.201  0.00  0.00    +0.000 A 
ATOM     20  C   UNL     1      45.310   4.861   9.301  0.00  0.00    +0.000 A 
ENDBRANCH  14  15
ENDBRANCH  12  14
ENDBRANCH   1  12
TORSDOF 6
ENDMDL
MODEL 7
REMARK VINA RESULT:    -5.670      3.935      6.281
REMARK INTER + INTRA:          -8.338
REMARK INTER:                  -7.843
REMARK INTRA:                  -0.495
REMARK UNBOUND:                -0.845
REMARK  Name = 
REMARK  7 active torsions:
REMARK  status: ('A' for Active; 'I' for Inactive)
REMARK    1  A    between atoms: C_1  and  C_2
REMARK    2  A    between atoms: C_2  and  C_3
REMARK    3  A    between atoms: C_2  and  C_14
REMARK    4  A    between atoms: C_3  and  O_4
REMARK    5  A    between atoms: O_4  and  C_5
REMARK    6  A    between atoms: C_8  and  C_9
REMARK    7  A    between atoms: C_9  and  O_11
REMARK                            x       y       z     vdW  Elec       q    Type
REMARK                         _______ _______ _______ _____ _____    ______ ____
ROOT
ATOM      1  O   UNL     1      47.794   4.997  15.022  0.00  0.00    +0.000 OA
ENDROOT
BRANCH   1   2
ATOM      2  C   UNL     1      47.081   5.116  13.859  0.00  0.00    +0.000 A 
ATOM      3  C   UNL     1      47.131   6.217  13.004  0.00  0.00    +0.000 A 
ATOM      4  C   UNL     1      46.393   6.223  11.816  0.00  0.00    +0.000 A 
ATOM      5  C   UNL     1      45.585   5.129  11.486  0.00  0.00    +0.000 A 
ATOM      6  C   UNL     1      45.555   4.014  12.332  0.00  0.00    +0.000 A 
ATOM      7  C   UNL     1      46.306   4.009  13.511  0.00  0.00    +0.000 A 
BRANCH   5   8
ATOM      8  C   UNL     1      44.800   5.082  10.226  0.00  0.00    +0.000 C 
ATOM      9  O   UNL     1      43.615   4.802  10.197  0.00  0.00    +0.000 OA
BRANCH   8  10
ATOM     10  O   UNL     1      45.506   5.411   9.122  0.00  0.00    +0.000 OA
ATOM     11  H   UNL     1      45.659   6.363   8.991  0.00  0.00    +0.000 HD
ENDBRANCH   8  10
ENDBRANCH   5   8
ENDBRANCH   1   2
BRANCH   1  12
ATOM     12  C   UNL     1      47.228   4.124  16.000  0.00  0.00    +0.000 C 
BRANCH  12  14
ATOM     13  C   UNL     1      47.492   5.288  18.270  0.00  0.00    +0.000 C 
ATOM     14  C   UNL     1      47.990   4.284  17.280  0.00  0.00    +0.000 C 
BRANCH  14  15
ATOM     15  C   UNL     1      49.326   3.689  17.428  0.00  0.00    +0.000 A 
ATOM     16  C   UNL     1      49.560   2.350  17.090  0.00  0.00    +0.000 A 
ATOM     17  C   UNL     1      50.839   1.798  17.210  0.00  0.00    +0.000 A 
ATOM     18  C   UNL     1      51.895   2.575  17.680  0.00  0.00    +0.000 A 
ATOM     19  C   UNL     1      51.676   3.906  18.027  0.00  0.00    +0.000 A 
ATOM     20  C   UNL     1      50.399   4.458  17.899  0.00  0.00    +0.000 A 
ENDBRANCH  14  15
ENDBRANCH  12  14
ENDBRANCH   1  12
TORSDOF 6
ENDMDL
MODEL 8
REMARK VINA RESULT:    -5.598      3.436      5.974
REMARK INTER + INTRA:          -8.243
REMARK INTER:                  -7.564
REMARK INTRA:                  -0.679
REMARK UNBOUND:                -0.845
REMARK  Name = 
REMARK  7 active torsions:
REMARK  status: ('A' for Active; 'I' for Inactive)
REMARK    1  A    between atoms: C_1  and  C_2
REMARK    2  A    between atoms: C_2  and  C_3
REMARK    3  A    between atoms: C_2  and  C_14
REMARK    4  A    between atoms: C_3  and  O_4
REMARK    5  A    between atoms: O_4  and  C_5
REMARK    6  A    between atoms: C_8  and  C_9
REMARK    7  A    between atoms: C_9  and  O_11
REMARK                            x       y       z     vdW  Elec       q    Type
REMARK                         _______ _______ _______ _____ _____    ______ ____
ROOT
ATOM      1  O   UNL     1      48.417   6.074  13.584  0.00  0.00    +0.000 OA
ENDROOT
BRANCH   1   2
ATOM      2  C   UNL     1      47.305   5.566  12.970  0.00  0.00    +0.000 A 
ATOM      3  C   UNL     1      46.673   4.373  13.326  0.00  0.00    +0.000 A 
ATOM      4  C   UNL     1      45.515   3.961  12.659  0.00  0.00    +0.000 A 
ATOM      5  C   UNL     1      44.991   4.736  11.619  0.00  0.00    +0.000 A 
ATOM      6  C   UNL     1      45.610   5.945  11.279  0.00  0.00    +0.000 A 
ATOM      7  C   UNL     1      46.760   6.358  11.958  0.00  0.00    +0.000 A 
BRANCH   5   8
ATOM      8  C   UNL     1      43.751   4.349  10.896  0.00  0.00    +0.000 C 
ATOM      9  O   UNL     1      43.035   3.433  11.258  0.00  0.00    +0.000 OA
BRANCH   8  10
ATOM     10  O   UNL     1      43.472   5.123   9.825  0.00  0.00    +0.000 OA
ATOM     11  H   UNL     1      42.994   5.948  10.018  0.00  0.00    +0.000 HD
ENDBRANCH   8  10
ENDBRANCH   5   8
ENDBRANCH   1   2
BRANCH   1  12
ATOM     12  C   UNL     1      48.167   6.879  14.737  0.00  0.00    +0.000 C 
BRANCH  12  14
ATOM     13  C   UNL     1      50.455   7.107  15.873  0.00  0.00    +0.000 C 
ATOM     14  C   UNL     1      49.107   6.462  15.826  0.00  0.00    +0.000 C 
BRANCH  14  15
ATOM     15  C   UNL     1      48.824   5.265  16.632  0.00  0.00    +0.000 A 
ATOM     16  C   UNL     1      49.831   4.651  17.387  0.00  0.00    +0.000 A 
ATOM     17  C   UNL     1      49.550   3.528  18.170  0.00  0.00    +0.000 A 
ATOM     18  C   UNL     1      48.261   2.999  18.198  0.00  0.00    +0.000 A 
ATOM     19  C   UNL     1      47.251   3.596  17.447  0.00  0.00    +0.000 A 
ATOM     20  C   UNL     1      47.532   4.723  16.671  0.00  0.00    +0.000 A 
ENDBRANCH  14  15
ENDBRANCH  12  14
ENDBRANCH   1  12
TORSDOF 6
ENDMDL
MODEL 9
REMARK VINA RESULT:    -5.386      3.496      7.073
REMARK INTER + INTRA:          -7.963
REMARK INTER:                  -7.379
REMARK INTRA:                  -0.584
REMARK UNBOUND:                -0.845
REMARK  Name = 
REMARK  7 active torsions:
REMARK  status: ('A' for Active; 'I' for Inactive)
REMARK    1  A    between atoms: C_1  and  C_2
REMARK    2  A    between atoms: C_2  and  C_3
REMARK    3  A    between atoms: C_2  and  C_14
REMARK    4  A    between atoms: C_3  and  O_4
REMARK    5  A    between atoms: O_4  and  C_5
REMARK    6  A    between atoms: C_8  and  C_9
REMARK    7  A    between atoms: C_9  and  O_11
REMARK                            x       y       z     vdW  Elec       q    Type
REMARK                         _______ _______ _______ _____ _____    ______ ____
ROOT
ATOM      1  O   UNL     1      47.096   7.145  13.029  0.00  0.00    +0.000 OA
ENDROOT
BRANCH   1   2
ATOM      2  C   UNL     1      47.394   6.261  14.031  0.00  0.00    +0.000 A 
ATOM      3  C   UNL     1      48.249   6.529  15.101  0.00  0.00    +0.000 A 
ATOM      4  C   UNL     1      48.457   5.570  16.096  0.00  0.00    +0.000 A 
ATOM      5  C   UNL     1      47.819   4.326  16.017  0.00  0.00    +0.000 A 
ATOM      6  C   UNL     1      46.942   4.067  14.957  0.00  0.00    +0.000 A 
ATOM      7  C   UNL     1      46.729   5.035  13.972  0.00  0.00    +0.000 A 
BRANCH   5   8
ATOM      8  C   UNL     1      47.994   3.284  17.062  0.00  0.00    +0.000 C 
ATOM      9  O   UNL     1      48.843   2.414  16.990  0.00  0.00    +0.000 OA
BRANCH   8  10
ATOM     10  O   UNL     1      47.152   3.408  18.111  0.00  0.00    +0.000 OA
ATOM     11  H   UNL     1      46.212   3.254  17.914  0.00  0.00    +0.000 HD
ENDBRANCH   8  10
ENDBRANCH   5   8
ENDBRANCH   1   2
BRANCH   1  12
ATOM     12  C   UNL     1      47.162   6.615  11.705  0.00  0.00    +0.000 C 
BRANCH  12  14
ATOM     13  C   UNL     1      44.771   7.539  11.596  0.00  0.00    +0.000 C 
ATOM     14  C   UNL     1      45.770   6.515  11.160  0.00  0.00    +0.000 C 
BRANCH  14  15
ATOM     15  C   UNL     1      45.334   5.299  10.458  0.00  0.00    +0.000 A 
ATOM     16  C   UNL     1      45.650   5.094   9.109  0.00  0.00    +0.000 A 
ATOM     17  C   UNL     1      45.253   3.924   8.455  0.00  0.00    +0.000 A 
ATOM     18  C   UNL     1      44.525   2.952   9.138  0.00  0.00    +0.000 A 
ATOM     19  C   UNL     1      44.197   3.147  10.477  0.00  0.00    +0.000 A 
ATOM     20  C   UNL     1      44.601   4.313  11.132  0.00  0.00    +0.000 A 
ENDBRANCH  14  15
ENDBRANCH  12  14
ENDBRANCH   1  12
TORSDOF 6
ENDMDL
