MODEL 1
REMARK VINA RESULT:    -8.830      0.000      0.000
REMARK INTER + INTRA:         -13.639
REMARK INTER:                 -12.443
REMARK INTRA:                  -1.196
REMARK UNBOUND:                -1.196
REMARK  Name = 
REMARK  7 active torsions:
REMARK  status: ('A' for Active; 'I' for Inactive)
REMARK    1  A    between atoms: C_2  and  C_4
REMARK    2  A    between atoms: C_7  and  N_8
REMARK    3  A    between atoms: N_8  and  C_9
REMARK    4  A    between atoms: C_9  and  C_10
REMARK    5  A    between atoms: C_10  and  C_13
REMARK    6  A    between atoms: C_18  and  C_19
REMARK    7  A    between atoms: C_19  and  C_20
REMARK                            x       y       z     vdW  Elec       q    Type
REMARK                         _______ _______ _______ _____ _____    ______ ____
ROOT
ATOM      1  C   UNL     1      43.845   4.592  12.498  0.00  0.00    +0.000 C 
ATOM      2  F   UNL     1      42.904   5.254  13.234  0.00  0.00    +0.000 F 
ATOM      3  F   UNL     1      43.804   3.298  12.943  0.00  0.00    +0.000 F 
ENDROOT
BRANCH   1   4
ATOM      4  C   UNL     1      45.222   5.208  12.655  0.00  0.00    +0.000 A 
ATOM      5  C   UNL     1      45.751   6.024  11.651  0.00  0.00    +0.000 A 
ATOM      6  C   UNL     1      47.004   6.607  11.814  0.00  0.00    +0.000 A 
ATOM      7  C   UNL     1      47.745   6.384  12.984  0.00  0.00    +0.000 A 
ATOM      8 CL   UNL     1      49.305   7.122  13.080  0.00  0.00    +0.000 Cl
ATOM      9  C   UNL     1      47.237   5.569  14.010  0.00  0.00    +0.000 A 
ATOM     10  C   UNL     1      45.971   4.983  13.821  0.00  0.00    +0.000 A 
BRANCH   9  11
ATOM     11  C   UNL     1      48.008   5.225  15.268  0.00  0.00    +0.000 C 
BRANCH  11  12
ATOM     12  C   UNL     1      47.285   4.315  16.260  0.00  0.00    +0.000 C 
ATOM     13  C   UNL     1      47.161   4.661  17.757  0.00  0.00    +0.000 C 
ATOM     14  N   UNL     1      47.463   3.265  18.103  0.00  0.00    +0.000 NA
ATOM     15  C   UNL     1      47.889   2.977  16.724  0.00  0.00    +0.000 C 
ATOM     16  H   UNL     1      46.650   2.728  18.403  0.00  0.00    +0.000 HD
ENDBRANCH  11  12
ENDBRANCH   9  11
ENDBRANCH   1   4
BRANCH   1  17
ATOM     17  C   UNL     1      43.422   4.602  11.007  0.00  0.00    +0.000 C 
BRANCH  17  18
ATOM     18  N   UNL     1      43.663   3.310  10.352  0.00  0.00    +0.000 N 
ATOM     19  H   UNL     1      43.512   2.501  10.956  0.00  0.00    +0.000 HD
BRANCH  18  23
ATOM     20  C   UNL     1      46.618   2.612   7.434  0.00  0.00    +0.000 A 
ATOM     21  C   UNL     1      46.156   3.915   7.646  0.00  0.00    +0.000 A 
ATOM     22  C   UNL     1      45.188   4.167   8.623  0.00  0.00    +0.000 A 
ATOM     23  C   UNL     1      44.682   3.138   9.426  0.00  0.00    +0.000 A 
ATOM     24  C   UNL     1      45.139   1.833   9.185  0.00  0.00    +0.000 A 
ATOM     25  C   UNL     1      46.089   1.568   8.195  0.00  0.00    +0.000 A 
BRANCH  20  27
ATOM     26  N   UNL     1      47.689   3.140   5.322  0.00  0.00    +0.000 N 
ATOM     27  C   UNL     1      47.625   2.296   6.395  0.00  0.00    +0.000 C 
ATOM     28  O   UNL     1      48.391   1.348   6.507  0.00  0.00    +0.000 OA
ATOM     29  H   UNL     1      48.459   2.980   4.681  0.00  0.00    +0.000 HD
ATOM     30  H   UNL     1      47.269   4.054   5.331  0.00  0.00    +0.000 HD
ENDBRANCH  20  27
ENDBRANCH  18  23
ENDBRANCH  17  18
ENDBRANCH   1  17
TORSDOF 7
ENDMDL
MODEL 2
REMARK VINA RESULT:    -8.214      2.394      3.938
REMARK INTER + INTRA:         -12.772
REMARK INTER:                 -11.640
REMARK INTRA:                  -1.132
REMARK UNBOUND:                -1.196
REMARK  Name = 
REMARK  7 active torsions:
REMARK  status: ('A' for Active; 'I' for Inactive)
REMARK    1  A    between atoms: C_2  and  C_4
REMARK    2  A    between atoms: C_7  and  N_8
REMARK    3  A    between atoms: N_8  and  C_9
REMARK    4  A    between atoms: C_9  and  C_10
REMARK    5  A    between atoms: C_10  and  C_13
REMARK    6  A    between atoms: C_18  and  C_19
REMARK    7  A    between atoms: C_19  and  C_20
REMARK                            x       y       z     vdW  Elec       q    Type
REMARK                         _______ _______ _______ _____ _____    ______ ____
ROOT
ATOM      1  C   UNL     1      43.366   4.433  12.795  0.00  0.00    +0.000 C 
ATOM      2  F   UNL     1      42.316   5.242  12.464  0.00  0.00    +0.000 F 
ATOM      3  F   UNL     1      43.013   3.857  13.986  0.00  0.00    +0.000 F 
ENDROOT
BRANCH   1   4
ATOM      4  C   UNL     1      44.666   5.207  12.897  0.00  0.00    +0.000 A 
ATOM      5  C   UNL     1      45.887   4.532  12.991  0.00  0.00    +0.000 A 
ATOM      6  C   UNL     1      47.078   5.249  13.058  0.00  0.00    +0.000 A 
ATOM      7  C   UNL     1      47.065   6.651  13.029  0.00  0.00    +0.000 A 
ATOM      8 CL   UNL     1      48.591   7.453  13.151  0.00  0.00    +0.000 Cl
ATOM      9  C   UNL     1      45.854   7.356  12.932  0.00  0.00    +0.000 A 
ATOM     10  C   UNL     1      44.660   6.611  12.874  0.00  0.00    +0.000 A 
BRANCH   9  11
ATOM     11  C   UNL     1      45.757   8.868  12.967  0.00  0.00    +0.000 C 
BRANCH  11  12
ATOM     12  C   UNL     1      45.492   9.546  11.624  0.00  0.00    +0.000 C 
ATOM     13  C   UNL     1      45.470  11.079  11.464  0.00  0.00    +0.000 C 
ATOM     14  N   UNL     1      44.283  10.970  10.604  0.00  0.00    +0.000 NA
ATOM     15  C   UNL     1      44.093   9.561  10.982  0.00  0.00    +0.000 C 
ATOM     16  H   UNL     1      44.477  11.108   9.612  0.00  0.00    +0.000 HD
ENDBRANCH  11  12
ENDBRANCH   9  11
ENDBRANCH   1   4
BRANCH   1  17
ATOM     17  C   UNL     1      43.496   3.309  11.737  0.00  0.00    +0.000 C 
BRANCH  17  18
ATOM     18  N   UNL     1      43.543   3.837  10.367  0.00  0.00    +0.000 N 
ATOM     19  H   UNL     1      42.632   3.908   9.915  0.00  0.00    +0.000 HD
BRANCH  18  23
ATOM     20  C   UNL     1      46.532   2.729   7.615  0.00  0.00    +0.000 A 
ATOM     21  C   UNL     1      46.249   4.085   7.813  0.00  0.00    +0.000 A 
ATOM     22  C   UNL     1      45.272   4.471   8.736  0.00  0.00    +0.000 A 
ATOM     23  C   UNL     1      44.579   3.524   9.498  0.00  0.00    +0.000 A 
ATOM     24  C   UNL     1      44.858   2.166   9.271  0.00  0.00    +0.000 A 
ATOM     25  C   UNL     1      45.816   1.770   8.334  0.00  0.00    +0.000 A 
BRANCH  20  27
ATOM     26  N   UNL     1      47.532   2.886   5.409  0.00  0.00    +0.000 N 
ATOM     27  C   UNL     1      47.542   2.275   6.632  0.00  0.00    +0.000 C 
ATOM     28  O   UNL     1      48.372   1.419   6.909  0.00  0.00    +0.000 OA
ATOM     29  H   UNL     1      48.301   2.649   4.792  0.00  0.00    +0.000 HD
ATOM     30  H   UNL     1      47.051   3.755   5.247  0.00  0.00    +0.000 HD
ENDBRANCH  20  27
ENDBRANCH  18  23
ENDBRANCH  17  18
ENDBRANCH   1  17
TORSDOF 7
ENDMDL
MODEL 3
REMARK VINA RESULT:    -8.066      2.597      3.192
REMARK INTER + INTRA:         -12.563
REMARK INTER:                 -11.362
REMARK INTRA:                  -1.202
REMARK UNBOUND:                -1.196
REMARK  Name = 
REMARK  7 active torsions:
REMARK  status: ('A' for Active; 'I' for Inactive)
REMARK    1  A    between atoms: C_2  and  C_4
REMARK    2  A    between atoms: C_7  and  N_8
REMARK    3  A    between atoms: N_8  and  C_9
REMARK    4  A    between atoms: C_9  and  C_10
REMARK    5  A    between atoms: C_10  and  C_13
REMARK    6  A    between atoms: C_18  and  C_19
REMARK    7  A    between atoms: C_19  and  C_20
REMARK                            x       y       z     vdW  Elec       q    Type
REMARK                         _______ _______ _______ _____ _____    ______ ____
ROOT
ATOM      1  C   UNL     1      44.697   4.677  12.316  0.00  0.00    +0.000 C 
ATOM      2  F   UNL     1      44.243   4.379  13.569  0.00  0.00    +0.000 F 
ATOM      3  F   UNL     1      45.587   3.682  12.010  0.00  0.00    +0.000 F 
ENDROOT
BRANCH   1   4
ATOM      4  C   UNL     1      45.336   6.052  12.258  0.00  0.00    +0.000 A 
ATOM      5  C   UNL     1      44.587   7.194  12.557  0.00  0.00    +0.000 A 
ATOM      6  C   UNL     1      45.186   8.449  12.528  0.00  0.00    +0.000 A 
ATOM      7  C   UNL     1      46.545   8.580  12.202  0.00  0.00    +0.000 A 
ATOM      8 CL   UNL     1      47.192  10.182  12.159  0.00  0.00    +0.000 Cl
ATOM      9  C   UNL     1      47.322   7.450  11.900  0.00  0.00    +0.000 A 
ATOM     10  C   UNL     1      46.694   6.190  11.928  0.00  0.00    +0.000 A 
BRANCH   9  11
ATOM     11  C   UNL     1      48.774   7.519  11.472  0.00  0.00    +0.000 C 
BRANCH  11  12
ATOM     12  C   UNL     1      49.803   7.356  12.589  0.00  0.00    +0.000 C 
ATOM     13  C   UNL     1      49.423   7.442  14.080  0.00  0.00    +0.000 C 
ATOM     14  N   UNL     1      50.626   8.246  14.339  0.00  0.00    +0.000 NA
ATOM     15  C   UNL     1      50.848   8.444  12.897  0.00  0.00    +0.000 C 
ATOM     16  H   UNL     1      51.374   7.733  14.804  0.00  0.00    +0.000 HD
ENDBRANCH  11  12
ENDBRANCH   9  11
ENDBRANCH   1   4
BRANCH   1  17
ATOM     17  C   UNL     1      43.518   4.594  11.315  0.00  0.00    +0.000 C 
BRANCH  17  18
ATOM     18  N   UNL     1      43.923   4.949   9.948  0.00  0.00    +0.000 N 
ATOM     19  H   UNL     1      43.216   5.461   9.422  0.00  0.00    +0.000 HD
BRANCH  18  23
ATOM     20  C   UNL     1      46.469   2.480   7.676  0.00  0.00    +0.000 A 
ATOM     21  C   UNL     1      45.507   1.896   8.506  0.00  0.00    +0.000 A 
ATOM     22  C   UNL     1      44.641   2.701   9.254  0.00  0.00    +0.000 A 
ATOM     23  C   UNL     1      44.696   4.097   9.171  0.00  0.00    +0.000 A 
ATOM     24  C   UNL     1      45.682   4.668   8.351  0.00  0.00    +0.000 A 
ATOM     25  C   UNL     1      46.566   3.872   7.618  0.00  0.00    +0.000 A 
BRANCH  20  27
ATOM     26  N   UNL     1      48.537   2.302   6.419  0.00  0.00    +0.000 N 
ATOM     27  C   UNL     1      47.420   1.667   6.884  0.00  0.00    +0.000 C 
ATOM     28  O   UNL     1      47.237   0.473   6.684  0.00  0.00    +0.000 OA
ATOM     29  H   UNL     1      49.233   1.707   5.983  0.00  0.00    +0.000 HD
ATOM     30  H   UNL     1      48.841   3.190   6.783  0.00  0.00    +0.000 HD
ENDBRANCH  20  27
ENDBRANCH  18  23
ENDBRANCH  17  18
ENDBRANCH   1  17
TORSDOF 7
ENDMDL
MODEL 4
REMARK VINA RESULT:    -7.984      1.162      1.611
REMARK INTER + INTRA:         -12.448
REMARK INTER:                 -11.619
REMARK INTRA:                  -0.829
REMARK UNBOUND:                -1.196
REMARK  Name = 
REMARK  7 active torsions:
REMARK  status: ('A' for Active; 'I' for Inactive)
REMARK    1  A    between atoms: C_2  and  C_4
REMARK    2  A    between atoms: C_7  and  N_8
REMARK    3  A    between atoms: N_8  and  C_9
REMARK    4  A    between atoms: C_9  and  C_10
REMARK    5  A    between atoms: C_10  and  C_13
REMARK    6  A    between atoms: C_18  and  C_19
REMARK    7  A    between atoms: C_19  and  C_20
REMARK                            x       y       z     vdW  Elec       q    Type
REMARK                         _______ _______ _______ _____ _____    ______ ____
ROOT
ATOM      1  C   UNL     1      45.325   5.258  12.383  0.00  0.00    +0.000 C 
ATOM      2  F   UNL     1      44.325   5.390  13.302  0.00  0.00    +0.000 F 
ATOM      3  F   UNL     1      45.472   3.908  12.203  0.00  0.00    +0.000 F 
ENDROOT
BRANCH   1   4
ATOM      4  C   UNL     1      46.611   5.916  12.846  0.00  0.00    +0.000 A 
ATOM      5  C   UNL     1      47.309   6.782  11.999  0.00  0.00    +0.000 A 
ATOM      6  C   UNL     1      48.473   7.403  12.440  0.00  0.00    +0.000 A 
ATOM      7  C   UNL     1      48.955   7.169  13.737  0.00  0.00    +0.000 A 
ATOM      8 CL   UNL     1      50.427   7.958  14.182  0.00  0.00    +0.000 Cl
ATOM      9  C   UNL     1      48.273   6.305  14.610  0.00  0.00    +0.000 A 
ATOM     10  C   UNL     1      47.101   5.681  14.141  0.00  0.00    +0.000 A 
BRANCH   9  11
ATOM     11  C   UNL     1      48.770   5.950  15.997  0.00  0.00    +0.000 C 
BRANCH  11  12
ATOM     12  C   UNL     1      48.183   4.677  16.605  0.00  0.00    +0.000 C 
ATOM     13  C   UNL     1      47.200   4.708  17.791  0.00  0.00    +0.000 C 
ATOM     14  N   UNL     1      47.910   3.578  18.408  0.00  0.00    +0.000 NA
ATOM     15  C   UNL     1      49.031   3.721  17.464  0.00  0.00    +0.000 C 
ATOM     16  H   UNL     1      47.418   2.688  18.330  0.00  0.00    +0.000 HD
ENDBRANCH  11  12
ENDBRANCH   9  11
ENDBRANCH   1   4
BRANCH   1  17
ATOM     17  C   UNL     1      44.865   5.875  11.038  0.00  0.00    +0.000 C 
BRANCH  17  18
ATOM     18  N   UNL     1      44.159   4.902  10.193  0.00  0.00    +0.000 N 
ATOM     19  H   UNL     1      43.344   4.478  10.635  0.00  0.00    +0.000 HD
BRANCH  18  23
ATOM     20  C   UNL     1      46.438   2.433   7.654  0.00  0.00    +0.000 A 
ATOM     21  C   UNL     1      45.556   1.849   8.570  0.00  0.00    +0.000 A 
ATOM     22  C   UNL     1      44.779   2.655   9.408  0.00  0.00    +0.000 A 
ATOM     23  C   UNL     1      44.841   4.051   9.334  0.00  0.00    +0.000 A 
ATOM     24  C   UNL     1      45.748   4.621   8.427  0.00  0.00    +0.000 A 
ATOM     25  C   UNL     1      46.545   3.824   7.601  0.00  0.00    +0.000 A 
BRANCH  20  27
ATOM     26  N   UNL     1      48.270   2.281   6.070  0.00  0.00    +0.000 N 
ATOM     27  C   UNL     1      47.296   1.618   6.764  0.00  0.00    +0.000 C 
ATOM     28  O   UNL     1      47.168   0.404   6.678  0.00  0.00    +0.000 OA
ATOM     29  H   UNL     1      48.923   1.696   5.559  0.00  0.00    +0.000 HD
ATOM     30  H   UNL     1      48.567   3.210   6.317  0.00  0.00    +0.000 HD
ENDBRANCH  20  27
ENDBRANCH  18  23
ENDBRANCH  17  18
ENDBRANCH   1  17
TORSDOF 7
ENDMDL
MODEL 5
REMARK VINA RESULT:    -7.104      3.580      8.066
REMARK INTER + INTRA:         -11.208
REMARK INTER:                 -10.300
REMARK INTRA:                  -0.908
REMARK UNBOUND:                -1.196
REMARK  Name = 
REMARK  7 active torsions:
REMARK  status: ('A' for Active; 'I' for Inactive)
REMARK    1  A    between atoms: C_2  and  C_4
REMARK    2  A    between atoms: C_7  and  N_8
REMARK    3  A    between atoms: N_8  and  C_9
REMARK    4  A    between atoms: C_9  and  C_10
REMARK    5  A    between atoms: C_10  and  C_13
REMARK    6  A    between atoms: C_18  and  C_19
REMARK    7  A    between atoms: C_19  and  C_20
REMARK                            x       y       z     vdW  Elec       q    Type
REMARK                         _______ _______ _______ _____ _____    ______ ____
ROOT
ATOM      1  C   UNL     1      45.692   6.711  11.473  0.00  0.00    +0.000 C 
ATOM      2  F   UNL     1      44.720   7.641  11.236  0.00  0.00    +0.000 F 
ATOM      3  F   UNL     1      46.833   7.238  10.928  0.00  0.00    +0.000 F 
ENDROOT
BRANCH   1   4
ATOM      4  C   UNL     1      45.343   5.362  10.875  0.00  0.00    +0.000 A 
ATOM      5  C   UNL     1      44.745   4.372  11.660  0.00  0.00    +0.000 A 
ATOM      6  C   UNL     1      44.403   3.146  11.098  0.00  0.00    +0.000 A 
ATOM      7  C   UNL     1      44.652   2.893   9.741  0.00  0.00    +0.000 A 
ATOM      8 CL   UNL     1      44.224   1.329   9.142  0.00  0.00    +0.000 Cl
ATOM      9  C   UNL     1      45.250   3.869   8.927  0.00  0.00    +0.000 A 
ATOM     10  C   UNL     1      45.595   5.101   9.518  0.00  0.00    +0.000 A 
BRANCH   9  11
ATOM     11  C   UNL     1      45.614   3.643   7.474  0.00  0.00    +0.000 C 
BRANCH  11  12
ATOM     12  C   UNL     1      46.974   2.993   7.225  0.00  0.00    +0.000 C 
ATOM     13  C   UNL     1      47.557   2.817   5.809  0.00  0.00    +0.000 C 
ATOM     14  N   UNL     1      47.999   1.460   6.161  0.00  0.00    +0.000 NA
ATOM     15  C   UNL     1      47.194   1.479   7.393  0.00  0.00    +0.000 C 
ATOM     16  H   UNL     1      49.003   1.382   6.326  0.00  0.00    +0.000 HD
ENDBRANCH  11  12
ENDBRANCH   9  11
ENDBRANCH   1   4
BRANCH   1  17
ATOM     17  C   UNL     1      45.906   6.578  13.001  0.00  0.00    +0.000 C 
BRANCH  17  18
ATOM     18  N   UNL     1      47.298   6.255  13.342  0.00  0.00    +0.000 N 
ATOM     19  H   UNL     1      47.851   5.913  12.557  0.00  0.00    +0.000 HD
BRANCH  18  23
ATOM     20  C   UNL     1      48.399   4.323  16.918  0.00  0.00    +0.000 A 
ATOM     21  C   UNL     1      48.910   5.595  16.639  0.00  0.00    +0.000 A 
ATOM     22  C   UNL     1      48.541   6.259  15.465  0.00  0.00    +0.000 A 
ATOM     23  C   UNL     1      47.638   5.686  14.562  0.00  0.00    +0.000 A 
ATOM     24  C   UNL     1      47.152   4.399  14.844  0.00  0.00    +0.000 A 
ATOM     25  C   UNL     1      47.534   3.719  16.004  0.00  0.00    +0.000 A 
BRANCH  20  27
ATOM     26  N   UNL     1      50.092   3.644  18.519  0.00  0.00    +0.000 N 
ATOM     27  C   UNL     1      48.781   3.575  18.139  0.00  0.00    +0.000 C 
ATOM     28  O   UNL     1      47.957   2.955  18.798  0.00  0.00    +0.000 OA
ATOM     29  H   UNL     1      50.312   3.227  19.417  0.00  0.00    +0.000 HD
ATOM     30  H   UNL     1      50.719   4.344  18.161  0.00  0.00    +0.000 HD
ENDBRANCH  20  27
ENDBRANCH  18  23
ENDBRANCH  17  18
ENDBRANCH   1  17
TORSDOF 7
ENDMDL
MODEL 6
REMARK VINA RESULT:    -6.848      2.559      4.020
REMARK INTER + INTRA:         -10.846
REMARK INTER:                 -10.094
REMARK INTRA:                  -0.751
REMARK UNBOUND:                -1.196
REMARK  Name = 
REMARK  7 active torsions:
REMARK  status: ('A' for Active; 'I' for Inactive)
REMARK    1  A    between atoms: C_2  and  C_4
REMARK    2  A    between atoms: C_7  and  N_8
REMARK    3  A    between atoms: N_8  and  C_9
REMARK    4  A    between atoms: C_9  and  C_10
REMARK    5  A    between atoms: C_10  and  C_13
REMARK    6  A    between atoms: C_18  and  C_19
REMARK    7  A    between atoms: C_19  and  C_20
REMARK                            x       y       z     vdW  Elec       q    Type
REMARK                         _______ _______ _______ _____ _____    ______ ____
ROOT
ATOM      1  C   UNL     1      45.178   5.239  12.522  0.00  0.00    +0.000 C 
ATOM      2  F   UNL     1      43.996   5.643  13.075  0.00  0.00    +0.000 F 
ATOM      3  F   UNL     1      45.072   3.878  12.404  0.00  0.00    +0.000 F 
ENDROOT
BRANCH   1   4
ATOM      4  C   UNL     1      46.368   5.648  13.367  0.00  0.00    +0.000 A 
ATOM      5  C   UNL     1      46.672   4.959  14.545  0.00  0.00    +0.000 A 
ATOM      6  C   UNL     1      47.781   5.323  15.301  0.00  0.00    +0.000 A 
ATOM      7  C   UNL     1      48.606   6.381  14.889  0.00  0.00    +0.000 A 
ATOM      8 CL   UNL     1      49.941   6.781  15.911  0.00  0.00    +0.000 Cl
ATOM      9  C   UNL     1      48.327   7.089  13.708  0.00  0.00    +0.000 A 
ATOM     10  C   UNL     1      47.194   6.709  12.962  0.00  0.00    +0.000 A 
BRANCH   9  11
ATOM     11  C   UNL     1      49.129   8.285  13.237  0.00  0.00    +0.000 C 
BRANCH  11  12
ATOM     12  C   UNL     1      48.548   9.046  12.047  0.00  0.00    +0.000 C 
ATOM     13  C   UNL     1      49.385  10.034  11.211  0.00  0.00    +0.000 C 
ATOM     14  N   UNL     1      48.255  10.973  11.191  0.00  0.00    +0.000 NA
ATOM     15  C   UNL     1      47.552  10.206  12.231  0.00  0.00    +0.000 C 
ATOM     16  H   UNL     1      47.761  11.007  10.299  0.00  0.00    +0.000 HD
ENDBRANCH  11  12
ENDBRANCH   9  11
ENDBRANCH   1   4
BRANCH   1  17
ATOM     17  C   UNL     1      45.303   5.837  11.098  0.00  0.00    +0.000 C 
BRANCH  17  18
ATOM     18  N   UNL     1      44.498   5.103  10.113  0.00  0.00    +0.000 N 
ATOM     19  H   UNL     1      43.528   4.955  10.393  0.00  0.00    +0.000 HD
BRANCH  18  23
ATOM     20  C   UNL     1      46.342   2.047   7.878  0.00  0.00    +0.000 A 
ATOM     21  C   UNL     1      45.434   1.708   8.887  0.00  0.00    +0.000 A 
ATOM     22  C   UNL     1      44.800   2.710   9.627  0.00  0.00    +0.000 A 
ATOM     23  C   UNL     1      45.031   4.065   9.362  0.00  0.00    +0.000 A 
ATOM     24  C   UNL     1      45.962   4.389   8.362  0.00  0.00    +0.000 A 
ATOM     25  C   UNL     1      46.619   3.393   7.632  0.00  0.00    +0.000 A 
BRANCH  20  27
ATOM     26  N   UNL     1      46.801  -0.288   7.401  0.00  0.00    +0.000 N 
ATOM     27  C   UNL     1      47.054   1.018   7.085  0.00  0.00    +0.000 C 
ATOM     28  O   UNL     1      47.804   1.317   6.166  0.00  0.00    +0.000 OA
ATOM     29  H   UNL     1      47.202  -0.978   6.774  0.00  0.00    +0.000 HD
ATOM     30  H   UNL     1      46.008  -0.563   7.955  0.00  0.00    +0.000 HD
ENDBRANCH  20  27
ENDBRANCH  18  23
ENDBRANCH  17  18
ENDBRANCH   1  17
TORSDOF 7
ENDMDL
MODEL 7
REMARK VINA RESULT:    -6.729      4.057      7.591
REMARK INTER + INTRA:         -10.679
REMARK INTER:                  -9.429
REMARK INTRA:                  -1.250
REMARK UNBOUND:                -1.196
REMARK  Name = 
REMARK  7 active torsions:
REMARK  status: ('A' for Active; 'I' for Inactive)
REMARK    1  A    between atoms: C_2  and  C_4
REMARK    2  A    between atoms: C_7  and  N_8
REMARK    3  A    between atoms: N_8  and  C_9
REMARK    4  A    between atoms: C_9  and  C_10
REMARK    5  A    between atoms: C_10  and  C_13
REMARK    6  A    between atoms: C_18  and  C_19
REMARK    7  A    between atoms: C_19  and  C_20
REMARK                            x       y       z     vdW  Elec       q    Type
REMARK                         _______ _______ _______ _____ _____    ______ ____
ROOT
ATOM      1  C   UNL     1      48.522   7.762  12.348  0.00  0.00    +0.000 C 
ATOM      2  F   UNL     1      48.986   8.673  11.443  0.00  0.00    +0.000 F 
ATOM      3  F   UNL     1      49.362   6.687  12.238  0.00  0.00    +0.000 F 
ENDROOT
BRANCH   1   4
ATOM      4  C   UNL     1      47.077   7.387  12.083  0.00  0.00    +0.000 A 
ATOM      5  C   UNL     1      46.036   8.121  12.660  0.00  0.00    +0.000 A 
ATOM      6  C   UNL     1      44.712   7.788  12.391  0.00  0.00    +0.000 A 
ATOM      7  C   UNL     1      44.409   6.716  11.538  0.00  0.00    +0.000 A 
ATOM      8 CL   UNL     1      42.737   6.357  11.291  0.00  0.00    +0.000 Cl
ATOM      9  C   UNL     1      45.434   5.963  10.941  0.00  0.00    +0.000 A 
ATOM     10  C   UNL     1      46.767   6.312  11.234  0.00  0.00    +0.000 A 
BRANCH   9  11
ATOM     11  C   UNL     1      45.185   4.750  10.067  0.00  0.00    +0.000 C 
BRANCH  11  12
ATOM     12  C   UNL     1      44.940   3.437  10.809  0.00  0.00    +0.000 C 
ATOM     13  C   UNL     1      43.526   2.954  11.185  0.00  0.00    +0.000 C 
ATOM     14  N   UNL     1      44.019   2.546  12.509  0.00  0.00    +0.000 NA
ATOM     15  C   UNL     1      45.283   3.270  12.301  0.00  0.00    +0.000 C 
ATOM     16  H   UNL     1      44.134   1.539  12.616  0.00  0.00    +0.000 HD
ENDBRANCH  11  12
ENDBRANCH   9  11
ENDBRANCH   1   4
BRANCH   1  17
ATOM     17  C   UNL     1      48.668   8.344  13.776  0.00  0.00    +0.000 C 
BRANCH  17  18
ATOM     18  N   UNL     1      49.573   7.545  14.612  0.00  0.00    +0.000 N 
ATOM     19  H   UNL     1      50.447   7.287  14.154  0.00  0.00    +0.000 HD
BRANCH  18  23
ATOM     20  C   UNL     1      48.135   4.469  17.104  0.00  0.00    +0.000 A 
ATOM     21  C   UNL     1      49.237   5.227  17.514  0.00  0.00    +0.000 A 
ATOM     22  C   UNL     1      49.717   6.264  16.707  0.00  0.00    +0.000 A 
ATOM     23  C   UNL     1      49.096   6.586  15.495  0.00  0.00    +0.000 A 
ATOM     24  C   UNL     1      48.006   5.800  15.086  0.00  0.00    +0.000 A 
ATOM     25  C   UNL     1      47.534   4.748  15.875  0.00  0.00    +0.000 A 
BRANCH  20  27
ATOM     26  N   UNL     1      48.286   3.047  19.065  0.00  0.00    +0.000 N 
ATOM     27  C   UNL     1      47.608   3.348  17.916  0.00  0.00    +0.000 C 
ATOM     28  O   UNL     1      46.594   2.742  17.597  0.00  0.00    +0.000 OA
ATOM     29  H   UNL     1      47.846   2.359  19.667  0.00  0.00    +0.000 HD
ATOM     30  H   UNL     1      48.946   3.682  19.481  0.00  0.00    +0.000 HD
ENDBRANCH  20  27
ENDBRANCH  18  23
ENDBRANCH  17  18
ENDBRANCH   1  17
TORSDOF 7
ENDMDL
MODEL 8
REMARK VINA RESULT:    -6.600      3.597      5.439
REMARK INTER + INTRA:         -10.496
REMARK INTER:                  -9.649
REMARK INTRA:                  -0.848
REMARK UNBOUND:                -1.196
REMARK  Name = 
REMARK  7 active torsions:
REMARK  status: ('A' for Active; 'I' for Inactive)
REMARK    1  A    between atoms: C_2  and  C_4
REMARK    2  A    between atoms: C_7  and  N_8
REMARK    3  A    between atoms: N_8  and  C_9
REMARK    4  A    between atoms: C_9  and  C_10
REMARK    5  A    between atoms: C_10  and  C_13
REMARK    6  A    between atoms: C_18  and  C_19
REMARK    7  A    between atoms: C_19  and  C_20
REMARK                            x       y       z     vdW  Elec       q    Type
REMARK                         _______ _______ _______ _____ _____    ______ ____
ROOT
ATOM      1  C   UNL     1      49.104   7.854  14.852  0.00  0.00    +0.000 C 
ATOM      2  F   UNL     1      49.830   8.864  14.287  0.00  0.00    +0.000 F 
ATOM      3  F   UNL     1      48.082   8.476  15.518  0.00  0.00    +0.000 F 
ENDROOT
BRANCH   1   4
ATOM      4  C   UNL     1      49.949   6.997  15.774  0.00  0.00    +0.000 A 
ATOM      5  C   UNL     1      51.342   7.110  15.769  0.00  0.00    +0.000 A 
ATOM      6  C   UNL     1      52.110   6.340  16.637  0.00  0.00    +0.000 A 
ATOM      7  C   UNL     1      51.494   5.446  17.526  0.00  0.00    +0.000 A 
ATOM      8 CL   UNL     1      52.531   4.508  18.541  0.00  0.00    +0.000 Cl
ATOM      9  C   UNL     1      50.096   5.313  17.555  0.00  0.00    +0.000 A 
ATOM     10  C   UNL     1      49.339   6.096  16.663  0.00  0.00    +0.000 A 
BRANCH   9  11
ATOM     11  C   UNL     1      49.365   4.319  18.436  0.00  0.00    +0.000 C 
BRANCH  11  12
ATOM     12  C   UNL     1      49.147   2.933  17.831  0.00  0.00    +0.000 C 
ATOM     13  C   UNL     1      50.273   2.156  17.123  0.00  0.00    +0.000 C 
ATOM     14  N   UNL     1      49.332   1.757  16.066  0.00  0.00    +0.000 NA
ATOM     15  C   UNL     1      48.333   2.728  16.541  0.00  0.00    +0.000 C 
ATOM     16  H   UNL     1      49.026   0.787  16.130  0.00  0.00    +0.000 HD
ENDBRANCH  11  12
ENDBRANCH   9  11
ENDBRANCH   1   4
BRANCH   1  17
ATOM     17  C   UNL     1      48.487   6.982  13.730  0.00  0.00    +0.000 C 
BRANCH  17  18
ATOM     18  N   UNL     1      47.050   6.753  13.930  0.00  0.00    +0.000 N 
ATOM     19  H   UNL     1      46.778   6.636  14.905  0.00  0.00    +0.000 HD
BRANCH  18  23
ATOM     20  C   UNL     1      44.953   4.492  11.062  0.00  0.00    +0.000 A 
ATOM     21  C   UNL     1      45.211   3.937  12.320  0.00  0.00    +0.000 A 
ATOM     22  C   UNL     1      45.891   4.680  13.290  0.00  0.00    +0.000 A 
ATOM     23  C   UNL     1      46.301   5.995  13.041  0.00  0.00    +0.000 A 
ATOM     24  C   UNL     1      46.055   6.529  11.766  0.00  0.00    +0.000 A 
ATOM     25  C   UNL     1      45.396   5.786  10.783  0.00  0.00    +0.000 A 
BRANCH  20  27
ATOM     26  N   UNL     1      44.158   4.334   8.775  0.00  0.00    +0.000 N 
ATOM     27  C   UNL     1      44.257   3.732   9.998  0.00  0.00    +0.000 C 
ATOM     28  O   UNL     1      43.822   2.605  10.190  0.00  0.00    +0.000 OA
ATOM     29  H   UNL     1      43.786   3.757   8.028  0.00  0.00    +0.000 HD
ATOM     30  H   UNL     1      44.725   5.126   8.518  0.00  0.00    +0.000 HD
ENDBRANCH  20  27
ENDBRANCH  18  23
ENDBRANCH  17  18
ENDBRANCH   1  17
TORSDOF 7
ENDMDL
MODEL 9
REMARK VINA RESULT:    -6.526      3.043      4.390
REMARK INTER + INTRA:         -10.393
REMARK INTER:                  -9.229
REMARK INTRA:                  -1.164
REMARK UNBOUND:                -1.196
REMARK  Name = 
REMARK  7 active torsions:
REMARK  status: ('A' for Active; 'I' for Inactive)
REMARK    1  A    between atoms: C_2  and  C_4
REMARK    2  A    between atoms: C_7  and  N_8
REMARK    3  A    between atoms: N_8  and  C_9
REMARK    4  A    between atoms: C_9  and  C_10
REMARK    5  A    between atoms: C_10  and  C_13
REMARK    6  A    between atoms: C_18  and  C_19
REMARK    7  A    between atoms: C_19  and  C_20
REMARK                            x       y       z     vdW  Elec       q    Type
REMARK                         _______ _______ _______ _____ _____    ______ ____
ROOT
ATOM      1  C   UNL     1      48.252   7.339  13.229  0.00  0.00    +0.000 C 
ATOM      2  F   UNL     1      48.536   6.089  12.759  0.00  0.00    +0.000 F 
ATOM      3  F   UNL     1      49.035   8.187  12.491  0.00  0.00    +0.000 F 
ENDROOT
BRANCH   1   4
ATOM      4  C   UNL     1      48.524   7.461  14.716  0.00  0.00    +0.000 A 
ATOM      5  C   UNL     1      48.355   8.685  15.370  0.00  0.00    +0.000 A 
ATOM      6  C   UNL     1      48.580   8.783  16.739  0.00  0.00    +0.000 A 
ATOM      7  C   UNL     1      48.976   7.656  17.476  0.00  0.00    +0.000 A 
ATOM      8 CL   UNL     1      49.266   7.884  19.165  0.00  0.00    +0.000 Cl
ATOM      9  C   UNL     1      49.152   6.413  16.846  0.00  0.00    +0.000 A 
ATOM     10  C   UNL     1      48.926   6.338  15.458  0.00  0.00    +0.000 A 
BRANCH   9  11
ATOM     11  C   UNL     1      49.646   5.172  17.561  0.00  0.00    +0.000 C 
BRANCH  11  12
ATOM     12  C   UNL     1      48.567   4.174  17.979  0.00  0.00    +0.000 C 
ATOM     13  C   UNL     1      48.081   3.047  17.048  0.00  0.00    +0.000 C 
ATOM     14  N   UNL     1      46.692   3.316  17.448  0.00  0.00    +0.000 NA
ATOM     15  C   UNL     1      47.086   4.579  18.094  0.00  0.00    +0.000 C 
ATOM     16  H   UNL     1      46.306   2.627  18.092  0.00  0.00    +0.000 HD
ENDBRANCH  11  12
ENDBRANCH   9  11
ENDBRANCH   1   4
BRANCH   1  17
ATOM     17  C   UNL     1      46.769   7.670  12.930  0.00  0.00    +0.000 C 
BRANCH  17  18
ATOM     18  N   UNL     1      45.873   6.550  13.247  0.00  0.00    +0.000 N 
ATOM     19  H   UNL     1      46.025   6.142  14.169  0.00  0.00    +0.000 HD
BRANCH  18  23
ATOM     20  C   UNL     1      44.899   3.815  10.195  0.00  0.00    +0.000 A 
ATOM     21  C   UNL     1      44.890   3.390  11.528  0.00  0.00    +0.000 A 
ATOM     22  C   UNL     1      45.194   4.289  12.555  0.00  0.00    +0.000 A 
ATOM     23  C   UNL     1      45.484   5.631  12.282  0.00  0.00    +0.000 A 
ATOM     24  C   UNL     1      45.512   6.037  10.938  0.00  0.00    +0.000 A 
ATOM     25  C   UNL     1      45.232   5.140   9.904  0.00  0.00    +0.000 A 
BRANCH  20  27
ATOM     26  N   UNL     1      44.443   3.453   7.840  0.00  0.00    +0.000 N 
ATOM     27  C   UNL     1      44.606   2.892   9.075  0.00  0.00    +0.000 C 
ATOM     28  O   UNL     1      44.548   1.680   9.237  0.00  0.00    +0.000 OA
ATOM     29  H   UNL     1      44.362   2.801   7.067  0.00  0.00    +0.000 HD
ATOM     30  H   UNL     1      44.743   4.392   7.632  0.00  0.00    +0.000 HD
ENDBRANCH  20  27
ENDBRANCH  18  23
ENDBRANCH  17  18
ENDBRANCH   1  17
TORSDOF 7
ENDMDL
