MODEL 1
REMARK VINA RESULT:    -7.416      0.000      0.000
REMARK INTER + INTRA:         -11.260
REMARK INTER:                 -10.018
REMARK INTRA:                  -1.242
REMARK UNBOUND:                -1.242
REMARK  Name = 
REMARK  7 active torsions:
REMARK  status: ('A' for Active; 'I' for Inactive)
REMARK    1  A    between atoms: C_1  and  C_2
REMARK    2  A    between atoms: C_2  and  N_3
REMARK    3  A    between atoms: C_2  and  C_16
REMARK    4  A    between atoms: C_4  and  C_6
REMARK    5  A    between atoms: C_19  and  C_20
REMARK    6  A    between atoms: C_20  and  N_21
REMARK    7  A    between atoms: C_22  and  C_24
REMARK                            x       y       z     vdW  Elec       q    Type
REMARK                         _______ _______ _______ _____ _____    ______ ____
ROOT
ATOM      1  C   UNL     1      46.478   8.857  13.317  0.00  0.00    +0.000 C 
ATOM      2  C   UNL     1      47.233   7.529  13.207  0.00  0.00    +0.000 C 
ENDROOT
BRANCH   2   3
ATOM      3  C   UNL     1      46.408   6.514  12.420  0.00  0.00    +0.000 A 
ATOM      4  C   UNL     1      45.630   5.552  13.078  0.00  0.00    +0.000 A 
ATOM      5  C   UNL     1      44.850   4.640  12.350  0.00  0.00    +0.000 A 
ATOM      6  C   UNL     1      44.831   4.663  10.948  0.00  0.00    +0.000 A 
ATOM      7  C   UNL     1      45.597   5.632  10.289  0.00  0.00    +0.000 A 
ATOM      8  C   UNL     1      46.378   6.539  11.014  0.00  0.00    +0.000 A 
BRANCH   6   9
ATOM      9  C   UNL     1      44.010   3.671  10.164  0.00  0.00    +0.000 C 
BRANCH   9  10
ATOM     10  N   UNL     1      44.491   3.499   8.810  0.00  0.00    +0.000 N 
ATOM     11  C   UNL     1      45.275   2.416   8.481  0.00  0.00    +0.000 C 
ATOM     12  O   UNL     1      45.645   1.592   9.314  0.00  0.00    +0.000 OA
ATOM     13  H   UNL     1      43.980   3.967   8.069  0.00  0.00    +0.000 HD
BRANCH  11  14
ATOM     14  C   UNL     1      45.707   2.301   7.022  0.00  0.00    +0.000 C 
ATOM     15  C   UNL     1      46.714   1.200   6.771  0.00  0.00    +0.000 C 
ATOM     16  C   UNL     1      48.056   1.890   6.916  0.00  0.00    +0.000 C 
ATOM     17  O   UNL     1      47.837   3.302   6.784  0.00  0.00    +0.000 OA
ATOM     18  C   UNL     1      46.439   3.534   6.544  0.00  0.00    +0.000 C 
ENDBRANCH  11  14
ENDBRANCH   9  10
ENDBRANCH   6   9
ENDBRANCH   2   3
BRANCH   2  19
ATOM     19  N   UNL     1      47.549   6.960  14.508  0.00  0.00    +0.000 N 
ATOM     20  C   UNL     1      48.820   6.683  14.946  0.00  0.00    +0.000 C 
ATOM     21  O   UNL     1      49.827   6.933  14.295  0.00  0.00    +0.000 OA
ATOM     22  H   UNL     1      46.795   6.425  14.920  0.00  0.00    +0.000 HD
BRANCH  20  23
ATOM     23  C   UNL     1      48.903   6.136  16.308  0.00  0.00    +0.000 A 
ATOM     24  C   UNL     1      49.527   6.858  17.316  0.00  0.00    +0.000 A 
ATOM     25  S   UNL     1      49.470   6.087  18.838  0.00  0.00    +0.000 S 
ATOM     26  C   UNL     1      48.654   4.741  18.188  0.00  0.00    +0.000 A 
ATOM     27  N   UNL     1      48.315   3.679  18.969  0.00  0.00    +0.000 NA
ATOM     28  C   UNL     1      47.728   2.718  18.333  0.00  0.00    +0.000 A 
ATOM     29  N   UNL     1      47.443   2.724  16.994  0.00  0.00    +0.000 N 
ATOM     30  C   UNL     1      47.737   3.788  16.176  0.00  0.00    +0.000 A 
ATOM     31  O   UNL     1      47.419   3.785  14.993  0.00  0.00    +0.000 OA
ATOM     32  C   UNL     1      48.412   4.887  16.837  0.00  0.00    +0.000 A 
ATOM     33  H   UNL     1      46.973   1.947  16.556  0.00  0.00    +0.000 HD
ENDBRANCH  20  23
ENDBRANCH   2  19
TORSDOF 6
ENDMDL
MODEL 2
REMARK VINA RESULT:    -7.148      3.587      5.129
REMARK INTER + INTRA:         -10.897
REMARK INTER:                  -9.429
REMARK INTRA:                  -1.468
REMARK UNBOUND:                -1.242
REMARK  Name = 
REMARK  7 active torsions:
REMARK  status: ('A' for Active; 'I' for Inactive)
REMARK    1  A    between atoms: C_1  and  C_2
REMARK    2  A    between atoms: C_2  and  N_3
REMARK    3  A    between atoms: C_2  and  C_16
REMARK    4  A    between atoms: C_4  and  C_6
REMARK    5  A    between atoms: C_19  and  C_20
REMARK    6  A    between atoms: C_20  and  N_21
REMARK    7  A    between atoms: C_22  and  C_24
REMARK                            x       y       z     vdW  Elec       q    Type
REMARK                         _______ _______ _______ _____ _____    ______ ____
ROOT
ATOM      1  C   UNL     1      47.457   3.359  17.747  0.00  0.00    +0.000 C 
ATOM      2  C   UNL     1      48.363   4.539  17.383  0.00  0.00    +0.000 C 
ENDROOT
BRANCH   2   3
ATOM      3  C   UNL     1      48.001   5.078  16.000  0.00  0.00    +0.000 A 
ATOM      4  C   UNL     1      48.573   6.261  15.515  0.00  0.00    +0.000 A 
ATOM      5  C   UNL     1      48.261   6.736  14.231  0.00  0.00    +0.000 A 
ATOM      6  C   UNL     1      47.365   6.043  13.404  0.00  0.00    +0.000 A 
ATOM      7  C   UNL     1      46.802   4.854  13.882  0.00  0.00    +0.000 A 
ATOM      8  C   UNL     1      47.112   4.382  15.162  0.00  0.00    +0.000 A 
BRANCH   6   9
ATOM      9  C   UNL     1      47.011   6.563  12.033  0.00  0.00    +0.000 C 
BRANCH   9  10
ATOM     10  N   UNL     1      46.052   5.721  11.351  0.00  0.00    +0.000 N 
ATOM     11  C   UNL     1      44.729   6.095  11.270  0.00  0.00    +0.000 C 
ATOM     12  O   UNL     1      44.296   7.109  11.811  0.00  0.00    +0.000 OA
ATOM     13  H   UNL     1      46.411   5.064  10.665  0.00  0.00    +0.000 HD
BRANCH  11  14
ATOM     14  C   UNL     1      43.799   5.160  10.503  0.00  0.00    +0.000 C 
ATOM     15  C   UNL     1      43.003   4.230  11.391  0.00  0.00    +0.000 C 
ATOM     16  C   UNL     1      43.864   2.986  11.485  0.00  0.00    +0.000 C 
ATOM     17  O   UNL     1      44.798   3.019  10.397  0.00  0.00    +0.000 OA
ATOM     18  C   UNL     1      44.558   4.201   9.614  0.00  0.00    +0.000 C 
ENDBRANCH  11  14
ENDBRANCH   9  10
ENDBRANCH   6   9
ENDBRANCH   2   3
BRANCH   2  19
ATOM     19  N   UNL     1      49.772   4.179  17.384  0.00  0.00    +0.000 N 
ATOM     20  C   UNL     1      50.608   4.321  18.463  0.00  0.00    +0.000 C 
ATOM     21  O   UNL     1      50.235   4.727  19.557  0.00  0.00    +0.000 OA
ATOM     22  H   UNL     1      50.202   4.183  16.468  0.00  0.00    +0.000 HD
BRANCH  20  23
ATOM     23  C   UNL     1      51.989   3.865  18.245  0.00  0.00    +0.000 A 
ATOM     24  C   UNL     1      53.053   4.731  18.454  0.00  0.00    +0.000 A 
ATOM     25  S   UNL     1      54.578   4.002  18.209  0.00  0.00    +0.000 S 
ATOM     26  C   UNL     1      53.862   2.522  17.766  0.00  0.00    +0.000 A 
ATOM     27  N   UNL     1      54.623   1.453  17.405  0.00  0.00    +0.000 NA
ATOM     28  C   UNL     1      53.942   0.408  17.065  0.00  0.00    +0.000 A 
ATOM     29  N   UNL     1      52.575   0.330  17.060  0.00  0.00    +0.000 N 
ATOM     30  C   UNL     1      51.770   1.373  17.449  0.00  0.00    +0.000 A 
ATOM     31  O   UNL     1      50.551   1.254  17.487  0.00  0.00    +0.000 OA
ATOM     32  C   UNL     1      52.484   2.577  17.824  0.00  0.00    +0.000 A 
ATOM     33  H   UNL     1      52.100  -0.518  16.794  0.00  0.00    +0.000 HD
ENDBRANCH  20  23
ENDBRANCH   2  19
TORSDOF 6
ENDMDL
MODEL 3
REMARK VINA RESULT:    -6.992      2.359      3.393
REMARK INTER + INTRA:         -10.687
REMARK INTER:                  -9.272
REMARK INTRA:                  -1.415
REMARK UNBOUND:                -1.242
REMARK  Name = 
REMARK  7 active torsions:
REMARK  status: ('A' for Active; 'I' for Inactive)
REMARK    1  A    between atoms: C_1  and  C_2
REMARK    2  A    between atoms: C_2  and  N_3
REMARK    3  A    between atoms: C_2  and  C_16
REMARK    4  A    between atoms: C_4  and  C_6
REMARK    5  A    between atoms: C_19  and  C_20
REMARK    6  A    between atoms: C_20  and  N_21
REMARK    7  A    between atoms: C_22  and  C_24
REMARK                            x       y       z     vdW  Elec       q    Type
REMARK                         _______ _______ _______ _____ _____    ______ ____
ROOT
ATOM      1  C   UNL     1      49.417   7.831  13.625  0.00  0.00    +0.000 C 
ATOM      2  C   UNL     1      48.715   6.601  14.207  0.00  0.00    +0.000 C 
ENDROOT
BRANCH   2   3
ATOM      3  C   UNL     1      47.472   6.262  13.387  0.00  0.00    +0.000 A 
ATOM      4  C   UNL     1      47.203   6.919  12.180  0.00  0.00    +0.000 A 
ATOM      5  C   UNL     1      46.076   6.583  11.414  0.00  0.00    +0.000 A 
ATOM      6  C   UNL     1      45.186   5.586  11.840  0.00  0.00    +0.000 A 
ATOM      7  C   UNL     1      45.460   4.919  13.040  0.00  0.00    +0.000 A 
ATOM      8  C   UNL     1      46.582   5.256  13.804  0.00  0.00    +0.000 A 
BRANCH   6   9
ATOM      9  C   UNL     1      43.962   5.238  11.030  0.00  0.00    +0.000 C 
BRANCH   9  10
ATOM     10  N   UNL     1      44.285   4.525   9.814  0.00  0.00    +0.000 N 
ATOM     11  C   UNL     1      44.243   3.149   9.780  0.00  0.00    +0.000 C 
ATOM     12  O   UNL     1      43.992   2.472  10.773  0.00  0.00    +0.000 OA
ATOM     13  H   UNL     1      44.202   5.032   8.938  0.00  0.00    +0.000 HD
BRANCH  11  14
ATOM     14  C   UNL     1      44.568   2.486   8.444  0.00  0.00    +0.000 C 
ATOM     15  C   UNL     1      45.937   1.847   8.399  0.00  0.00    +0.000 C 
ATOM     16  C   UNL     1      46.835   2.941   7.858  0.00  0.00    +0.000 C 
ATOM     17  O   UNL     1      46.000   3.916   7.219  0.00  0.00    +0.000 OA
ATOM     18  C   UNL     1      44.631   3.486   7.311  0.00  0.00    +0.000 C 
ENDBRANCH  11  14
ENDBRANCH   9  10
ENDBRANCH   6   9
ENDBRANCH   2   3
BRANCH   2  19
ATOM     19  N   UNL     1      48.316   6.794  15.593  0.00  0.00    +0.000 N 
ATOM     20  C   UNL     1      48.943   6.217  16.669  0.00  0.00    +0.000 C 
ATOM     21  O   UNL     1      49.940   5.512  16.570  0.00  0.00    +0.000 OA
ATOM     22  H   UNL     1      47.343   7.050  15.712  0.00  0.00    +0.000 HD
BRANCH  20  23
ATOM     23  C   UNL     1      48.384   6.576  17.980  0.00  0.00    +0.000 A 
ATOM     24  C   UNL     1      48.130   5.591  18.926  0.00  0.00    +0.000 A 
ATOM     25  S   UNL     1      47.541   6.207  20.405  0.00  0.00    +0.000 S 
ATOM     26  C   UNL     1      47.559   7.803  19.812  0.00  0.00    +0.000 A 
ATOM     27  N   UNL     1      47.144   8.845  20.583  0.00  0.00    +0.000 NA
ATOM     28  C   UNL     1      47.185   9.994  19.990  0.00  0.00    +0.000 A 
ATOM     29  N   UNL     1      47.608  10.197  18.704  0.00  0.00    +0.000 N 
ATOM     30  C   UNL     1      48.066   9.180  17.902  0.00  0.00    +0.000 A 
ATOM     31  O   UNL     1      48.490   9.402  16.775  0.00  0.00    +0.000 OA
ATOM     32  C   UNL     1      48.026   7.866  18.514  0.00  0.00    +0.000 A 
ATOM     33  H   UNL     1      47.626  11.120  18.299  0.00  0.00    +0.000 HD
ENDBRANCH  20  23
ENDBRANCH   2  19
TORSDOF 6
ENDMDL
MODEL 4
REMARK VINA RESULT:    -6.735      3.019      8.500
REMARK INTER + INTRA:         -10.339
REMARK INTER:                  -8.967
REMARK INTRA:                  -1.373
REMARK UNBOUND:                -1.242
REMARK  Name = 
REMARK  7 active torsions:
REMARK  status: ('A' for Active; 'I' for Inactive)
REMARK    1  A    between atoms: C_1  and  C_2
REMARK    2  A    between atoms: C_2  and  N_3
REMARK    3  A    between atoms: C_2  and  C_16
REMARK    4  A    between atoms: C_4  and  C_6
REMARK    5  A    between atoms: C_19  and  C_20
REMARK    6  A    between atoms: C_20  and  N_21
REMARK    7  A    between atoms: C_22  and  C_24
REMARK                            x       y       z     vdW  Elec       q    Type
REMARK                         _______ _______ _______ _____ _____    ______ ____
ROOT
ATOM      1  C   UNL     1      49.278   7.772  11.271  0.00  0.00    +0.000 C 
ATOM      2  C   UNL     1      48.021   7.843  12.143  0.00  0.00    +0.000 C 
ENDROOT
BRANCH   2   3
ATOM      3  C   UNL     1      48.404   7.965  13.616  0.00  0.00    +0.000 A 
ATOM      4  C   UNL     1      47.875   8.984  14.417  0.00  0.00    +0.000 A 
ATOM      5  C   UNL     1      48.207   9.073  15.779  0.00  0.00    +0.000 A 
ATOM      6  C   UNL     1      49.080   8.150  16.370  0.00  0.00    +0.000 A 
ATOM      7  C   UNL     1      49.600   7.122  15.574  0.00  0.00    +0.000 A 
ATOM      8  C   UNL     1      49.272   7.035  14.217  0.00  0.00    +0.000 A 
BRANCH   6   9
ATOM      9  C   UNL     1      49.455   8.256  17.827  0.00  0.00    +0.000 C 
BRANCH   9  10
ATOM     10  N   UNL     1      49.868   6.988  18.388  0.00  0.00    +0.000 N 
ATOM     11  C   UNL     1      48.929   6.083  18.832  0.00  0.00    +0.000 C 
ATOM     12  O   UNL     1      47.725   6.326  18.827  0.00  0.00    +0.000 OA
ATOM     13  H   UNL     1      50.790   6.643  18.139  0.00  0.00    +0.000 HD
BRANCH  11  14
ATOM     14  C   UNL     1      49.457   4.759  19.377  0.00  0.00    +0.000 C 
ATOM     15  C   UNL     1      50.848   4.415  18.894  0.00  0.00    +0.000 C 
ATOM     16  C   UNL     1      50.609   3.587  17.647  0.00  0.00    +0.000 C 
ATOM     17  O   UNL     1      49.256   3.113  17.690  0.00  0.00    +0.000 OA
ATOM     18  C   UNL     1      48.640   3.579  18.903  0.00  0.00    +0.000 C 
ENDBRANCH  11  14
ENDBRANCH   9  10
ENDBRANCH   6   9
ENDBRANCH   2   3
BRANCH   2  19
ATOM     19  N   UNL     1      47.166   6.677  11.982  0.00  0.00    +0.000 N 
ATOM     20  C   UNL     1      45.800   6.693  12.111  0.00  0.00    +0.000 C 
ATOM     21  O   UNL     1      45.155   7.710  12.331  0.00  0.00    +0.000 OA
ATOM     22  H   UNL     1      47.633   5.795  12.152  0.00  0.00    +0.000 HD
BRANCH  20  23
ATOM     23  C   UNL     1      45.139   5.401  11.877  0.00  0.00    +0.000 A 
ATOM     24  C   UNL     1      44.471   4.759  12.912  0.00  0.00    +0.000 A 
ATOM     25  S   UNL     1      43.717   3.304  12.433  0.00  0.00    +0.000 S 
ATOM     26  C   UNL     1      44.301   3.460  10.841  0.00  0.00    +0.000 A 
ATOM     27  N   UNL     1      44.032   2.516   9.897  0.00  0.00    +0.000 NA
ATOM     28  C   UNL     1      44.566   2.752   8.744  0.00  0.00    +0.000 A 
ATOM     29  N   UNL     1      45.336   3.844   8.445  0.00  0.00    +0.000 N 
ATOM     30  C   UNL     1      45.604   4.837   9.356  0.00  0.00    +0.000 A 
ATOM     31  O   UNL     1      46.250   5.829   9.043  0.00  0.00    +0.000 OA
ATOM     32  C   UNL     1      45.042   4.612  10.674  0.00  0.00    +0.000 A 
ATOM     33  H   UNL     1      45.718   3.978   7.522  0.00  0.00    +0.000 HD
ENDBRANCH  20  23
ENDBRANCH   2  19
TORSDOF 6
ENDMDL
MODEL 5
REMARK VINA RESULT:    -6.656      3.522      7.981
REMARK INTER + INTRA:         -10.233
REMARK INTER:                  -8.846
REMARK INTRA:                  -1.387
REMARK UNBOUND:                -1.242
REMARK  Name = 
REMARK  7 active torsions:
REMARK  status: ('A' for Active; 'I' for Inactive)
REMARK    1  A    between atoms: C_1  and  C_2
REMARK    2  A    between atoms: C_2  and  N_3
REMARK    3  A    between atoms: C_2  and  C_16
REMARK    4  A    between atoms: C_4  and  C_6
REMARK    5  A    between atoms: C_19  and  C_20
REMARK    6  A    between atoms: C_20  and  N_21
REMARK    7  A    between atoms: C_22  and  C_24
REMARK                            x       y       z     vdW  Elec       q    Type
REMARK                         _______ _______ _______ _____ _____    ______ ____
ROOT
ATOM      1  C   UNL     1      48.875   8.971  11.412  0.00  0.00    +0.000 C 
ATOM      2  C   UNL     1      47.709   8.434  12.248  0.00  0.00    +0.000 C 
ENDROOT
BRANCH   2   3
ATOM      3  C   UNL     1      48.183   8.083  13.656  0.00  0.00    +0.000 A 
ATOM      4  C   UNL     1      48.529   9.086  14.571  0.00  0.00    +0.000 A 
ATOM      5  C   UNL     1      48.936   8.760  15.874  0.00  0.00    +0.000 A 
ATOM      6  C   UNL     1      49.011   7.424  16.293  0.00  0.00    +0.000 A 
ATOM      7  C   UNL     1      48.653   6.421  15.385  0.00  0.00    +0.000 A 
ATOM      8  C   UNL     1      48.251   6.745  14.085  0.00  0.00    +0.000 A 
BRANCH   6   9
ATOM      9  C   UNL     1      49.468   7.070  17.686  0.00  0.00    +0.000 C 
BRANCH   9  10
ATOM     10  N   UNL     1      49.245   5.676  18.006  0.00  0.00    +0.000 N 
ATOM     11  C   UNL     1      50.254   4.753  17.844  0.00  0.00    +0.000 C 
ATOM     12  O   UNL     1      51.350   5.050  17.374  0.00  0.00    +0.000 OA
ATOM     13  H   UNL     1      48.492   5.459  18.652  0.00  0.00    +0.000 HD
BRANCH  11  14
ATOM     14  C   UNL     1      49.936   3.314  18.239  0.00  0.00    +0.000 C 
ATOM     15  C   UNL     1      49.993   2.340  17.084  0.00  0.00    +0.000 C 
ATOM     16  C   UNL     1      48.572   2.309  16.560  0.00  0.00    +0.000 C 
ATOM     17  O   UNL     1      47.716   2.825  17.588  0.00  0.00    +0.000 OA
ATOM     18  C   UNL     1      48.516   3.158  18.734  0.00  0.00    +0.000 C 
ENDBRANCH  11  14
ENDBRANCH   9  10
ENDBRANCH   6   9
ENDBRANCH   2   3
BRANCH   2  19
ATOM     19  N   UNL     1      47.101   7.251  11.657  0.00  0.00    +0.000 N 
ATOM     20  C   UNL     1      45.761   7.118  11.392  0.00  0.00    +0.000 C 
ATOM     21  O   UNL     1      44.942   8.008  11.586  0.00  0.00    +0.000 OA
ATOM     22  H   UNL     1      47.626   6.398  11.803  0.00  0.00    +0.000 HD
BRANCH  20  23
ATOM     23  C   UNL     1      45.374   5.845  10.767  0.00  0.00    +0.000 A 
ATOM     24  C   UNL     1      45.714   5.581   9.447  0.00  0.00    +0.000 A 
ATOM     25  S   UNL     1      45.232   4.030   8.920  0.00  0.00    +0.000 S 
ATOM     26  C   UNL     1      44.509   3.682  10.422  0.00  0.00    +0.000 A 
ATOM     27  N   UNL     1      43.879   2.496  10.642  0.00  0.00    +0.000 NA
ATOM     28  C   UNL     1      43.352   2.385  11.817  0.00  0.00    +0.000 A 
ATOM     29  N   UNL     1      43.402   3.345  12.793  0.00  0.00    +0.000 N 
ATOM     30  C   UNL     1      44.056   4.541  12.626  0.00  0.00    +0.000 A 
ATOM     31  O   UNL     1      44.130   5.357  13.537  0.00  0.00    +0.000 OA
ATOM     32  C   UNL     1      44.651   4.724  11.317  0.00  0.00    +0.000 A 
ATOM     33  H   UNL     1      42.979   3.195  13.696  0.00  0.00    +0.000 HD
ENDBRANCH  20  23
ENDBRANCH   2  19
TORSDOF 6
ENDMDL
MODEL 6
REMARK VINA RESULT:    -6.603      3.430      5.508
REMARK INTER + INTRA:         -10.161
REMARK INTER:                  -9.270
REMARK INTRA:                  -0.891
REMARK UNBOUND:                -1.242
REMARK  Name = 
REMARK  7 active torsions:
REMARK  status: ('A' for Active; 'I' for Inactive)
REMARK    1  A    between atoms: C_1  and  C_2
REMARK    2  A    between atoms: C_2  and  N_3
REMARK    3  A    between atoms: C_2  and  C_16
REMARK    4  A    between atoms: C_4  and  C_6
REMARK    5  A    between atoms: C_19  and  C_20
REMARK    6  A    between atoms: C_20  and  N_21
REMARK    7  A    between atoms: C_22  and  C_24
REMARK                            x       y       z     vdW  Elec       q    Type
REMARK                         _______ _______ _______ _____ _____    ______ ____
ROOT
ATOM      1  C   UNL     1      47.082   2.688  17.826  0.00  0.00    +0.000 C 
ATOM      2  C   UNL     1      48.043   3.875  17.699  0.00  0.00    +0.000 C 
ENDROOT
BRANCH   2   3
ATOM      3  C   UNL     1      47.882   4.544  16.336  0.00  0.00    +0.000 A 
ATOM      4  C   UNL     1      47.103   3.957  15.332  0.00  0.00    +0.000 A 
ATOM      5  C   UNL     1      46.934   4.591  14.091  0.00  0.00    +0.000 A 
ATOM      6  C   UNL     1      47.544   5.824  13.822  0.00  0.00    +0.000 A 
ATOM      7  C   UNL     1      48.312   6.420  14.829  0.00  0.00    +0.000 A 
ATOM      8  C   UNL     1      48.483   5.786  16.065  0.00  0.00    +0.000 A 
BRANCH   6   9
ATOM      9  C   UNL     1      47.381   6.497  12.482  0.00  0.00    +0.000 C 
BRANCH   9  10
ATOM     10  N   UNL     1      46.395   5.845  11.648  0.00  0.00    +0.000 N 
ATOM     11  C   UNL     1      45.095   6.297  11.623  0.00  0.00    +0.000 C 
ATOM     12  O   UNL     1      44.703   7.218  12.334  0.00  0.00    +0.000 OA
ATOM     13  H   UNL     1      46.734   5.305  10.858  0.00  0.00    +0.000 HD
BRANCH  11  14
ATOM     14  C   UNL     1      44.134   5.567  10.688  0.00  0.00    +0.000 C 
ATOM     15  C   UNL     1      43.031   4.825  11.410  0.00  0.00    +0.000 C 
ATOM     16  C   UNL     1      43.595   3.432  11.608  0.00  0.00    +0.000 C 
ATOM     17  O   UNL     1      44.683   3.266  10.687  0.00  0.00    +0.000 OA
ATOM     18  C   UNL     1      44.819   4.467   9.909  0.00  0.00    +0.000 C 
ENDBRANCH  11  14
ENDBRANCH   9  10
ENDBRANCH   6   9
ENDBRANCH   2   3
BRANCH   2  19
ATOM     19  N   UNL     1      49.435   3.482  17.860  0.00  0.00    +0.000 N 
ATOM     20  C   UNL     1      50.049   2.487  17.142  0.00  0.00    +0.000 C 
ATOM     21  O   UNL     1      49.492   1.855  16.253  0.00  0.00    +0.000 OA
ATOM     22  H   UNL     1      49.823   3.698  18.770  0.00  0.00    +0.000 HD
BRANCH  20  23
ATOM     23  C   UNL     1      51.470   2.282  17.454  0.00  0.00    +0.000 A 
ATOM     24  C   UNL     1      51.977   0.997  17.598  0.00  0.00    +0.000 A 
ATOM     25  S   UNL     1      53.658   0.960  17.897  0.00  0.00    +0.000 S 
ATOM     26  C   UNL     1      53.752   2.661  17.895  0.00  0.00    +0.000 A 
ATOM     27  N   UNL     1      54.932   3.300  18.120  0.00  0.00    +0.000 NA
ATOM     28  C   UNL     1      54.845   4.590  18.118  0.00  0.00    +0.000 A 
ATOM     29  N   UNL     1      53.692   5.298  17.906  0.00  0.00    +0.000 N 
ATOM     30  C   UNL     1      52.487   4.694  17.643  0.00  0.00    +0.000 A 
ATOM     31  O   UNL     1      51.485   5.356  17.402  0.00  0.00    +0.000 OA
ATOM     32  C   UNL     1      52.525   3.245  17.649  0.00  0.00    +0.000 A 
ATOM     33  H   UNL     1      53.690   6.306  17.908  0.00  0.00    +0.000 HD
ENDBRANCH  20  23
ENDBRANCH   2  19
TORSDOF 6
ENDMDL
MODEL 7
REMARK VINA RESULT:    -6.180      2.112      2.803
REMARK INTER + INTRA:          -9.590
REMARK INTER:                  -8.612
REMARK INTRA:                  -0.978
REMARK UNBOUND:                -1.242
REMARK  Name = 
REMARK  7 active torsions:
REMARK  status: ('A' for Active; 'I' for Inactive)
REMARK    1  A    between atoms: C_1  and  C_2
REMARK    2  A    between atoms: C_2  and  N_3
REMARK    3  A    between atoms: C_2  and  C_16
REMARK    4  A    between atoms: C_4  and  C_6
REMARK    5  A    between atoms: C_19  and  C_20
REMARK    6  A    between atoms: C_20  and  N_21
REMARK    7  A    between atoms: C_22  and  C_24
REMARK                            x       y       z     vdW  Elec       q    Type
REMARK                         _______ _______ _______ _____ _____    ______ ____
ROOT
ATOM      1  C   UNL     1      49.757   8.825  13.033  0.00  0.00    +0.000 C 
ATOM      2  C   UNL     1      49.183   7.632  13.804  0.00  0.00    +0.000 C 
ENDROOT
BRANCH   2   3
ATOM      3  C   UNL     1      47.838   7.216  13.213  0.00  0.00    +0.000 A 
ATOM      4  C   UNL     1      47.630   5.915  12.740  0.00  0.00    +0.000 A 
ATOM      5  C   UNL     1      46.382   5.529  12.225  0.00  0.00    +0.000 A 
ATOM      6  C   UNL     1      45.314   6.435  12.167  0.00  0.00    +0.000 A 
ATOM      7  C   UNL     1      45.516   7.733  12.652  0.00  0.00    +0.000 A 
ATOM      8  C   UNL     1      46.760   8.119  13.162  0.00  0.00    +0.000 A 
BRANCH   6   9
ATOM      9  C   UNL     1      43.979   6.030  11.595  0.00  0.00    +0.000 C 
BRANCH   9  10
ATOM     10  N   UNL     1      44.099   5.399  10.298  0.00  0.00    +0.000 N 
ATOM     11  C   UNL     1      44.027   4.029  10.179  0.00  0.00    +0.000 C 
ATOM     12  O   UNL     1      43.919   3.288  11.152  0.00  0.00    +0.000 OA
ATOM     13  H   UNL     1      43.891   5.966   9.481  0.00  0.00    +0.000 HD
BRANCH  11  14
ATOM     14  C   UNL     1      44.130   3.458   8.768  0.00  0.00    +0.000 C 
ATOM     15  C   UNL     1      44.396   1.969   8.733  0.00  0.00    +0.000 C 
ATOM     16  C   UNL     1      45.907   1.867   8.680  0.00  0.00    +0.000 C 
ATOM     17  O   UNL     1      46.415   3.137   8.248  0.00  0.00    +0.000 OA
ATOM     18  C   UNL     1      45.309   4.022   8.007  0.00  0.00    +0.000 C 
ENDBRANCH  11  14
ENDBRANCH   9  10
ENDBRANCH   6   9
ENDBRANCH   2   3
BRANCH   2  19
ATOM     19  N   UNL     1      48.998   7.922  15.218  0.00  0.00    +0.000 N 
ATOM     20  C   UNL     1      49.371   7.083  16.237  0.00  0.00    +0.000 C 
ATOM     21  O   UNL     1      49.945   6.016  16.057  0.00  0.00    +0.000 OA
ATOM     22  H   UNL     1      48.248   8.575  15.412  0.00  0.00    +0.000 HD
BRANCH  20  23
ATOM     23  C   UNL     1      49.112   7.595  17.591  0.00  0.00    +0.000 A 
ATOM     24  C   UNL     1      49.645   8.812  17.994  0.00  0.00    +0.000 A 
ATOM     25  S   UNL     1      49.183   9.265  19.574  0.00  0.00    +0.000 S 
ATOM     26  C   UNL     1      48.299   7.825  19.788  0.00  0.00    +0.000 A 
ATOM     27  N   UNL     1      47.655   7.562  20.959  0.00  0.00    +0.000 NA
ATOM     28  C   UNL     1      47.052   6.419  20.987  0.00  0.00    +0.000 A 
ATOM     29  N   UNL     1      47.025   5.521  19.954  0.00  0.00    +0.000 N 
ATOM     30  C   UNL     1      47.631   5.760  18.745  0.00  0.00    +0.000 A 
ATOM     31  O   UNL     1      47.542   4.960  17.821  0.00  0.00    +0.000 OA
ATOM     32  C   UNL     1      48.339   7.023  18.666  0.00  0.00    +0.000 A 
ATOM     33  H   UNL     1      46.527   4.648  20.034  0.00  0.00    +0.000 HD
ENDBRANCH  20  23
ENDBRANCH   2  19
TORSDOF 6
ENDMDL
MODEL 8
REMARK VINA RESULT:    -6.136      5.631      7.878
REMARK INTER + INTRA:          -9.531
REMARK INTER:                  -8.464
REMARK INTRA:                  -1.066
REMARK UNBOUND:                -1.242
REMARK  Name = 
REMARK  7 active torsions:
REMARK  status: ('A' for Active; 'I' for Inactive)
REMARK    1  A    between atoms: C_1  and  C_2
REMARK    2  A    between atoms: C_2  and  N_3
REMARK    3  A    between atoms: C_2  and  C_16
REMARK    4  A    between atoms: C_4  and  C_6
REMARK    5  A    between atoms: C_19  and  C_20
REMARK    6  A    between atoms: C_20  and  N_21
REMARK    7  A    between atoms: C_22  and  C_24
REMARK                            x       y       z     vdW  Elec       q    Type
REMARK                         _______ _______ _______ _____ _____    ______ ____
ROOT
ATOM      1  C   UNL     1      52.675   8.370  12.975  0.00  0.00    +0.000 C 
ATOM      2  C   UNL     1      51.609   8.820  11.970  0.00  0.00    +0.000 C 
ENDROOT
BRANCH   2   3
ATOM      3  C   UNL     1      50.249   8.236  12.343  0.00  0.00    +0.000 A 
ATOM      4  C   UNL     1      49.877   8.073  13.683  0.00  0.00    +0.000 A 
ATOM      5  C   UNL     1      48.613   7.563  14.021  0.00  0.00    +0.000 A 
ATOM      6  C   UNL     1      47.693   7.199  13.028  0.00  0.00    +0.000 A 
ATOM      7  C   UNL     1      48.058   7.374  11.688  0.00  0.00    +0.000 A 
ATOM      8  C   UNL     1      49.318   7.879  11.351  0.00  0.00    +0.000 A 
BRANCH   6   9
ATOM      9  C   UNL     1      46.343   6.632  13.388  0.00  0.00    +0.000 C 
BRANCH   9  10
ATOM     10  N   UNL     1      45.887   5.638  12.440  0.00  0.00    +0.000 N 
ATOM     11  C   UNL     1      45.593   4.359  12.857  0.00  0.00    +0.000 C 
ATOM     12  O   UNL     1      45.755   3.991  14.017  0.00  0.00    +0.000 OA
ATOM     13  H   UNL     1      45.470   5.972  11.576  0.00  0.00    +0.000 HD
BRANCH  11  14
ATOM     14  C   UNL     1      45.088   3.390  11.792  0.00  0.00    +0.000 C 
ATOM     15  C   UNL     1      45.015   3.994  10.407  0.00  0.00    +0.000 C 
ATOM     16  C   UNL     1      43.601   4.532  10.316  0.00  0.00    +0.000 C 
ATOM     17  O   UNL     1      42.822   3.887  11.332  0.00  0.00    +0.000 OA
ATOM     18  C   UNL     1      43.661   2.960  12.042  0.00  0.00    +0.000 C 
ENDBRANCH  11  14
ENDBRANCH   9  10
ENDBRANCH   6   9
ENDBRANCH   2   3
BRANCH   2  19
ATOM     19  N   UNL     1      51.927   8.420  10.608  0.00  0.00    +0.000 N 
ATOM     20  C   UNL     1      52.832   9.062   9.801  0.00  0.00    +0.000 C 
ATOM     21  O   UNL     1      53.504  10.019  10.168  0.00  0.00    +0.000 OA
ATOM     22  H   UNL     1      51.191   7.899  10.147  0.00  0.00    +0.000 HD
BRANCH  20  23
ATOM     23  C   UNL     1      53.013   8.465   8.470  0.00  0.00    +0.000 A 
ATOM     24  C   UNL     1      52.898   9.248   7.330  0.00  0.00    +0.000 A 
ATOM     25  S   UNL     1      53.200   8.391   5.884  0.00  0.00    +0.000 S 
ATOM     26  C   UNL     1      53.444   6.935   6.733  0.00  0.00    +0.000 A 
ATOM     27  N   UNL     1      53.726   5.777   6.076  0.00  0.00    +0.000 NA
ATOM     28  C   UNL     1      53.855   4.747   6.848  0.00  0.00    +0.000 A 
ATOM     29  N   UNL     1      53.737   4.770   8.212  0.00  0.00    +0.000 N 
ATOM     30  C   UNL     1      53.488   5.922   8.917  0.00  0.00    +0.000 A 
ATOM     31  O   UNL     1      53.443   5.920  10.141  0.00  0.00    +0.000 OA
ATOM     32  C   UNL     1      53.317   7.105   8.097  0.00  0.00    +0.000 A 
ATOM     33  H   UNL     1      53.859   3.934   8.761  0.00  0.00    +0.000 HD
ENDBRANCH  20  23
ENDBRANCH   2  19
TORSDOF 6
ENDMDL
MODEL 9
REMARK VINA RESULT:    -5.873      2.654      3.744
REMARK INTER + INTRA:          -9.176
REMARK INTER:                  -8.159
REMARK INTRA:                  -1.016
REMARK UNBOUND:                -1.242
REMARK  Name = 
REMARK  7 active torsions:
REMARK  status: ('A' for Active; 'I' for Inactive)
REMARK    1  A    between atoms: C_1  and  C_2
REMARK    2  A    between atoms: C_2  and  N_3
REMARK    3  A    between atoms: C_2  and  C_16
REMARK    4  A    between atoms: C_4  and  C_6
REMARK    5  A    between atoms: C_19  and  C_20
REMARK    6  A    between atoms: C_20  and  N_21
REMARK    7  A    between atoms: C_22  and  C_24
REMARK                            x       y       z     vdW  Elec       q    Type
REMARK                         _______ _______ _______ _____ _____    ______ ____
ROOT
ATOM      1  C   UNL     1      50.885   9.709  12.679  0.00  0.00    +0.000 C 
ATOM      2  C   UNL     1      50.424   8.249  12.627  0.00  0.00    +0.000 C 
ENDROOT
BRANCH   2   3
ATOM      3  C   UNL     1      48.913   8.178  12.418  0.00  0.00    +0.000 A 
ATOM      4  C   UNL     1      48.141   9.343  12.329  0.00  0.00    +0.000 A 
ATOM      5  C   UNL     1      46.756   9.272  12.107  0.00  0.00    +0.000 A 
ATOM      6  C   UNL     1      46.110   8.035  11.974  0.00  0.00    +0.000 A 
ATOM      7  C   UNL     1      46.881   6.869  12.050  0.00  0.00    +0.000 A 
ATOM      8  C   UNL     1      48.260   6.940  12.274  0.00  0.00    +0.000 A 
BRANCH   6   9
ATOM      9  C   UNL     1      44.619   7.955  11.757  0.00  0.00    +0.000 C 
BRANCH   9  10
ATOM     10  N   UNL     1      44.210   6.696  11.174  0.00  0.00    +0.000 N 
ATOM     11  C   UNL     1      43.583   5.742  11.945  0.00  0.00    +0.000 C 
ATOM     12  O   UNL     1      43.398   5.886  13.151  0.00  0.00    +0.000 OA
ATOM     13  H   UNL     1      44.076   6.667  10.168  0.00  0.00    +0.000 HD
BRANCH  11  14
ATOM     14  C   UNL     1      43.158   4.459  11.236  0.00  0.00    +0.000 C 
ATOM     15  C   UNL     1      43.588   3.198  11.952  0.00  0.00    +0.000 C 
ATOM     16  C   UNL     1      44.932   2.867  11.336  0.00  0.00    +0.000 C 
ATOM     17  O   UNL     1      45.028   3.573  10.091  0.00  0.00    +0.000 OA
ATOM     18  C   UNL     1      43.812   4.311   9.881  0.00  0.00    +0.000 C 
ENDBRANCH  11  14
ENDBRANCH   9  10
ENDBRANCH   6   9
ENDBRANCH   2   3
BRANCH   2  19
ATOM     19  N   UNL     1      50.758   7.518  13.839  0.00  0.00    +0.000 N 
ATOM     20  C   UNL     1      50.396   7.906  15.105  0.00  0.00    +0.000 C 
ATOM     21  O   UNL     1      49.709   8.893  15.337  0.00  0.00    +0.000 OA
ATOM     22  H   UNL     1      51.581   6.933  13.757  0.00  0.00    +0.000 HD
BRANCH  20  23
ATOM     23  C   UNL     1      50.821   6.997  16.180  0.00  0.00    +0.000 A 
ATOM     24  C   UNL     1      52.052   7.170  16.798  0.00  0.00    +0.000 A 
ATOM     25  S   UNL     1      52.339   6.057  18.060  0.00  0.00    +0.000 S 
ATOM     26  C   UNL     1      50.850   5.276  17.786  0.00  0.00    +0.000 A 
ATOM     27  N   UNL     1      50.475   4.198  18.527  0.00  0.00    +0.000 NA
ATOM     28  C   UNL     1      49.335   3.692  18.186  0.00  0.00    +0.000 A 
ATOM     29  N   UNL     1      48.535   4.167  17.182  0.00  0.00    +0.000 N 
ATOM     30  C   UNL     1      48.859   5.271  16.432  0.00  0.00    +0.000 A 
ATOM     31  O   UNL     1      48.096   5.705  15.578  0.00  0.00    +0.000 OA
ATOM     32  C   UNL     1      50.138   5.869  16.763  0.00  0.00    +0.000 A 
ATOM     33  H   UNL     1      47.650   3.733  16.970  0.00  0.00    +0.000 HD
ENDBRANCH  20  23
ENDBRANCH   2  19
TORSDOF 6
ENDMDL
