MODEL 1
REMARK VINA RESULT:    -8.140      0.000      0.000
REMARK INTER + INTRA:         -11.985
REMARK INTER:                 -10.995
REMARK INTRA:                  -0.990
REMARK UNBOUND:                -0.990
REMARK  Name = 
REMARK  7 active torsions:
REMARK  status: ('A' for Active; 'I' for Inactive)
REMARK    1  A    between atoms: C_1  and  C_2
REMARK    2  A    between atoms: C_2  and  N_3
REMARK    3  A    between atoms: C_2  and  C_12
REMARK    4  A    between atoms: C_4  and  C_6
REMARK    5  A    between atoms: C_15  and  C_16
REMARK    6  A    between atoms: C_16  and  N_17
REMARK    7  A    between atoms: C_18  and  C_20
REMARK                            x       y       z     vdW  Elec       q    Type
REMARK                         _______ _______ _______ _____ _____    ______ ____
ROOT
ATOM      1  C   UNL     1      45.308   5.674  12.046  0.00  0.00    +0.000 A 
ATOM      2  C   UNL     1      45.421   7.063  11.879  0.00  0.00    +0.000 A 
ATOM      3  C   UNL     1      46.439   7.782  12.512  0.00  0.00    +0.000 A 
ATOM      4  C   UNL     1      47.376   7.124  13.318  0.00  0.00    +0.000 A 
ATOM      5  C   UNL     1      47.235   5.746  13.528  0.00  0.00    +0.000 A 
ATOM      6  C   UNL     1      46.223   5.028  12.889  0.00  0.00    +0.000 A 
ENDROOT
BRANCH   1   8
ATOM      7  C   UNL     1      43.017   5.785  11.057  0.00  0.00    +0.000 C 
ATOM      8  C   UNL     1      44.252   4.905  11.269  0.00  0.00    +0.000 C 
BRANCH   8   9
ATOM      9  N   UNL     1      44.745   4.416   9.995  0.00  0.00    +0.000 N 
ATOM     10  C   UNL     1      44.527   3.132   9.550  0.00  0.00    +0.000 C 
ATOM     11  O   UNL     1      43.849   2.305  10.152  0.00  0.00    +0.000 OA
ATOM     12  H   UNL     1      45.417   4.960   9.462  0.00  0.00    +0.000 HD
BRANCH  10  13
ATOM     13  C   UNL     1      45.239   2.798   8.222  0.00  0.00    +0.000 C 
ATOM     14  C   UNL     1      46.124   1.560   8.394  0.00  0.00    +0.000 C 
ATOM     15  C   UNL     1      46.877   1.237   7.105  0.00  0.00    +0.000 C 
ATOM     16  C   UNL     1      47.615   2.465   6.580  0.00  0.00    +0.000 C 
ATOM     17  C   UNL     1      46.686   3.673   6.486  0.00  0.00    +0.000 C 
ATOM     18  N   UNL     1      46.057   3.960   7.779  0.00  0.00    +0.000 NA
ATOM     19  H   UNL     1      45.429   4.758   7.664  0.00  0.00    +0.000 HD
ENDBRANCH  10  13
ENDBRANCH   8   9
ENDBRANCH   1   8
BRANCH   4  20
ATOM     20  C   UNL     1      48.507   7.873  13.970  0.00  0.00    +0.000 C 
BRANCH  20  21
ATOM     21  N   UNL     1      48.461   7.747  15.402  0.00  0.00    +0.000 N 
ATOM     22  C   UNL     1      49.472   7.127  16.091  0.00  0.00    +0.000 C 
ATOM     23  O   UNL     1      50.477   6.699  15.530  0.00  0.00    +0.000 OA
ATOM     24  H   UNL     1      47.555   7.866  15.843  0.00  0.00    +0.000 HD
BRANCH  22  25
ATOM     25  C   UNL     1      49.319   7.066  17.548  0.00  0.00    +0.000 A 
ATOM     26  C   UNL     1      49.337   8.240  18.294  0.00  0.00    +0.000 A 
ATOM     27  S   UNL     1      49.069   7.992  19.959  0.00  0.00    +0.000 S 
ATOM     28  C   UNL     1      48.976   6.306  19.750  0.00  0.00    +0.000 A 
ATOM     29  N   UNL     1      48.769   5.479  20.811  0.00  0.00    +0.000 NA
ATOM     30  C   UNL     1      48.748   4.223  20.510  0.00  0.00    +0.000 A 
ATOM     31  N   UNL     1      48.919   3.719  19.247  0.00  0.00    +0.000 N 
ATOM     32  C   UNL     1      49.118   4.513  18.144  0.00  0.00    +0.000 A 
ATOM     33  O   UNL     1      49.255   4.031  17.025  0.00  0.00    +0.000 OA
ATOM     34  C   UNL     1      49.140   5.936  18.428  0.00  0.00    +0.000 A 
ATOM     35  H   UNL     1      48.887   2.724  19.079  0.00  0.00    +0.000 HD
ENDBRANCH  22  25
ENDBRANCH  20  21
ENDBRANCH   4  20
TORSDOF 6
ENDMDL
MODEL 2
REMARK VINA RESULT:    -8.083      1.679      2.383
REMARK INTER + INTRA:         -11.909
REMARK INTER:                 -10.918
REMARK INTRA:                  -0.991
REMARK UNBOUND:                -0.990
REMARK  Name = 
REMARK  7 active torsions:
REMARK  status: ('A' for Active; 'I' for Inactive)
REMARK    1  A    between atoms: C_1  and  C_2
REMARK    2  A    between atoms: C_2  and  N_3
REMARK    3  A    between atoms: C_2  and  C_12
REMARK    4  A    between atoms: C_4  and  C_6
REMARK    5  A    between atoms: C_15  and  C_16
REMARK    6  A    between atoms: C_16  and  N_17
REMARK    7  A    between atoms: C_18  and  C_20
REMARK                            x       y       z     vdW  Elec       q    Type
REMARK                         _______ _______ _______ _____ _____    ______ ____
ROOT
ATOM      1  C   UNL     1      45.230   5.396  12.143  0.00  0.00    +0.000 A 
ATOM      2  C   UNL     1      45.890   6.598  11.842  0.00  0.00    +0.000 A 
ATOM      3  C   UNL     1      46.959   7.045  12.626  0.00  0.00    +0.000 A 
ATOM      4  C   UNL     1      47.398   6.292  13.722  0.00  0.00    +0.000 A 
ATOM      5  C   UNL     1      46.707   5.120  14.054  0.00  0.00    +0.000 A 
ATOM      6  C   UNL     1      45.646   4.670  13.267  0.00  0.00    +0.000 A 
ENDROOT
BRANCH   1   8
ATOM      7  C   UNL     1      43.105   5.991  10.971  0.00  0.00    +0.000 C 
ATOM      8  C   UNL     1      44.136   4.887  11.218  0.00  0.00    +0.000 C 
BRANCH   8   9
ATOM      9  N   UNL     1      44.659   4.397   9.957  0.00  0.00    +0.000 N 
ATOM     10  C   UNL     1      44.516   3.093   9.541  0.00  0.00    +0.000 C 
ATOM     11  O   UNL     1      43.884   2.242  10.162  0.00  0.00    +0.000 OA
ATOM     12  H   UNL     1      45.301   4.966   9.411  0.00  0.00    +0.000 HD
BRANCH  10  13
ATOM     13  C   UNL     1      45.249   2.769   8.222  0.00  0.00    +0.000 C 
ATOM     14  C   UNL     1      46.123   1.522   8.396  0.00  0.00    +0.000 C 
ATOM     15  C   UNL     1      46.895   1.208   7.117  0.00  0.00    +0.000 C 
ATOM     16  C   UNL     1      47.651   2.437   6.619  0.00  0.00    +0.000 C 
ATOM     17  C   UNL     1      46.732   3.652   6.523  0.00  0.00    +0.000 C 
ATOM     18  N   UNL     1      46.083   3.930   7.807  0.00  0.00    +0.000 NA
ATOM     19  H   UNL     1      45.462   4.733   7.691  0.00  0.00    +0.000 HD
ENDBRANCH  10  13
ENDBRANCH   8   9
ENDBRANCH   1   8
BRANCH   4  20
ATOM     20  C   UNL     1      48.576   6.733  14.548  0.00  0.00    +0.000 C 
BRANCH  20  21
ATOM     21  N   UNL     1      48.209   6.914  15.927  0.00  0.00    +0.000 N 
ATOM     22  C   UNL     1      48.847   6.223  16.926  0.00  0.00    +0.000 C 
ATOM     23  O   UNL     1      49.785   5.464  16.698  0.00  0.00    +0.000 OA
ATOM     24  H   UNL     1      47.302   7.331  16.109  0.00  0.00    +0.000 HD
BRANCH  22  25
ATOM     25  C   UNL     1      48.393   6.496  18.293  0.00  0.00    +0.000 A 
ATOM     26  C   UNL     1      48.269   5.450  19.201  0.00  0.00    +0.000 A 
ATOM     27  S   UNL     1      47.806   5.955  20.762  0.00  0.00    +0.000 S 
ATOM     28  C   UNL     1      47.701   7.579  20.266  0.00  0.00    +0.000 A 
ATOM     29  N   UNL     1      47.331   8.556  21.139  0.00  0.00    +0.000 NA
ATOM     30  C   UNL     1      47.267   9.737  20.621  0.00  0.00    +0.000 A 
ATOM     31  N   UNL     1      47.536  10.029  19.309  0.00  0.00    +0.000 N 
ATOM     32  C   UNL     1      47.925   9.082  18.393  0.00  0.00    +0.000 A 
ATOM     33  O   UNL     1      48.169   9.378  17.230  0.00  0.00    +0.000 OA
ATOM     34  C   UNL     1      48.021   7.736  18.930  0.00  0.00    +0.000 A 
ATOM     35  H   UNL     1      47.471  10.977  18.966  0.00  0.00    +0.000 HD
ENDBRANCH  22  25
ENDBRANCH  20  21
ENDBRANCH   4  20
TORSDOF 6
ENDMDL
MODEL 3
REMARK VINA RESULT:    -7.855      1.975      2.332
REMARK INTER + INTRA:         -11.600
REMARK INTER:                 -10.561
REMARK INTRA:                  -1.039
REMARK UNBOUND:                -0.990
REMARK  Name = 
REMARK  7 active torsions:
REMARK  status: ('A' for Active; 'I' for Inactive)
REMARK    1  A    between atoms: C_1  and  C_2
REMARK    2  A    between atoms: C_2  and  N_3
REMARK    3  A    between atoms: C_2  and  C_12
REMARK    4  A    between atoms: C_4  and  C_6
REMARK    5  A    between atoms: C_15  and  C_16
REMARK    6  A    between atoms: C_16  and  N_17
REMARK    7  A    between atoms: C_18  and  C_20
REMARK                            x       y       z     vdW  Elec       q    Type
REMARK                         _______ _______ _______ _____ _____    ______ ____
ROOT
ATOM      1  C   UNL     1      45.518   5.556  12.127  0.00  0.00    +0.000 A 
ATOM      2  C   UNL     1      45.927   4.998  13.349  0.00  0.00    +0.000 A 
ATOM      3  C   UNL     1      46.867   5.647  14.156  0.00  0.00    +0.000 A 
ATOM      4  C   UNL     1      47.410   6.877  13.762  0.00  0.00    +0.000 A 
ATOM      5  C   UNL     1      47.042   7.409  12.520  0.00  0.00    +0.000 A 
ATOM      6  C   UNL     1      46.098   6.764  11.719  0.00  0.00    +0.000 A 
ENDROOT
BRANCH   1   8
ATOM      7  C   UNL     1      43.245   5.835  11.129  0.00  0.00    +0.000 C 
ATOM      8  C   UNL     1      44.424   4.877  11.319  0.00  0.00    +0.000 C 
BRANCH   8   9
ATOM      9  N   UNL     1      44.898   4.403  10.032  0.00  0.00    +0.000 N 
ATOM     10  C   UNL     1      44.626   3.142   9.551  0.00  0.00    +0.000 C 
ATOM     11  O   UNL     1      43.911   2.328  10.130  0.00  0.00    +0.000 OA
ATOM     12  H   UNL     1      45.594   4.931   9.514  0.00  0.00    +0.000 HD
BRANCH  10  13
ATOM     13  C   UNL     1      45.324   2.814   8.215  0.00  0.00    +0.000 C 
ATOM     14  C   UNL     1      46.199   1.566   8.369  0.00  0.00    +0.000 C 
ATOM     15  C   UNL     1      46.939   1.248   7.071  0.00  0.00    +0.000 C 
ATOM     16  C   UNL     1      47.685   2.474   6.553  0.00  0.00    +0.000 C 
ATOM     17  C   UNL     1      46.767   3.692   6.478  0.00  0.00    +0.000 C 
ATOM     18  N   UNL     1      46.151   3.972   7.777  0.00  0.00    +0.000 NA
ATOM     19  H   UNL     1      45.530   4.777   7.675  0.00  0.00    +0.000 HD
ENDBRANCH  10  13
ENDBRANCH   8   9
ENDBRANCH   1   8
BRANCH   4  20
ATOM     20  C   UNL     1      48.386   7.613  14.638  0.00  0.00    +0.000 C 
BRANCH  20  21
ATOM     21  N   UNL     1      49.375   6.722  15.185  0.00  0.00    +0.000 N 
ATOM     22  C   UNL     1      49.432   6.467  16.531  0.00  0.00    +0.000 C 
ATOM     23  O   UNL     1      48.619   6.942  17.320  0.00  0.00    +0.000 OA
ATOM     24  H   UNL     1      50.183   6.524  14.604  0.00  0.00    +0.000 HD
BRANCH  22  25
ATOM     25  C   UNL     1      50.476   5.536  16.970  0.00  0.00    +0.000 A 
ATOM     26  C   UNL     1      51.713   6.027  17.374  0.00  0.00    +0.000 A 
ATOM     27  S   UNL     1      52.778   4.815  17.925  0.00  0.00    +0.000 S 
ATOM     28  C   UNL     1      51.646   3.589  17.591  0.00  0.00    +0.000 A 
ATOM     29  N   UNL     1      51.940   2.282  17.827  0.00  0.00    +0.000 NA
ATOM     30  C   UNL     1      51.000   1.458  17.503  0.00  0.00    +0.000 A 
ATOM     31  N   UNL     1      49.795   1.823  16.960  0.00  0.00    +0.000 N 
ATOM     32  C   UNL     1      49.447   3.129  16.715  0.00  0.00    +0.000 A 
ATOM     33  O   UNL     1      48.356   3.423  16.241  0.00  0.00    +0.000 OA
ATOM     34  C   UNL     1      50.469   4.097  17.073  0.00  0.00    +0.000 A 
ATOM     35  H   UNL     1      49.099   1.128  16.731  0.00  0.00    +0.000 HD
ENDBRANCH  22  25
ENDBRANCH  20  21
ENDBRANCH   4  20
TORSDOF 6
ENDMDL
MODEL 4
REMARK VINA RESULT:    -7.826      4.886      9.976
REMARK INTER + INTRA:         -11.561
REMARK INTER:                 -10.582
REMARK INTRA:                  -0.979
REMARK UNBOUND:                -0.990
REMARK  Name = 
REMARK  7 active torsions:
REMARK  status: ('A' for Active; 'I' for Inactive)
REMARK    1  A    between atoms: C_1  and  C_2
REMARK    2  A    between atoms: C_2  and  N_3
REMARK    3  A    between atoms: C_2  and  C_12
REMARK    4  A    between atoms: C_4  and  C_6
REMARK    5  A    between atoms: C_15  and  C_16
REMARK    6  A    between atoms: C_16  and  N_17
REMARK    7  A    between atoms: C_18  and  C_20
REMARK                            x       y       z     vdW  Elec       q    Type
REMARK                         _______ _______ _______ _____ _____    ______ ____
ROOT
ATOM      1  C   UNL     1      51.649   2.855  17.768  0.00  0.00    +0.000 A 
ATOM      2  C   UNL     1      51.016   4.073  18.061  0.00  0.00    +0.000 A 
ATOM      3  C   UNL     1      49.650   4.249  17.814  0.00  0.00    +0.000 A 
ATOM      4  C   UNL     1      48.886   3.205  17.279  0.00  0.00    +0.000 A 
ATOM      5  C   UNL     1      49.527   2.007  16.938  0.00  0.00    +0.000 A 
ATOM      6  C   UNL     1      50.888   1.829  17.192  0.00  0.00    +0.000 A 
ENDROOT
BRANCH   1   8
ATOM      7  C   UNL     1      53.533   3.705  19.172  0.00  0.00    +0.000 C 
ATOM      8  C   UNL     1      53.111   2.660  18.136  0.00  0.00    +0.000 C 
BRANCH   8   9
ATOM      9  N   UNL     1      53.386   1.324  18.631  0.00  0.00    +0.000 N 
ATOM     10  C   UNL     1      54.171   0.420  17.953  0.00  0.00    +0.000 C 
ATOM     11  O   UNL     1      54.761   0.675  16.906  0.00  0.00    +0.000 OA
ATOM     12  H   UNL     1      52.864   0.951  19.419  0.00  0.00    +0.000 HD
BRANCH  10  13
ATOM     13  C   UNL     1      54.233  -0.976  18.609  0.00  0.00    +0.000 C 
ATOM     14  C   UNL     1      54.909  -1.974  17.664  0.00  0.00    +0.000 C 
ATOM     15  C   UNL     1      54.940  -3.375  18.272  0.00  0.00    +0.000 C 
ATOM     16  C   UNL     1      53.550  -3.798  18.739  0.00  0.00    +0.000 C 
ATOM     17  C   UNL     1      52.916  -2.734  19.631  0.00  0.00    +0.000 C 
ATOM     18  N   UNL     1      52.859  -1.437  18.951  0.00  0.00    +0.000 NA
ATOM     19  H   UNL     1      52.451  -0.752  19.589  0.00  0.00    +0.000 HD
ENDBRANCH  10  13
ENDBRANCH   8   9
ENDBRANCH   1   8
BRANCH   4  20
ATOM     20  C   UNL     1      47.407   3.360  17.051  0.00  0.00    +0.000 C 
BRANCH  20  21
ATOM     21  N   UNL     1      47.130   4.404  16.101  0.00  0.00    +0.000 N 
ATOM     22  C   UNL     1      47.162   4.161  14.752  0.00  0.00    +0.000 C 
ATOM     23  O   UNL     1      47.376   3.041  14.295  0.00  0.00    +0.000 OA
ATOM     24  H   UNL     1      47.196   5.359  16.438  0.00  0.00    +0.000 HD
BRANCH  22  25
ATOM     25  C   UNL     1      46.856   5.300  13.881  0.00  0.00    +0.000 A 
ATOM     26  C   UNL     1      47.774   6.335  13.748  0.00  0.00    +0.000 A 
ATOM     27  S   UNL     1      47.291   7.536  12.640  0.00  0.00    +0.000 S 
ATOM     28  C   UNL     1      45.815   6.745  12.340  0.00  0.00    +0.000 A 
ATOM     29  N   UNL     1      44.904   7.266  11.474  0.00  0.00    +0.000 NA
ATOM     30  C   UNL     1      43.819   6.575  11.363  0.00  0.00    +0.000 A 
ATOM     31  N   UNL     1      43.560   5.413  12.043  0.00  0.00    +0.000 N 
ATOM     32  C   UNL     1      44.452   4.842  12.918  0.00  0.00    +0.000 A 
ATOM     33  O   UNL     1      44.195   3.795  13.501  0.00  0.00    +0.000 OA
ATOM     34  C   UNL     1      45.694   5.576  13.070  0.00  0.00    +0.000 A 
ATOM     35  H   UNL     1      42.690   4.918  11.909  0.00  0.00    +0.000 HD
ENDBRANCH  22  25
ENDBRANCH  20  21
ENDBRANCH   4  20
TORSDOF 6
ENDMDL
MODEL 5
REMARK VINA RESULT:    -7.696      3.340      4.489
REMARK INTER + INTRA:         -11.385
REMARK INTER:                 -10.217
REMARK INTRA:                  -1.168
REMARK UNBOUND:                -0.990
REMARK  Name = 
REMARK  7 active torsions:
REMARK  status: ('A' for Active; 'I' for Inactive)
REMARK    1  A    between atoms: C_1  and  C_2
REMARK    2  A    between atoms: C_2  and  N_3
REMARK    3  A    between atoms: C_2  and  C_12
REMARK    4  A    between atoms: C_4  and  C_6
REMARK    5  A    between atoms: C_15  and  C_16
REMARK    6  A    between atoms: C_16  and  N_17
REMARK    7  A    between atoms: C_18  and  C_20
REMARK                            x       y       z     vdW  Elec       q    Type
REMARK                         _______ _______ _______ _____ _____    ______ ____
ROOT
ATOM      1  C   UNL     1      47.326   6.215  13.706  0.00  0.00    +0.000 A 
ATOM      2  C   UNL     1      48.254   6.811  14.573  0.00  0.00    +0.000 A 
ATOM      3  C   UNL     1      48.617   6.191  15.773  0.00  0.00    +0.000 A 
ATOM      4  C   UNL     1      48.067   4.952  16.125  0.00  0.00    +0.000 A 
ATOM      5  C   UNL     1      47.102   4.380  15.286  0.00  0.00    +0.000 A 
ATOM      6  C   UNL     1      46.747   4.996  14.084  0.00  0.00    +0.000 A 
ENDROOT
BRANCH   1   8
ATOM      7  C   UNL     1      48.302   7.473  11.781  0.00  0.00    +0.000 C 
ATOM      8  C   UNL     1      47.025   6.864  12.365  0.00  0.00    +0.000 C 
BRANCH   8   9
ATOM      9  N   UNL     1      46.433   5.937  11.419  0.00  0.00    +0.000 N 
ATOM     10  C   UNL     1      45.120   6.018  11.011  0.00  0.00    +0.000 C 
ATOM     11  O   UNL     1      44.350   6.910  11.356  0.00  0.00    +0.000 OA
ATOM     12  H   UNL     1      46.925   5.089  11.154  0.00  0.00    +0.000 HD
BRANCH  10  13
ATOM     13  C   UNL     1      44.676   4.862  10.090  0.00  0.00    +0.000 C 
ATOM     14  C   UNL     1      44.870   3.518  10.800  0.00  0.00    +0.000 C 
ATOM     15  C   UNL     1      44.480   2.354   9.891  0.00  0.00    +0.000 C 
ATOM     16  C   UNL     1      45.185   2.456   8.541  0.00  0.00    +0.000 C 
ATOM     17  C   UNL     1      44.996   3.837   7.919  0.00  0.00    +0.000 C 
ATOM     18  N   UNL     1      45.457   4.894   8.823  0.00  0.00    +0.000 NA
ATOM     19  H   UNL     1      45.291   5.798   8.378  0.00  0.00    +0.000 HD
ENDBRANCH  10  13
ENDBRANCH   8   9
ENDBRANCH   1   8
BRANCH   4  20
ATOM     20  C   UNL     1      48.480   4.246  17.388  0.00  0.00    +0.000 C 
BRANCH  20  21
ATOM     21  N   UNL     1      49.877   3.905  17.364  0.00  0.00    +0.000 N 
ATOM     22  C   UNL     1      50.681   4.135  18.451  0.00  0.00    +0.000 C 
ATOM     23  O   UNL     1      50.241   4.591  19.503  0.00  0.00    +0.000 OA
ATOM     24  H   UNL     1      50.298   3.765  16.452  0.00  0.00    +0.000 HD
BRANCH  22  25
ATOM     25  C   UNL     1      52.086   3.738  18.313  0.00  0.00    +0.000 A 
ATOM     26  C   UNL     1      53.093   4.658  18.583  0.00  0.00    +0.000 A 
ATOM     27  S   UNL     1      54.663   4.008  18.448  0.00  0.00    +0.000 S 
ATOM     28  C   UNL     1      54.054   2.492  17.971  0.00  0.00    +0.000 A 
ATOM     29  N   UNL     1      54.893   1.461  17.681  0.00  0.00    +0.000 NA
ATOM     30  C   UNL     1      54.296   0.378  17.307  0.00  0.00    +0.000 A 
ATOM     31  N   UNL     1      52.937   0.235  17.194  0.00  0.00    +0.000 N 
ATOM     32  C   UNL     1      52.050   1.242  17.487  0.00  0.00    +0.000 A 
ATOM     33  O   UNL     1      50.840   1.078  17.387  0.00  0.00    +0.000 OA
ATOM     34  C   UNL     1      52.672   2.479  17.922  0.00  0.00    +0.000 A 
ATOM     35  H   UNL     1      52.533  -0.642  16.899  0.00  0.00    +0.000 HD
ENDBRANCH  22  25
ENDBRANCH  20  21
ENDBRANCH   4  20
TORSDOF 6
ENDMDL
MODEL 6
REMARK VINA RESULT:    -7.597      3.486      5.002
REMARK INTER + INTRA:         -11.251
REMARK INTER:                 -10.142
REMARK INTRA:                  -1.109
REMARK UNBOUND:                -0.990
REMARK  Name = 
REMARK  7 active torsions:
REMARK  status: ('A' for Active; 'I' for Inactive)
REMARK    1  A    between atoms: C_1  and  C_2
REMARK    2  A    between atoms: C_2  and  N_3
REMARK    3  A    between atoms: C_2  and  C_12
REMARK    4  A    between atoms: C_4  and  C_6
REMARK    5  A    between atoms: C_15  and  C_16
REMARK    6  A    between atoms: C_16  and  N_17
REMARK    7  A    between atoms: C_18  and  C_20
REMARK                            x       y       z     vdW  Elec       q    Type
REMARK                         _______ _______ _______ _____ _____    ______ ____
ROOT
ATOM      1  C   UNL     1      47.596   5.834  14.345  0.00  0.00    +0.000 A 
ATOM      2  C   UNL     1      48.429   6.314  15.368  0.00  0.00    +0.000 A 
ATOM      3  C   UNL     1      48.628   5.574  16.538  0.00  0.00    +0.000 A 
ATOM      4  C   UNL     1      48.008   4.330  16.704  0.00  0.00    +0.000 A 
ATOM      5  C   UNL     1      47.136   3.874  15.708  0.00  0.00    +0.000 A 
ATOM      6  C   UNL     1      46.944   4.609  14.537  0.00  0.00    +0.000 A 
ENDROOT
BRANCH   1   8
ATOM      7  C   UNL     1      48.867   6.992  12.532  0.00  0.00    +0.000 C 
ATOM      8  C   UNL     1      47.475   6.613  13.045  0.00  0.00    +0.000 C 
BRANCH   8   9
ATOM      9  N   UNL     1      46.746   5.883  12.026  0.00  0.00    +0.000 N 
ATOM     10  C   UNL     1      45.468   6.214  11.636  0.00  0.00    +0.000 C 
ATOM     11  O   UNL     1      44.853   7.187  12.063  0.00  0.00    +0.000 OA
ATOM     12  H   UNL     1      47.094   4.991  11.684  0.00  0.00    +0.000 HD
BRANCH  10  13
ATOM     13  C   UNL     1      44.846   5.233  10.620  0.00  0.00    +0.000 C 
ATOM     14  C   UNL     1      44.748   3.832  11.232  0.00  0.00    +0.000 C 
ATOM     15  C   UNL     1      44.178   2.831  10.229  0.00  0.00    +0.000 C 
ATOM     16  C   UNL     1      44.943   2.885   8.909  0.00  0.00    +0.000 C 
ATOM     17  C   UNL     1      45.049   4.315   8.387  0.00  0.00    +0.000 C 
ATOM     18  N   UNL     1      45.669   5.198   9.380  0.00  0.00    +0.000 NA
ATOM     19  H   UNL     1      45.698   6.145   8.999  0.00  0.00    +0.000 HD
ENDBRANCH  10  13
ENDBRANCH   8   9
ENDBRANCH   1   8
BRANCH   4  20
ATOM     20  C   UNL     1      48.247   3.498  17.935  0.00  0.00    +0.000 C 
BRANCH  20  21
ATOM     21  N   UNL     1      49.646   3.210  18.107  0.00  0.00    +0.000 N 
ATOM     22  C   UNL     1      50.290   2.314  17.292  0.00  0.00    +0.000 C 
ATOM     23  O   UNL     1      49.723   1.761  16.354  0.00  0.00    +0.000 OA
ATOM     24  H   UNL     1      50.057   3.457  19.001  0.00  0.00    +0.000 HD
BRANCH  22  25
ATOM     25  C   UNL     1      51.717   2.107  17.558  0.00  0.00    +0.000 A 
ATOM     26  C   UNL     1      52.214   0.816  17.693  0.00  0.00    +0.000 A 
ATOM     27  S   UNL     1      53.903   0.757  17.921  0.00  0.00    +0.000 S 
ATOM     28  C   UNL     1      54.021   2.454  17.903  0.00  0.00    +0.000 A 
ATOM     29  N   UNL     1      55.221   3.074  18.065  0.00  0.00    +0.000 NA
ATOM     30  C   UNL     1      55.159   4.364  18.057  0.00  0.00    +0.000 A 
ATOM     31  N   UNL     1      54.005   5.089  17.907  0.00  0.00    +0.000 N 
ATOM     32  C   UNL     1      52.773   4.510  17.728  0.00  0.00    +0.000 A 
ATOM     33  O   UNL     1      51.762   5.187  17.584  0.00  0.00    +0.000 OA
ATOM     34  C   UNL     1      52.791   3.058  17.719  0.00  0.00    +0.000 A 
ATOM     35  H   UNL     1      54.026   6.099  17.907  0.00  0.00    +0.000 HD
ENDBRANCH  22  25
ENDBRANCH  20  21
ENDBRANCH   4  20
TORSDOF 6
ENDMDL
MODEL 7
REMARK VINA RESULT:    -7.500      4.871      9.763
REMARK INTER + INTRA:         -11.120
REMARK INTER:                  -9.840
REMARK INTRA:                  -1.281
REMARK UNBOUND:                -0.990
REMARK  Name = 
REMARK  7 active torsions:
REMARK  status: ('A' for Active; 'I' for Inactive)
REMARK    1  A    between atoms: C_1  and  C_2
REMARK    2  A    between atoms: C_2  and  N_3
REMARK    3  A    between atoms: C_2  and  C_12
REMARK    4  A    between atoms: C_4  and  C_6
REMARK    5  A    between atoms: C_15  and  C_16
REMARK    6  A    between atoms: C_16  and  N_17
REMARK    7  A    between atoms: C_18  and  C_20
REMARK                            x       y       z     vdW  Elec       q    Type
REMARK                         _______ _______ _______ _____ _____    ______ ____
ROOT
ATOM      1  C   UNL     1      51.521   2.907  17.744  0.00  0.00    +0.000 A 
ATOM      2  C   UNL     1      50.731   1.916  17.142  0.00  0.00    +0.000 A 
ATOM      3  C   UNL     1      49.370   2.132  16.898  0.00  0.00    +0.000 A 
ATOM      4  C   UNL     1      48.774   3.352  17.240  0.00  0.00    +0.000 A 
ATOM      5  C   UNL     1      49.549   4.322  17.889  0.00  0.00    +0.000 A 
ATOM      6  C   UNL     1      50.908   4.109  18.124  0.00  0.00    +0.000 A 
ENDROOT
BRANCH   1   8
ATOM      7  C   UNL     1      53.621   3.799  18.761  0.00  0.00    +0.000 C 
ATOM      8  C   UNL     1      53.016   2.681  17.908  0.00  0.00    +0.000 C 
BRANCH   8   9
ATOM      9  N   UNL     1      53.321   1.386  18.486  0.00  0.00    +0.000 N 
ATOM     10  C   UNL     1      54.024   0.412  17.814  0.00  0.00    +0.000 C 
ATOM     11  O   UNL     1      54.510   0.567  16.696  0.00  0.00    +0.000 OA
ATOM     12  H   UNL     1      52.876   1.091  19.351  0.00  0.00    +0.000 HD
BRANCH  10  13
ATOM     13  C   UNL     1      54.134  -0.924  18.578  0.00  0.00    +0.000 C 
ATOM     14  C   UNL     1      54.892  -1.954  17.733  0.00  0.00    +0.000 C 
ATOM     15  C   UNL     1      54.973  -3.301  18.449  0.00  0.00    +0.000 C 
ATOM     16  C   UNL     1      53.591  -3.761  18.905  0.00  0.00    +0.000 C 
ATOM     17  C   UNL     1      52.873  -2.667  19.691  0.00  0.00    +0.000 C 
ATOM     18  N   UNL     1      52.775  -1.430  18.912  0.00  0.00    +0.000 NA
ATOM     19  H   UNL     1      52.310  -0.722  19.483  0.00  0.00    +0.000 HD
ENDBRANCH  10  13
ENDBRANCH   8   9
ENDBRANCH   1   8
BRANCH   4  20
ATOM     20  C   UNL     1      47.324   3.621  16.943  0.00  0.00    +0.000 C 
BRANCH  20  21
ATOM     21  N   UNL     1      47.176   4.611  15.910  0.00  0.00    +0.000 N 
ATOM     22  C   UNL     1      47.187   4.260  14.585  0.00  0.00    +0.000 C 
ATOM     23  O   UNL     1      47.270   3.090  14.221  0.00  0.00    +0.000 OA
ATOM     24  H   UNL     1      47.352   5.576  16.173  0.00  0.00    +0.000 HD
BRANCH  22  25
ATOM     25  C   UNL     1      47.020   5.354  13.623  0.00  0.00    +0.000 A 
ATOM     26  C   UNL     1      46.002   5.294  12.678  0.00  0.00    +0.000 A 
ATOM     27  S   UNL     1      45.904   6.682  11.694  0.00  0.00    +0.000 S 
ATOM     28  C   UNL     1      47.251   7.387  12.458  0.00  0.00    +0.000 A 
ATOM     29  N   UNL     1      47.716   8.607  12.073  0.00  0.00    +0.000 NA
ATOM     30  C   UNL     1      48.759   9.008  12.720  0.00  0.00    +0.000 A 
ATOM     31  N   UNL     1      49.382   8.298  13.714  0.00  0.00    +0.000 N 
ATOM     32  C   UNL     1      48.943   7.070  14.146  0.00  0.00    +0.000 A 
ATOM     33  O   UNL     1      49.515   6.466  15.046  0.00  0.00    +0.000 OA
ATOM     34  C   UNL     1      47.765   6.579  13.455  0.00  0.00    +0.000 A 
ATOM     35  H   UNL     1      50.194   8.670  14.184  0.00  0.00    +0.000 HD
ENDBRANCH  22  25
ENDBRANCH  20  21
ENDBRANCH   4  20
TORSDOF 6
ENDMDL
MODEL 8
REMARK VINA RESULT:    -7.250      2.381      3.108
REMARK INTER + INTRA:         -10.784
REMARK INTER:                 -10.309
REMARK INTRA:                  -0.475
REMARK UNBOUND:                -0.990
REMARK  Name = 
REMARK  7 active torsions:
REMARK  status: ('A' for Active; 'I' for Inactive)
REMARK    1  A    between atoms: C_1  and  C_2
REMARK    2  A    between atoms: C_2  and  N_3
REMARK    3  A    between atoms: C_2  and  C_12
REMARK    4  A    between atoms: C_4  and  C_6
REMARK    5  A    between atoms: C_15  and  C_16
REMARK    6  A    between atoms: C_16  and  N_17
REMARK    7  A    between atoms: C_18  and  C_20
REMARK                            x       y       z     vdW  Elec       q    Type
REMARK                         _______ _______ _______ _____ _____    ______ ____
ROOT
ATOM      1  C   UNL     1      44.892   4.259  12.042  0.00  0.00    +0.000 A 
ATOM      2  C   UNL     1      45.067   5.571  12.509  0.00  0.00    +0.000 A 
ATOM      3  C   UNL     1      46.046   5.868  13.463  0.00  0.00    +0.000 A 
ATOM      4  C   UNL     1      46.880   4.860  13.961  0.00  0.00    +0.000 A 
ATOM      5  C   UNL     1      46.671   3.541  13.535  0.00  0.00    +0.000 A 
ATOM      6  C   UNL     1      45.700   3.247  12.577  0.00  0.00    +0.000 A 
ENDROOT
BRANCH   1   8
ATOM      7  C   UNL     1      43.180   5.280  10.536  0.00  0.00    +0.000 C 
ATOM      8  C   UNL     1      43.887   3.982  10.935  0.00  0.00    +0.000 C 
BRANCH   8   9
ATOM      9  N   UNL     1      44.497   3.365   9.772  0.00  0.00    +0.000 N 
ATOM     10  C   UNL     1      45.278   4.060   8.877  0.00  0.00    +0.000 C 
ATOM     11  O   UNL     1      45.581   5.243   9.008  0.00  0.00    +0.000 OA
ATOM     12  H   UNL     1      44.227   2.428   9.486  0.00  0.00    +0.000 HD
BRANCH  10  13
ATOM     13  C   UNL     1      45.728   3.229   7.657  0.00  0.00    +0.000 C 
ATOM     14  C   UNL     1      46.414   1.941   8.121  0.00  0.00    +0.000 C 
ATOM     15  C   UNL     1      46.911   1.122   6.931  0.00  0.00    +0.000 C 
ATOM     16  C   UNL     1      47.757   1.979   5.993  0.00  0.00    +0.000 C 
ATOM     17  C   UNL     1      47.034   3.270   5.617  0.00  0.00    +0.000 C 
ATOM     18  N   UNL     1      46.653   4.031   6.810  0.00  0.00    +0.000 NA
ATOM     19  H   UNL     1      46.154   4.871   6.513  0.00  0.00    +0.000 HD
ENDBRANCH  10  13
ENDBRANCH   8   9
ENDBRANCH   1   8
BRANCH   4  20
ATOM     20  C   UNL     1      47.969   5.168  14.952  0.00  0.00    +0.000 C 
BRANCH  20  21
ATOM     21  N   UNL     1      47.951   6.555  15.335  0.00  0.00    +0.000 N 
ATOM     22  C   UNL     1      48.947   7.087  16.113  0.00  0.00    +0.000 C 
ATOM     23  O   UNL     1      49.917   6.426  16.474  0.00  0.00    +0.000 OA
ATOM     24  H   UNL     1      47.063   7.039  15.259  0.00  0.00    +0.000 HD
BRANCH  22  25
ATOM     25  C   UNL     1      48.827   8.513  16.431  0.00  0.00    +0.000 A 
ATOM     26  C   UNL     1      49.389   9.460  15.582  0.00  0.00    +0.000 A 
ATOM     27  S   UNL     1      49.088  11.068  16.062  0.00  0.00    +0.000 S 
ATOM     28  C   UNL     1      48.246  10.556  17.449  0.00  0.00    +0.000 A 
ATOM     29  N   UNL     1      47.723  11.457  18.324  0.00  0.00    +0.000 NA
ATOM     30  C   UNL     1      47.134  10.929  19.344  0.00  0.00    +0.000 A 
ATOM     31  N   UNL     1      47.024   9.581  19.571  0.00  0.00    +0.000 N 
ATOM     32  C   UNL     1      47.524   8.633  18.713  0.00  0.00    +0.000 A 
ATOM     33  O   UNL     1      47.399   7.435  18.938  0.00  0.00    +0.000 OA
ATOM     34  C   UNL     1      48.188   9.177  17.542  0.00  0.00    +0.000 A 
ATOM     35  H   UNL     1      46.547   9.232  20.390  0.00  0.00    +0.000 HD
ENDBRANCH  22  25
ENDBRANCH  20  21
ENDBRANCH   4  20
TORSDOF 6
ENDMDL
MODEL 9
REMARK VINA RESULT:    -7.125      3.921      9.226
REMARK INTER + INTRA:         -10.614
REMARK INTER:                  -9.902
REMARK INTRA:                  -0.713
REMARK UNBOUND:                -0.990
REMARK  Name = 
REMARK  7 active torsions:
REMARK  status: ('A' for Active; 'I' for Inactive)
REMARK    1  A    between atoms: C_1  and  C_2
REMARK    2  A    between atoms: C_2  and  N_3
REMARK    3  A    between atoms: C_2  and  C_12
REMARK    4  A    between atoms: C_4  and  C_6
REMARK    5  A    between atoms: C_15  and  C_16
REMARK    6  A    between atoms: C_16  and  N_17
REMARK    7  A    between atoms: C_18  and  C_20
REMARK                            x       y       z     vdW  Elec       q    Type
REMARK                         _______ _______ _______ _____ _____    ______ ____
ROOT
ATOM      1  C   UNL     1      49.305   5.340  17.239  0.00  0.00    +0.000 A 
ATOM      2  C   UNL     1      48.140   4.945  16.564  0.00  0.00    +0.000 A 
ATOM      3  C   UNL     1      47.794   5.514  15.334  0.00  0.00    +0.000 A 
ATOM      4  C   UNL     1      48.616   6.484  14.746  0.00  0.00    +0.000 A 
ATOM      5  C   UNL     1      49.751   6.917  15.443  0.00  0.00    +0.000 A 
ATOM      6  C   UNL     1      50.100   6.342  16.666  0.00  0.00    +0.000 A 
ENDROOT
BRANCH   1   8
ATOM      7  C   UNL     1      48.644   3.600  18.905  0.00  0.00    +0.000 C 
ATOM      8  C   UNL     1      49.706   4.635  18.525  0.00  0.00    +0.000 C 
BRANCH   8   9
ATOM      9  N   UNL     1      51.010   4.007  18.431  0.00  0.00    +0.000 N 
ATOM     10  C   UNL     1      51.258   2.910  17.638  0.00  0.00    +0.000 C 
ATOM     11  O   UNL     1      50.425   2.402  16.892  0.00  0.00    +0.000 OA
ATOM     12  H   UNL     1      51.748   4.255  19.084  0.00  0.00    +0.000 HD
BRANCH  10  13
ATOM     13  C   UNL     1      52.686   2.341  17.781  0.00  0.00    +0.000 C 
ATOM     14  C   UNL     1      52.698   0.852  17.423  0.00  0.00    +0.000 C 
ATOM     15  C   UNL     1      54.092   0.254  17.602  0.00  0.00    +0.000 C 
ATOM     16  C   UNL     1      54.648   0.569  18.988  0.00  0.00    +0.000 C 
ATOM     17  C   UNL     1      54.553   2.060  19.298  0.00  0.00    +0.000 C 
ATOM     18  N   UNL     1      53.175   2.542  19.172  0.00  0.00    +0.000 NA
ATOM     19  H   UNL     1      53.162   3.545  19.365  0.00  0.00    +0.000 HD
ENDBRANCH  10  13
ENDBRANCH   8   9
ENDBRANCH   1   8
BRANCH   4  20
ATOM     20  C   UNL     1      48.286   7.073  13.402  0.00  0.00    +0.000 C 
BRANCH  20  21
ATOM     21  N   UNL     1      47.511   6.159  12.605  0.00  0.00    +0.000 N 
ATOM     22  C   UNL     1      46.474   6.603  11.826  0.00  0.00    +0.000 C 
ATOM     23  O   UNL     1      46.192   7.795  11.732  0.00  0.00    +0.000 OA
ATOM     24  H   UNL     1      47.565   5.177  12.854  0.00  0.00    +0.000 HD
BRANCH  22  25
ATOM     25  C   UNL     1      45.762   5.581  11.052  0.00  0.00    +0.000 A 
ATOM     26  C   UNL     1      45.833   5.592   9.663  0.00  0.00    +0.000 A 
ATOM     27  S   UNL     1      45.013   4.290   8.930  0.00  0.00    +0.000 S 
ATOM     28  C   UNL     1      44.487   3.699  10.436  0.00  0.00    +0.000 A 
ATOM     29  N   UNL     1      43.711   2.585  10.519  0.00  0.00    +0.000 NA
ATOM     30  C   UNL     1      43.365   2.266  11.722  0.00  0.00    +0.000 A 
ATOM     31  N   UNL     1      43.721   2.962  12.848  0.00  0.00    +0.000 N 
ATOM     32  C   UNL     1      44.512   4.084  12.816  0.00  0.00    +0.000 A 
ATOM     33  O   UNL     1      44.823   4.678  13.843  0.00  0.00    +0.000 OA
ATOM     34  C   UNL     1      44.937   4.479  11.486  0.00  0.00    +0.000 A 
ATOM     35  H   UNL     1      43.418   2.657  13.761  0.00  0.00    +0.000 HD
ENDBRANCH  22  25
ENDBRANCH  20  21
ENDBRANCH   4  20
TORSDOF 6
ENDMDL
