MODEL 1
REMARK VINA RESULT:    -8.564      0.000      0.000
REMARK INTER + INTRA:         -13.868
REMARK INTER:                 -12.569
REMARK INTRA:                  -1.299
REMARK UNBOUND:                -1.299
REMARK  Name = 
REMARK  9 active torsions:
REMARK  status: ('A' for Active; 'I' for Inactive)
REMARK    1  A    between atoms: C_1  and  O_2
REMARK    2  A    between atoms: O_2  and  C_3
REMARK    3  A    between atoms: C_10  and  C_11
REMARK    4  A    between atoms: N_13  and  C_14
REMARK    5  A    between atoms: C_14  and  C_15
REMARK    6  A    between atoms: C_18  and  C_19
REMARK    7  A    between atoms: C_19  and  N_20
REMARK    8  A    between atoms: N_20  and  C_21
REMARK    9  A    between atoms: C_21  and  C_22
REMARK                            x       y       z     vdW  Elec       q    Type
REMARK                         _______ _______ _______ _____ _____    ______ ____
ROOT
ATOM      1  C   UNL     1      46.802   6.066  12.719  0.00  0.00    +0.000 A 
ATOM      2  C   UNL     1      46.364   6.369  11.422  0.00  0.00    +0.000 A 
ATOM      3  C   UNL     1      45.278   5.683  10.861  0.00  0.00    +0.000 A 
ATOM      4  C   UNL     1      44.615   4.677  11.581  0.00  0.00    +0.000 A 
ATOM      5  C   UNL     1      45.031   4.410  12.891  0.00  0.00    +0.000 A 
ATOM      6  C   UNL     1      46.099   5.109  13.459  0.00  0.00    +0.000 A 
ENDROOT
BRANCH   1   7
ATOM      7  C   UNL     1      48.006   6.742  13.320  0.00  0.00    +0.000 C 
BRANCH   7  10
ATOM      8  C   UNL     1      49.016   6.888  15.544  0.00  0.00    +0.000 C 
ATOM      9  O   UNL     1      50.141   6.787  15.061  0.00  0.00    +0.000 OA
ATOM     10  N   UNL     1      47.899   6.874  14.752  0.00  0.00    +0.000 N 
ATOM     11  H   UNL     1      46.975   6.971  15.157  0.00  0.00    +0.000 HD
BRANCH   8  19
ATOM     12  C   UNL     1      48.917   4.634  18.173  0.00  0.00    +0.000 A 
ATOM     13  N   UNL     1      48.828   4.003  19.364  0.00  0.00    +0.000 NA
ATOM     14  C   UNL     1      48.634   4.739  20.459  0.00  0.00    +0.000 A 
ATOM     15  N   UNL     1      48.507   6.060  20.516  0.00  0.00    +0.000 NA
ATOM     16  C   UNL     1      48.587   6.651  19.311  0.00  0.00    +0.000 A 
ATOM     17  S   UNL     1      48.442   8.338  19.205  0.00  0.00    +0.000 S 
ATOM     18  C   UNL     1      48.640   8.296  17.520  0.00  0.00    +0.000 A 
ATOM     19  C   UNL     1      48.823   7.020  17.000  0.00  0.00    +0.000 A 
ATOM     20  C   UNL     1      48.787   6.030  18.079  0.00  0.00    +0.000 A 
BRANCH  12  22
ATOM     21  C   UNL     1      47.890   3.373  16.506  0.00  0.00    +0.000 C 
ATOM     22  O   UNL     1      49.120   3.856  17.050  0.00  0.00    +0.000 OA
ENDBRANCH  12  22
ENDBRANCH   8  19
ENDBRANCH   7  10
ENDBRANCH   1   7
BRANCH   4  23
ATOM     23  C   UNL     1      43.466   3.896  10.979  0.00  0.00    +0.000 C 
BRANCH  23  24
ATOM     24  N   UNL     1      43.786   3.419   9.637  0.00  0.00    +0.000 NA
ATOM     25  H   UNL     1      44.224   4.174   9.109  0.00  0.00    +0.000 HD
BRANCH  24  26
ATOM     26  C   UNL     1      44.702   2.280   9.676  0.00  0.00    +0.000 C 
BRANCH  26  27
ATOM     27  C   UNL     1      45.624   2.300   8.477  0.00  0.00    +0.000 A 
ATOM     28  C   UNL     1      46.309   1.143   8.071  0.00  0.00    +0.000 A 
ATOM     29  C   UNL     1      47.141   1.175   6.949  0.00  0.00    +0.000 A 
ATOM     30  C   UNL     1      47.291   2.360   6.237  0.00  0.00    +0.000 A 
ATOM     31  F   UNL     1      48.083   2.384   5.157  0.00  0.00    +0.000 F 
ATOM     32  C   UNL     1      46.632   3.518   6.628  0.00  0.00    +0.000 A 
ATOM     33  C   UNL     1      45.797   3.488   7.745  0.00  0.00    +0.000 A 
ENDBRANCH  26  27
ENDBRANCH  24  26
ENDBRANCH  23  24
ENDBRANCH   4  23
TORSDOF 8
ENDMDL
MODEL 2
REMARK VINA RESULT:    -8.349      1.378      2.545
REMARK INTER + INTRA:         -13.553
REMARK INTER:                 -12.392
REMARK INTRA:                  -1.162
REMARK UNBOUND:                -1.299
REMARK  Name = 
REMARK  9 active torsions:
REMARK  status: ('A' for Active; 'I' for Inactive)
REMARK    1  A    between atoms: C_1  and  O_2
REMARK    2  A    between atoms: O_2  and  C_3
REMARK    3  A    between atoms: C_10  and  C_11
REMARK    4  A    between atoms: N_13  and  C_14
REMARK    5  A    between atoms: C_14  and  C_15
REMARK    6  A    between atoms: C_18  and  C_19
REMARK    7  A    between atoms: C_19  and  N_20
REMARK    8  A    between atoms: N_20  and  C_21
REMARK    9  A    between atoms: C_21  and  C_22
REMARK                            x       y       z     vdW  Elec       q    Type
REMARK                         _______ _______ _______ _____ _____    ______ ____
ROOT
ATOM      1  C   UNL     1      46.868   6.099  12.937  0.00  0.00    +0.000 A 
ATOM      2  C   UNL     1      45.927   5.213  13.480  0.00  0.00    +0.000 A 
ATOM      3  C   UNL     1      44.804   4.825  12.736  0.00  0.00    +0.000 A 
ATOM      4  C   UNL     1      44.596   5.322  11.439  0.00  0.00    +0.000 A 
ATOM      5  C   UNL     1      45.562   6.174  10.889  0.00  0.00    +0.000 A 
ATOM      6  C   UNL     1      46.692   6.543  11.622  0.00  0.00    +0.000 A 
ENDROOT
BRANCH   1   7
ATOM      7  C   UNL     1      48.047   6.583  13.740  0.00  0.00    +0.000 C 
BRANCH   7  10
ATOM      8  C   UNL     1      49.012   6.280  15.968  0.00  0.00    +0.000 C 
ATOM      9  O   UNL     1      50.129   6.562  15.544  0.00  0.00    +0.000 OA
ATOM     10  N   UNL     1      47.920   6.263  15.140  0.00  0.00    +0.000 N 
ATOM     11  H   UNL     1      47.000   6.042  15.500  0.00  0.00    +0.000 HD
BRANCH   8  19
ATOM     12  C   UNL     1      47.865   8.034  18.727  0.00  0.00    +0.000 A 
ATOM     13  N   UNL     1      47.471   8.457  19.947  0.00  0.00    +0.000 NA
ATOM     14  C   UNL     1      47.495   7.589  20.958  0.00  0.00    +0.000 A 
ATOM     15  N   UNL     1      47.881   6.318  20.906  0.00  0.00    +0.000 NA
ATOM     16  C   UNL     1      48.279   5.938  19.680  0.00  0.00    +0.000 A 
ATOM     17  S   UNL     1      48.807   4.344  19.438  0.00  0.00    +0.000 S 
ATOM     18  C   UNL     1      49.097   4.639  17.792  0.00  0.00    +0.000 A 
ATOM     19  C   UNL     1      48.802   5.935  17.386  0.00  0.00    +0.000 A 
ATOM     20  C   UNL     1      48.314   6.717  18.524  0.00  0.00    +0.000 A 
BRANCH  12  22
ATOM     21  C   UNL     1      49.051   9.685  17.590  0.00  0.00    +0.000 C 
ATOM     22  O   UNL     1      47.832   8.947  17.691  0.00  0.00    +0.000 OA
ENDBRANCH  12  22
ENDBRANCH   8  19
ENDBRANCH   7  10
ENDBRANCH   1   7
BRANCH   4  23
ATOM     23  C   UNL     1      43.370   4.947  10.633  0.00  0.00    +0.000 C 
BRANCH  23  24
ATOM     24  N   UNL     1      43.732   4.299   9.377  0.00  0.00    +0.000 NA
ATOM     25  H   UNL     1      44.358   4.911   8.853  0.00  0.00    +0.000 HD
BRANCH  24  26
ATOM     26  C   UNL     1      44.407   3.022   9.605  0.00  0.00    +0.000 C 
BRANCH  26  27
ATOM     27  C   UNL     1      45.412   2.749   8.508  0.00  0.00    +0.000 A 
ATOM     28  C   UNL     1      45.797   3.759   7.612  0.00  0.00    +0.000 A 
ATOM     29  C   UNL     1      46.742   3.494   6.617  0.00  0.00    +0.000 A 
ATOM     30  C   UNL     1      47.297   2.224   6.516  0.00  0.00    +0.000 A 
ATOM     31  F   UNL     1      48.210   1.977   5.567  0.00  0.00    +0.000 F 
ATOM     32  C   UNL     1      46.922   1.208   7.386  0.00  0.00    +0.000 A 
ATOM     33  C   UNL     1      45.983   1.471   8.382  0.00  0.00    +0.000 A 
ENDBRANCH  26  27
ENDBRANCH  24  26
ENDBRANCH  23  24
ENDBRANCH   4  23
TORSDOF 8
ENDMDL
MODEL 3
REMARK VINA RESULT:    -8.136      2.211      2.931
REMARK INTER + INTRA:         -13.239
REMARK INTER:                 -12.150
REMARK INTRA:                  -1.090
REMARK UNBOUND:                -1.299
REMARK  Name = 
REMARK  9 active torsions:
REMARK  status: ('A' for Active; 'I' for Inactive)
REMARK    1  A    between atoms: C_1  and  O_2
REMARK    2  A    between atoms: O_2  and  C_3
REMARK    3  A    between atoms: C_10  and  C_11
REMARK    4  A    between atoms: N_13  and  C_14
REMARK    5  A    between atoms: C_14  and  C_15
REMARK    6  A    between atoms: C_18  and  C_19
REMARK    7  A    between atoms: C_19  and  N_20
REMARK    8  A    between atoms: N_20  and  C_21
REMARK    9  A    between atoms: C_21  and  C_22
REMARK                            x       y       z     vdW  Elec       q    Type
REMARK                         _______ _______ _______ _____ _____    ______ ____
ROOT
ATOM      1  C   UNL     1      47.482   6.187  14.011  0.00  0.00    +0.000 A 
ATOM      2  C   UNL     1      46.923   4.964  14.408  0.00  0.00    +0.000 A 
ATOM      3  C   UNL     1      46.021   4.291  13.572  0.00  0.00    +0.000 A 
ATOM      4  C   UNL     1      45.653   4.831  12.330  0.00  0.00    +0.000 A 
ATOM      5  C   UNL     1      46.249   6.032  11.923  0.00  0.00    +0.000 A 
ATOM      6  C   UNL     1      47.164   6.691  12.745  0.00  0.00    +0.000 A 
ENDROOT
BRANCH   1   7
ATOM      7  C   UNL     1      48.403   6.961  14.917  0.00  0.00    +0.000 C 
BRANCH   7  10
ATOM      8  C   UNL     1      49.613   6.041  16.834  0.00  0.00    +0.000 C 
ATOM      9  O   UNL     1      48.894   6.665  17.611  0.00  0.00    +0.000 OA
ATOM     10  N   UNL     1      49.439   6.131  15.478  0.00  0.00    +0.000 N 
ATOM     11  H   UNL     1      50.027   5.604  14.845  0.00  0.00    +0.000 HD
BRANCH   8  19
ATOM     12  C   UNL     1      50.108   2.613  16.929  0.00  0.00    +0.000 A 
ATOM     13  N   UNL     1      50.560   1.353  17.103  0.00  0.00    +0.000 NA
ATOM     14  C   UNL     1      51.755   1.179  17.667  0.00  0.00    +0.000 A 
ATOM     15  N   UNL     1      52.576   2.131  18.099  0.00  0.00    +0.000 NA
ATOM     16  C   UNL     1      52.085   3.370  17.922  0.00  0.00    +0.000 A 
ATOM     17  S   UNL     1      53.007   4.704  18.421  0.00  0.00    +0.000 S 
ATOM     18  C   UNL     1      51.811   5.788  17.896  0.00  0.00    +0.000 A 
ATOM     19  C   UNL     1      50.698   5.176  17.331  0.00  0.00    +0.000 A 
ATOM     20  C   UNL     1      50.863   3.721  17.351  0.00  0.00    +0.000 A 
BRANCH  12  22
ATOM     21  C   UNL     1      47.821   2.839  17.312  0.00  0.00    +0.000 C 
ATOM     22  O   UNL     1      48.868   2.773  16.341  0.00  0.00    +0.000 OA
ENDBRANCH  12  22
ENDBRANCH   8  19
ENDBRANCH   7  10
ENDBRANCH   1   7
BRANCH   4  23
ATOM     23  C   UNL     1      44.650   4.141  11.430  0.00  0.00    +0.000 C 
BRANCH  23  24
ATOM     24  N   UNL     1      45.200   2.918  10.853  0.00  0.00    +0.000 NA
ATOM     25  H   UNL     1      45.110   2.159  11.530  0.00  0.00    +0.000 HD
BRANCH  24  26
ATOM     26  C   UNL     1      44.499   2.538   9.627  0.00  0.00    +0.000 C 
BRANCH  26  27
ATOM     27  C   UNL     1      45.470   2.433   8.472  0.00  0.00    +0.000 A 
ATOM     28  C   UNL     1      45.705   3.526   7.623  0.00  0.00    +0.000 A 
ATOM     29  C   UNL     1      46.619   3.417   6.572  0.00  0.00    +0.000 A 
ATOM     30  C   UNL     1      47.293   2.218   6.368  0.00  0.00    +0.000 A 
ATOM     31  F   UNL     1      48.176   2.120   5.365  0.00  0.00    +0.000 F 
ATOM     32  C   UNL     1      47.067   1.121   7.189  0.00  0.00    +0.000 A 
ATOM     33  C   UNL     1      46.158   1.229   8.241  0.00  0.00    +0.000 A 
ENDBRANCH  26  27
ENDBRANCH  24  26
ENDBRANCH  23  24
ENDBRANCH   4  23
TORSDOF 8
ENDMDL
MODEL 4
REMARK VINA RESULT:    -7.945      1.849      1.984
REMARK INTER + INTRA:         -12.959
REMARK INTER:                 -11.690
REMARK INTRA:                  -1.269
REMARK UNBOUND:                -1.299
REMARK  Name = 
REMARK  9 active torsions:
REMARK  status: ('A' for Active; 'I' for Inactive)
REMARK    1  A    between atoms: C_1  and  O_2
REMARK    2  A    between atoms: O_2  and  C_3
REMARK    3  A    between atoms: C_10  and  C_11
REMARK    4  A    between atoms: N_13  and  C_14
REMARK    5  A    between atoms: C_14  and  C_15
REMARK    6  A    between atoms: C_18  and  C_19
REMARK    7  A    between atoms: C_19  and  N_20
REMARK    8  A    between atoms: N_20  and  C_21
REMARK    9  A    between atoms: C_21  and  C_22
REMARK                            x       y       z     vdW  Elec       q    Type
REMARK                         _______ _______ _______ _____ _____    ______ ____
ROOT
ATOM      1  C   UNL     1      45.888   6.810  12.879  0.00  0.00    +0.000 A 
ATOM      2  C   UNL     1      44.839   7.125  12.005  0.00  0.00    +0.000 A 
ATOM      3  C   UNL     1      44.045   6.111  11.451  0.00  0.00    +0.000 A 
ATOM      4  C   UNL     1      44.293   4.762  11.753  0.00  0.00    +0.000 A 
ATOM      5  C   UNL     1      45.316   4.458  12.660  0.00  0.00    +0.000 A 
ATOM      6  C   UNL     1      46.091   5.471  13.229  0.00  0.00    +0.000 A 
ENDROOT
BRANCH   1   7
ATOM      7  C   UNL     1      46.795   7.876  13.435  0.00  0.00    +0.000 C 
BRANCH   7  10
ATOM      8  C   UNL     1      48.634   8.052  15.040  0.00  0.00    +0.000 C 
ATOM      9  O   UNL     1      48.310   9.204  15.314  0.00  0.00    +0.000 OA
ATOM     10  N   UNL     1      47.937   7.319  14.116  0.00  0.00    +0.000 N 
ATOM     11  H   UNL     1      48.202   6.364  13.905  0.00  0.00    +0.000 HD
BRANCH   8  19
ATOM     12  C   UNL     1      49.128   5.022  16.646  0.00  0.00    +0.000 A 
ATOM     13  N   UNL     1      49.602   3.946  17.310  0.00  0.00    +0.000 NA
ATOM     14  C   UNL     1      50.884   3.939  17.674  0.00  0.00    +0.000 A 
ATOM     15  N   UNL     1      51.776   4.900  17.460  0.00  0.00    +0.000 NA
ATOM     16  C   UNL     1      51.264   5.959  16.809  0.00  0.00    +0.000 A 
ATOM     17  S   UNL     1      52.270   7.279  16.457  0.00  0.00    +0.000 S 
ATOM     18  C   UNL     1      50.998   8.108  15.700  0.00  0.00    +0.000 A 
ATOM     19  C   UNL     1      49.793   7.413  15.689  0.00  0.00    +0.000 A 
ATOM     20  C   UNL     1      49.955   6.122  16.362  0.00  0.00    +0.000 A 
BRANCH  12  22
ATOM     21  C   UNL     1      47.080   3.940  16.894  0.00  0.00    +0.000 C 
ATOM     22  O   UNL     1      47.797   5.011  16.276  0.00  0.00    +0.000 OA
ENDBRANCH  12  22
ENDBRANCH   8  19
ENDBRANCH   7  10
ENDBRANCH   1   7
BRANCH   4  23
ATOM     23  C   UNL     1      43.474   3.648  11.135  0.00  0.00    +0.000 C 
BRANCH  23  24
ATOM     24  N   UNL     1      43.851   3.412   9.745  0.00  0.00    +0.000 NA
ATOM     25  H   UNL     1      44.434   4.185   9.422  0.00  0.00    +0.000 HD
BRANCH  24  26
ATOM     26  C   UNL     1      44.599   2.165   9.594  0.00  0.00    +0.000 C 
BRANCH  26  27
ATOM     27  C   UNL     1      45.552   2.256   8.423  0.00  0.00    +0.000 A 
ATOM     28  C   UNL     1      46.344   1.159   8.047  0.00  0.00    +0.000 A 
ATOM     29  C   UNL     1      47.204   1.255   6.950  0.00  0.00    +0.000 A 
ATOM     30  C   UNL     1      47.275   2.444   6.234  0.00  0.00    +0.000 A 
ATOM     31  F   UNL     1      48.094   2.529   5.177  0.00  0.00    +0.000 F 
ATOM     32  C   UNL     1      46.508   3.544   6.595  0.00  0.00    +0.000 A 
ATOM     33  C   UNL     1      45.646   3.450   7.686  0.00  0.00    +0.000 A 
ENDBRANCH  26  27
ENDBRANCH  24  26
ENDBRANCH  23  24
ENDBRANCH   4  23
TORSDOF 8
ENDMDL
MODEL 5
REMARK VINA RESULT:    -7.344      1.620      2.653
REMARK INTER + INTRA:         -12.077
REMARK INTER:                 -11.577
REMARK INTRA:                  -0.500
REMARK UNBOUND:                -1.299
REMARK  Name = 
REMARK  9 active torsions:
REMARK  status: ('A' for Active; 'I' for Inactive)
REMARK    1  A    between atoms: C_1  and  O_2
REMARK    2  A    between atoms: O_2  and  C_3
REMARK    3  A    between atoms: C_10  and  C_11
REMARK    4  A    between atoms: N_13  and  C_14
REMARK    5  A    between atoms: C_14  and  C_15
REMARK    6  A    between atoms: C_18  and  C_19
REMARK    7  A    between atoms: C_19  and  N_20
REMARK    8  A    between atoms: N_20  and  C_21
REMARK    9  A    between atoms: C_21  and  C_22
REMARK                            x       y       z     vdW  Elec       q    Type
REMARK                         _______ _______ _______ _____ _____    ______ ____
ROOT
ATOM      1  C   UNL     1      46.531   4.449  13.693  0.00  0.00    +0.000 A 
ATOM      2  C   UNL     1      46.122   5.728  13.290  0.00  0.00    +0.000 A 
ATOM      3  C   UNL     1      45.134   5.881  12.306  0.00  0.00    +0.000 A 
ATOM      4  C   UNL     1      44.546   4.760  11.700  0.00  0.00    +0.000 A 
ATOM      5  C   UNL     1      44.930   3.487  12.139  0.00  0.00    +0.000 A 
ATOM      6  C   UNL     1      45.897   3.334  13.134  0.00  0.00    +0.000 A 
ENDROOT
BRANCH   1   7
ATOM      7  C   UNL     1      47.635   4.258  14.700  0.00  0.00    +0.000 C 
BRANCH   7  10
ATOM      8  C   UNL     1      48.418   5.172  16.830  0.00  0.00    +0.000 C 
ATOM      9  O   UNL     1      49.500   4.606  16.696  0.00  0.00    +0.000 OA
ATOM     10  N   UNL     1      47.433   5.052  15.886  0.00  0.00    +0.000 N 
ATOM     11  H   UNL     1      46.548   5.532  15.997  0.00  0.00    +0.000 HD
BRANCH   8  19
ATOM     12  C   UNL     1      48.229   8.583  17.405  0.00  0.00    +0.000 A 
ATOM     13  N   UNL     1      48.098   9.827  17.913  0.00  0.00    +0.000 NA
ATOM     14  C   UNL     1      47.786   9.955  19.203  0.00  0.00    +0.000 A 
ATOM     15  N   UNL     1      47.592   8.972  20.076  0.00  0.00    +0.000 NA
ATOM     16  C   UNL     1      47.745   7.751  19.536  0.00  0.00    +0.000 A 
ATOM     17  S   UNL     1      47.534   6.382  20.516  0.00  0.00    +0.000 S 
ATOM     18  C   UNL     1      47.863   5.342  19.215  0.00  0.00    +0.000 A 
ATOM     19  C   UNL     1      48.133   5.996  18.019  0.00  0.00    +0.000 A 
ATOM     20  C   UNL     1      48.066   7.446  18.215  0.00  0.00    +0.000 A 
BRANCH  12  22
ATOM     21  C   UNL     1      49.948   8.658  15.834  0.00  0.00    +0.000 C 
ATOM     22  O   UNL     1      48.550   8.469  16.066  0.00  0.00    +0.000 OA
ENDBRANCH  12  22
ENDBRANCH   8  19
ENDBRANCH   7  10
ENDBRANCH   1   7
BRANCH   4  23
ATOM     23  C   UNL     1      43.507   4.903  10.608  0.00  0.00    +0.000 C 
BRANCH  23  24
ATOM     24  N   UNL     1      44.024   4.466   9.315  0.00  0.00    +0.000 NA
ATOM     25  H   UNL     1      44.883   4.977   9.108  0.00  0.00    +0.000 HD
BRANCH  24  26
ATOM     26  C   UNL     1      44.319   3.033   9.309  0.00  0.00    +0.000 C 
BRANCH  26  27
ATOM     27  C   UNL     1      45.402   2.718   8.302  0.00  0.00    +0.000 A 
ATOM     28  C   UNL     1      46.066   1.481   8.316  0.00  0.00    +0.000 A 
ATOM     29  C   UNL     1      47.051   1.200   7.366  0.00  0.00    +0.000 A 
ATOM     30  C   UNL     1      47.375   2.153   6.408  0.00  0.00    +0.000 A 
ATOM     31  F   UNL     1      48.314   1.877   5.493  0.00  0.00    +0.000 F 
ATOM     32  C   UNL     1      46.739   3.388   6.383  0.00  0.00    +0.000 A 
ATOM     33  C   UNL     1      45.752   3.669   7.327  0.00  0.00    +0.000 A 
ENDBRANCH  26  27
ENDBRANCH  24  26
ENDBRANCH  23  24
ENDBRANCH   4  23
TORSDOF 8
ENDMDL
MODEL 6
REMARK VINA RESULT:    -7.281      1.791      2.589
REMARK INTER + INTRA:         -11.985
REMARK INTER:                 -11.422
REMARK INTRA:                  -0.562
REMARK UNBOUND:                -1.299
REMARK  Name = 
REMARK  9 active torsions:
REMARK  status: ('A' for Active; 'I' for Inactive)
REMARK    1  A    between atoms: C_1  and  O_2
REMARK    2  A    between atoms: O_2  and  C_3
REMARK    3  A    between atoms: C_10  and  C_11
REMARK    4  A    between atoms: N_13  and  C_14
REMARK    5  A    between atoms: C_14  and  C_15
REMARK    6  A    between atoms: C_18  and  C_19
REMARK    7  A    between atoms: C_19  and  N_20
REMARK    8  A    between atoms: N_20  and  C_21
REMARK    9  A    between atoms: C_21  and  C_22
REMARK                            x       y       z     vdW  Elec       q    Type
REMARK                         _______ _______ _______ _____ _____    ______ ____
ROOT
ATOM      1  C   UNL     1      46.643   5.221  13.499  0.00  0.00    +0.000 A 
ATOM      2  C   UNL     1      46.058   6.340  12.891  0.00  0.00    +0.000 A 
ATOM      3  C   UNL     1      45.005   6.184  11.979  0.00  0.00    +0.000 A 
ATOM      4  C   UNL     1      44.524   4.907  11.650  0.00  0.00    +0.000 A 
ATOM      5  C   UNL     1      45.087   3.797  12.293  0.00  0.00    +0.000 A 
ATOM      6  C   UNL     1      46.120   3.954  13.218  0.00  0.00    +0.000 A 
ENDROOT
BRANCH   1   7
ATOM      7  C   UNL     1      47.818   5.358  14.431  0.00  0.00    +0.000 C 
BRANCH   7  10
ATOM      8  C   UNL     1      48.904   7.019  15.863  0.00  0.00    +0.000 C 
ATOM      9  O   UNL     1      49.897   6.305  15.970  0.00  0.00    +0.000 OA
ATOM     10  N   UNL     1      47.823   6.625  15.118  0.00  0.00    +0.000 N 
ATOM     11  H   UNL     1      47.013   7.225  15.024  0.00  0.00    +0.000 HD
BRANCH   8  19
ATOM     12  C   UNL     1      47.756   8.065  18.960  0.00  0.00    +0.000 A 
ATOM     13  N   UNL     1      47.391   8.746  20.067  0.00  0.00    +0.000 NA
ATOM     14  C   UNL     1      47.608  10.061  20.103  0.00  0.00    +0.000 A 
ATOM     15  N   UNL     1      48.152  10.804  19.145  0.00  0.00    +0.000 NA
ATOM     16  C   UNL     1      48.489  10.093  18.055  0.00  0.00    +0.000 A 
ATOM     17  S   UNL     1      49.195  10.890  16.734  0.00  0.00    +0.000 S 
ATOM     18  C   UNL     1      49.313   9.440  15.861  0.00  0.00    +0.000 A 
ATOM     19  C   UNL     1      48.831   8.326  16.540  0.00  0.00    +0.000 A 
ATOM     20  C   UNL     1      48.331   8.723  17.859  0.00  0.00    +0.000 A 
BRANCH  12  22
ATOM     21  C   UNL     1      47.353   6.172  20.256  0.00  0.00    +0.000 C 
ATOM     22  O   UNL     1      47.525   6.703  18.941  0.00  0.00    +0.000 OA
ENDBRANCH  12  22
ENDBRANCH   8  19
ENDBRANCH   7  10
ENDBRANCH   1   7
BRANCH   4  23
ATOM     23  C   UNL     1      43.415   4.713  10.637  0.00  0.00    +0.000 C 
BRANCH  23  24
ATOM     24  N   UNL     1      43.935   4.258   9.352  0.00  0.00    +0.000 NA
ATOM     25  H   UNL     1      44.704   4.867   9.068  0.00  0.00    +0.000 HD
BRANCH  24  26
ATOM     26  C   UNL     1      44.428   2.884   9.426  0.00  0.00    +0.000 C 
BRANCH  26  27
ATOM     27  C   UNL     1      45.462   2.632   8.350  0.00  0.00    +0.000 A 
ATOM     28  C   UNL     1      45.799   3.630   7.422  0.00  0.00    +0.000 A 
ATOM     29  C   UNL     1      46.769   3.385   6.447  0.00  0.00    +0.000 A 
ATOM     30  C   UNL     1      47.398   2.147   6.398  0.00  0.00    +0.000 A 
ATOM     31  F   UNL     1      48.335   1.919   5.467  0.00  0.00    +0.000 F 
ATOM     32  C   UNL     1      47.072   1.142   7.299  0.00  0.00    +0.000 A 
ATOM     33  C   UNL     1      46.107   1.385   8.276  0.00  0.00    +0.000 A 
ENDBRANCH  26  27
ENDBRANCH  24  26
ENDBRANCH  23  24
ENDBRANCH   4  23
TORSDOF 8
ENDMDL
MODEL 7
REMARK VINA RESULT:    -7.120      2.932      4.022
REMARK INTER + INTRA:         -11.748
REMARK INTER:                 -11.519
REMARK INTRA:                  -0.229
REMARK UNBOUND:                -1.299
REMARK  Name = 
REMARK  9 active torsions:
REMARK  status: ('A' for Active; 'I' for Inactive)
REMARK    1  A    between atoms: C_1  and  O_2
REMARK    2  A    between atoms: O_2  and  C_3
REMARK    3  A    between atoms: C_10  and  C_11
REMARK    4  A    between atoms: N_13  and  C_14
REMARK    5  A    between atoms: C_14  and  C_15
REMARK    6  A    between atoms: C_18  and  C_19
REMARK    7  A    between atoms: C_19  and  N_20
REMARK    8  A    between atoms: N_20  and  C_21
REMARK    9  A    between atoms: C_21  and  C_22
REMARK                            x       y       z     vdW  Elec       q    Type
REMARK                         _______ _______ _______ _____ _____    ______ ____
ROOT
ATOM      1  C   UNL     1      44.980   6.628  12.553  0.00  0.00    +0.000 A 
ATOM      2  C   UNL     1      43.958   6.505  11.601  0.00  0.00    +0.000 A 
ATOM      3  C   UNL     1      43.429   5.246  11.285  0.00  0.00    +0.000 A 
ATOM      4  C   UNL     1      43.919   4.086  11.907  0.00  0.00    +0.000 A 
ATOM      5  C   UNL     1      44.910   4.222  12.886  0.00  0.00    +0.000 A 
ATOM      6  C   UNL     1      45.421   5.478  13.217  0.00  0.00    +0.000 A 
ENDROOT
BRANCH   1   7
ATOM      7  C   UNL     1      45.610   7.961  12.863  0.00  0.00    +0.000 C 
BRANCH   7  10
ATOM      8  C   UNL     1      48.005   7.595  13.204  0.00  0.00    +0.000 C 
ATOM      9  O   UNL     1      48.179   7.481  11.994  0.00  0.00    +0.000 OA
ATOM     10  N   UNL     1      46.759   7.833  13.723  0.00  0.00    +0.000 N 
ATOM     11  H   UNL     1      46.626   7.939  14.721  0.00  0.00    +0.000 HD
BRANCH   8  19
ATOM     12  C   UNL     1      51.281   8.722  13.209  0.00  0.00    +0.000 A 
ATOM     13  N   UNL     1      52.571   9.016  13.477  0.00  0.00    +0.000 NA
ATOM     14  C   UNL     1      53.094   8.590  14.627  0.00  0.00    +0.000 A 
ATOM     15  N   UNL     1      52.477   7.882  15.566  0.00  0.00    +0.000 NA
ATOM     16  C   UNL     1      51.200   7.597  15.258  0.00  0.00    +0.000 A 
ATOM     17  S   UNL     1      50.266   6.696  16.351  0.00  0.00    +0.000 S 
ATOM     18  C   UNL     1      48.914   6.767  15.328  0.00  0.00    +0.000 A 
ATOM     19  C   UNL     1      49.129   7.471  14.149  0.00  0.00    +0.000 A 
ATOM     20  C   UNL     1      50.507   7.966  14.107  0.00  0.00    +0.000 A 
BRANCH  12  22
ATOM     21  C   UNL     1      51.778   9.467  11.059  0.00  0.00    +0.000 C 
ATOM     22  O   UNL     1      50.756   9.173  12.014  0.00  0.00    +0.000 OA
ENDBRANCH  12  22
ENDBRANCH   8  19
ENDBRANCH   7  10
ENDBRANCH   1   7
BRANCH   4  23
ATOM     23  C   UNL     1      43.390   2.713  11.551  0.00  0.00    +0.000 C 
BRANCH  23  24
ATOM     24  N   UNL     1      44.025   2.188  10.346  0.00  0.00    +0.000 NA
ATOM     25  H   UNL     1      43.407   1.501   9.914  0.00  0.00    +0.000 HD
BRANCH  24  26
ATOM     26  C   UNL     1      44.299   3.248   9.377  0.00  0.00    +0.000 C 
BRANCH  26  27
ATOM     27  C   UNL     1      45.372   2.813   8.403  0.00  0.00    +0.000 A 
ATOM     28  C   UNL     1      45.911   1.518   8.452  0.00  0.00    +0.000 A 
ATOM     29  C   UNL     1      46.888   1.127   7.532  0.00  0.00    +0.000 A 
ATOM     30  C   UNL     1      47.326   2.029   6.569  0.00  0.00    +0.000 A 
ATOM     31  F   UNL     1      48.256   1.648   5.683  0.00  0.00    +0.000 F 
ATOM     32  C   UNL     1      46.814   3.318   6.511  0.00  0.00    +0.000 A 
ATOM     33  C   UNL     1      45.836   3.709   7.425  0.00  0.00    +0.000 A 
ENDBRANCH  26  27
ENDBRANCH  24  26
ENDBRANCH  23  24
ENDBRANCH   4  23
TORSDOF 8
ENDMDL
MODEL 8
REMARK VINA RESULT:    -7.063      3.720      5.752
REMARK INTER + INTRA:         -11.665
REMARK INTER:                 -10.080
REMARK INTRA:                  -1.585
REMARK UNBOUND:                -1.299
REMARK  Name = 
REMARK  9 active torsions:
REMARK  status: ('A' for Active; 'I' for Inactive)
REMARK    1  A    between atoms: C_1  and  O_2
REMARK    2  A    between atoms: O_2  and  C_3
REMARK    3  A    between atoms: C_10  and  C_11
REMARK    4  A    between atoms: N_13  and  C_14
REMARK    5  A    between atoms: C_14  and  C_15
REMARK    6  A    between atoms: C_18  and  C_19
REMARK    7  A    between atoms: C_19  and  N_20
REMARK    8  A    between atoms: N_20  and  C_21
REMARK    9  A    between atoms: C_21  and  C_22
REMARK                            x       y       z     vdW  Elec       q    Type
REMARK                         _______ _______ _______ _____ _____    ______ ____
ROOT
ATOM      1  C   UNL     1      47.896   4.157  16.411  0.00  0.00    +0.000 A 
ATOM      2  C   UNL     1      47.178   3.736  15.284  0.00  0.00    +0.000 A 
ATOM      3  C   UNL     1      46.996   4.598  14.194  0.00  0.00    +0.000 A 
ATOM      4  C   UNL     1      47.519   5.901  14.215  0.00  0.00    +0.000 A 
ATOM      5  C   UNL     1      48.272   6.299  15.326  0.00  0.00    +0.000 A 
ATOM      6  C   UNL     1      48.472   5.433  16.403  0.00  0.00    +0.000 A 
ENDROOT
BRANCH   1   7
ATOM      7  C   UNL     1      48.050   3.274  17.622  0.00  0.00    +0.000 C 
BRANCH   7  10
ATOM      8  C   UNL     1      50.219   2.243  17.149  0.00  0.00    +0.000 C 
ATOM      9  O   UNL     1      49.768   1.714  16.136  0.00  0.00    +0.000 OA
ATOM     10  N   UNL     1      49.434   3.033  17.947  0.00  0.00    +0.000 N 
ATOM     11  H   UNL     1      49.816   3.476  18.774  0.00  0.00    +0.000 HD
BRANCH   8  19
ATOM     12  C   UNL     1      52.751   4.359  18.202  0.00  0.00    +0.000 A 
ATOM     13  N   UNL     1      53.901   4.929  18.623  0.00  0.00    +0.000 NA
ATOM     14  C   UNL     1      54.951   4.141  18.857  0.00  0.00    +0.000 A 
ATOM     15  N   UNL     1      55.002   2.821  18.713  0.00  0.00    +0.000 NA
ATOM     16  C   UNL     1      53.845   2.293  18.279  0.00  0.00    +0.000 A 
ATOM     17  S   UNL     1      53.739   0.617  18.039  0.00  0.00    +0.000 S 
ATOM     18  C   UNL     1      52.120   0.742  17.544  0.00  0.00    +0.000 A 
ATOM     19  C   UNL     1      51.622   2.040  17.552  0.00  0.00    +0.000 A 
ATOM     20  C   UNL     1      52.663   2.972  17.991  0.00  0.00    +0.000 A 
BRANCH  12  22
ATOM     21  C   UNL     1      51.899   6.052  16.848  0.00  0.00    +0.000 C 
ATOM     22  O   UNL     1      51.674   5.191  17.966  0.00  0.00    +0.000 OA
ENDBRANCH  12  22
ENDBRANCH   8  19
ENDBRANCH   7  10
ENDBRANCH   1   7
BRANCH   4  23
ATOM     23  C   UNL     1      47.300   6.862  13.065  0.00  0.00    +0.000 C 
BRANCH  23  24
ATOM     24  N   UNL     1      46.005   7.528  13.162  0.00  0.00    +0.000 NA
ATOM     25  H   UNL     1      46.152   8.522  13.339  0.00  0.00    +0.000 HD
BRANCH  24  26
ATOM     26  C   UNL     1      45.231   7.381  11.930  0.00  0.00    +0.000 C 
BRANCH  26  27
ATOM     27  C   UNL     1      44.635   5.994  11.840  0.00  0.00    +0.000 A 
ATOM     28  C   UNL     1      44.908   5.158  10.745  0.00  0.00    +0.000 A 
ATOM     29  C   UNL     1      44.364   3.872  10.688  0.00  0.00    +0.000 A 
ATOM     30  C   UNL     1      43.547   3.424  11.720  0.00  0.00    +0.000 A 
ATOM     31  F   UNL     1      43.035   2.187  11.666  0.00  0.00    +0.000 F 
ATOM     32  C   UNL     1      43.255   4.239  12.806  0.00  0.00    +0.000 A 
ATOM     33  C   UNL     1      43.800   5.520  12.868  0.00  0.00    +0.000 A 
ENDBRANCH  26  27
ENDBRANCH  24  26
ENDBRANCH  23  24
ENDBRANCH   4  23
TORSDOF 8
ENDMDL
MODEL 9
REMARK VINA RESULT:    -6.912      5.050      9.472
REMARK INTER + INTRA:         -11.444
REMARK INTER:                 -10.346
REMARK INTRA:                  -1.098
REMARK UNBOUND:                -1.299
REMARK  Name = 
REMARK  9 active torsions:
REMARK  status: ('A' for Active; 'I' for Inactive)
REMARK    1  A    between atoms: C_1  and  O_2
REMARK    2  A    between atoms: O_2  and  C_3
REMARK    3  A    between atoms: C_10  and  C_11
REMARK    4  A    between atoms: N_13  and  C_14
REMARK    5  A    between atoms: C_14  and  C_15
REMARK    6  A    between atoms: C_18  and  C_19
REMARK    7  A    between atoms: C_19  and  N_20
REMARK    8  A    between atoms: N_20  and  C_21
REMARK    9  A    between atoms: C_21  and  C_22
REMARK                            x       y       z     vdW  Elec       q    Type
REMARK                         _______ _______ _______ _____ _____    ______ ____
ROOT
ATOM      1  C   UNL     1      48.670   3.317  17.242  0.00  0.00    +0.000 A 
ATOM      2  C   UNL     1      49.516   2.230  16.980  0.00  0.00    +0.000 A 
ATOM      3  C   UNL     1      50.878   2.295  17.303  0.00  0.00    +0.000 A 
ATOM      4  C   UNL     1      51.423   3.451  17.885  0.00  0.00    +0.000 A 
ATOM      5  C   UNL     1      50.564   4.516  18.182  0.00  0.00    +0.000 A 
ATOM      6  C   UNL     1      49.202   4.443  17.881  0.00  0.00    +0.000 A 
ENDROOT
BRANCH   1   7
ATOM      7  C   UNL     1      47.217   3.297  16.845  0.00  0.00    +0.000 C 
BRANCH   7  10
ATOM      8  C   UNL     1      46.954   4.163  14.572  0.00  0.00    +0.000 C 
ATOM      9  O   UNL     1      47.295   3.081  14.100  0.00  0.00    +0.000 OA
ATOM     10  N   UNL     1      46.890   4.358  15.926  0.00  0.00    +0.000 N 
ATOM     11  H   UNL     1      46.595   5.249  16.307  0.00  0.00    +0.000 HD
BRANCH   8  19
ATOM     12  C   UNL     1      44.143   5.023  12.738  0.00  0.00    +0.000 A 
ATOM     13  N   UNL     1      43.215   5.597  11.943  0.00  0.00    +0.000 NA
ATOM     14  C   UNL     1      43.509   6.761  11.363  0.00  0.00    +0.000 A 
ATOM     15  N   UNL     1      44.646   7.439  11.473  0.00  0.00    +0.000 NA
ATOM     16  C   UNL     1      45.550   6.829  12.260  0.00  0.00    +0.000 A 
ATOM     17  S   UNL     1      47.060   7.561  12.506  0.00  0.00    +0.000 S 
ATOM     18  C   UNL     1      47.562   6.294  13.517  0.00  0.00    +0.000 A 
ATOM     19  C   UNL     1      46.609   5.298  13.697  0.00  0.00    +0.000 A 
ATOM     20  C   UNL     1      45.400   5.620  12.936  0.00  0.00    +0.000 A 
BRANCH  12  22
ATOM     21  C   UNL     1      43.651   2.776  12.368  0.00  0.00    +0.000 C 
ATOM     22  O   UNL     1      43.820   3.818  13.332  0.00  0.00    +0.000 OA
ENDBRANCH  12  22
ENDBRANCH   8  19
ENDBRANCH   7  10
ENDBRANCH   1   7
BRANCH   4  23
ATOM     23  C   UNL     1      52.899   3.558  18.205  0.00  0.00    +0.000 C 
BRANCH  23  24
ATOM     24  N   UNL     1      53.274   2.676  19.307  0.00  0.00    +0.000 NA
ATOM     25  H   UNL     1      52.676   1.850  19.292  0.00  0.00    +0.000 HD
BRANCH  24  26
ATOM     26  C   UNL     1      54.668   2.248  19.203  0.00  0.00    +0.000 C 
BRANCH  26  27
ATOM     27  C   UNL     1      54.804   1.119  18.206  0.00  0.00    +0.000 A 
ATOM     28  C   UNL     1      54.344  -0.173  18.508  0.00  0.00    +0.000 A 
ATOM     29  C   UNL     1      54.461  -1.199  17.567  0.00  0.00    +0.000 A 
ATOM     30  C   UNL     1      55.037  -0.936  16.330  0.00  0.00    +0.000 A 
ATOM     31  F   UNL     1      55.138  -1.920  15.426  0.00  0.00    +0.000 F 
ATOM     32  C   UNL     1      55.508   0.332  16.014  0.00  0.00    +0.000 A 
ATOM     33  C   UNL     1      55.389   1.359  16.950  0.00  0.00    +0.000 A 
ENDBRANCH  26  27
ENDBRANCH  24  26
ENDBRANCH  23  24
ENDBRANCH   4  23
TORSDOF 8
ENDMDL
