MODEL 1
REMARK VINA RESULT:    -8.643      0.000      0.000
REMARK INTER + INTRA:         -11.844
REMARK INTER:                 -11.170
REMARK INTRA:                  -0.674
REMARK UNBOUND:                -0.674
REMARK  Name = 
REMARK  5 active torsions:
REMARK  status: ('A' for Active; 'I' for Inactive)
REMARK    1  A    between atoms: C_2  and  C_3
REMARK    2  A    between atoms: C_7  and  N_8
REMARK    3  A    between atoms: N_8  and  C_9
REMARK    4  A    between atoms: C_9  and  C_10
REMARK    5  A    between atoms: C_14  and  C_15
REMARK                            x       y       z     vdW  Elec       q    Type
REMARK                         _______ _______ _______ _____ _____    ______ ____
ROOT
ATOM      1  C   UNL     1      43.571   5.135  10.780  0.00  0.00    +0.000 A 
ATOM      2  C   UNL     1      42.930   4.186  11.563  0.00  0.00    +0.000 A 
ATOM      3  N   UNL     1      43.096   2.855  11.419  0.00  0.00    +0.000 NA
ATOM      4  C   UNL     1      43.941   2.447  10.440  0.00  0.00    +0.000 A 
ATOM      5  C   UNL     1      44.628   3.291   9.565  0.00  0.00    +0.000 A 
ATOM      6  C   UNL     1      44.413   4.667   9.759  0.00  0.00    +0.000 A 
ENDROOT
BRANCH   5   7
ATOM      7  C   UNL     1      45.531   2.771   8.513  0.00  0.00    +0.000 A 
ATOM      8  C   UNL     1      46.050   3.609   7.504  0.00  0.00    +0.000 A 
ATOM      9  C   UNL     1      46.905   3.119   6.508  0.00  0.00    +0.000 A 
ATOM     10  C   UNL     1      47.267   1.777   6.503  0.00  0.00    +0.000 A 
ATOM     11  C   UNL     1      46.766   0.939   7.488  0.00  0.00    +0.000 A 
ATOM     12  F   UNL     1      47.112  -0.356   7.490  0.00  0.00    +0.000 F 
ATOM     13  C   UNL     1      45.908   1.417   8.475  0.00  0.00    +0.000 A 
ENDBRANCH   5   7
BRANCH   1  14
ATOM     14  C   UNL     1      43.369   6.604  11.035  0.00  0.00    +0.000 C 
BRANCH  14  15
ATOM     15  N   UNL     1      44.030   7.011  12.262  0.00  0.00    +0.000 N 
ATOM     16  H   UNL     1      43.744   7.909  12.640  0.00  0.00    +0.000 HD
BRANCH  15  21
ATOM     17  C   UNL     1      46.954   5.280  13.810  0.00  0.00    +0.000 A 
ATOM     18  C   UNL     1      47.957   6.069  13.274  0.00  0.00    +0.000 A 
ATOM     19  N   UNL     1      47.724   7.094  12.427  0.00  0.00    +0.000 NA
ATOM     20  C   UNL     1      46.426   7.340  12.113  0.00  0.00    +0.000 A 
ATOM     21  C   UNL     1      45.323   6.607  12.572  0.00  0.00    +0.000 A 
ATOM     22  C   UNL     1      45.626   5.564  13.456  0.00  0.00    +0.000 A 
BRANCH  17  24
ATOM     23  N   UNL     1      47.526   3.355  15.445  0.00  0.00    +0.000 NA
ATOM     24  C   UNL     1      47.266   4.218  14.711  0.00  0.00    +0.000 C 
ENDBRANCH  17  24
ENDBRANCH  15  21
ENDBRANCH  14  15
ENDBRANCH   1  14
TORSDOF 5
ENDMDL
MODEL 2
REMARK VINA RESULT:    -8.531      1.142      2.306
REMARK INTER + INTRA:         -11.699
REMARK INTER:                 -10.910
REMARK INTRA:                  -0.789
REMARK UNBOUND:                -0.674
REMARK  Name = 
REMARK  5 active torsions:
REMARK  status: ('A' for Active; 'I' for Inactive)
REMARK    1  A    between atoms: C_2  and  C_3
REMARK    2  A    between atoms: C_7  and  N_8
REMARK    3  A    between atoms: N_8  and  C_9
REMARK    4  A    between atoms: C_9  and  C_10
REMARK    5  A    between atoms: C_14  and  C_15
REMARK                            x       y       z     vdW  Elec       q    Type
REMARK                         _______ _______ _______ _____ _____    ______ ____
ROOT
ATOM      1  C   UNL     1      43.880   5.168  11.007  0.00  0.00    +0.000 A 
ATOM      2  C   UNL     1      43.122   4.231  11.694  0.00  0.00    +0.000 A 
ATOM      3  N   UNL     1      43.133   2.909  11.423  0.00  0.00    +0.000 NA
ATOM      4  C   UNL     1      43.938   2.499  10.412  0.00  0.00    +0.000 A 
ATOM      5  C   UNL     1      44.731   3.336   9.624  0.00  0.00    +0.000 A 
ATOM      6  C   UNL     1      44.676   4.703   9.948  0.00  0.00    +0.000 A 
ENDROOT
BRANCH   5   7
ATOM      7  C   UNL     1      45.582   2.815   8.529  0.00  0.00    +0.000 A 
ATOM      8  C   UNL     1      46.063   3.656   7.504  0.00  0.00    +0.000 A 
ATOM      9  C   UNL     1      46.869   3.165   6.468  0.00  0.00    +0.000 A 
ATOM     10  C   UNL     1      47.218   1.820   6.438  0.00  0.00    +0.000 A 
ATOM     11  C   UNL     1      46.754   0.979   7.438  0.00  0.00    +0.000 A 
ATOM     12  F   UNL     1      47.087  -0.318   7.417  0.00  0.00    +0.000 F 
ATOM     13  C   UNL     1      45.944   1.458   8.466  0.00  0.00    +0.000 A 
ENDBRANCH   5   7
BRANCH   1  14
ATOM     14  C   UNL     1      43.848   6.619  11.402  0.00  0.00    +0.000 C 
BRANCH  14  15
ATOM     15  N   UNL     1      44.520   6.825  12.672  0.00  0.00    +0.000 N 
ATOM     16  H   UNL     1      44.008   7.371  13.359  0.00  0.00    +0.000 HD
BRANCH  15  21
ATOM     17  C   UNL     1      48.097   7.830  12.307  0.00  0.00    +0.000 A 
ATOM     18  C   UNL     1      48.678   6.697  12.850  0.00  0.00    +0.000 A 
ATOM     19  N   UNL     1      47.966   5.662  13.345  0.00  0.00    +0.000 NA
ATOM     20  C   UNL     1      46.614   5.769  13.283  0.00  0.00    +0.000 A 
ATOM     21  C   UNL     1      45.905   6.867  12.775  0.00  0.00    +0.000 A 
ATOM     22  C   UNL     1      46.697   7.904  12.266  0.00  0.00    +0.000 A 
BRANCH  17  24
ATOM     23  N   UNL     1      49.565   9.748  11.371  0.00  0.00    +0.000 NA
ATOM     24  C   UNL     1      48.907   8.885  11.789  0.00  0.00    +0.000 C 
ENDBRANCH  17  24
ENDBRANCH  15  21
ENDBRANCH  14  15
ENDBRANCH   1  14
TORSDOF 5
ENDMDL
MODEL 3
REMARK VINA RESULT:    -7.963      1.240      1.723
REMARK INTER + INTRA:         -10.964
REMARK INTER:                 -10.270
REMARK INTRA:                  -0.695
REMARK UNBOUND:                -0.674
REMARK  Name = 
REMARK  5 active torsions:
REMARK  status: ('A' for Active; 'I' for Inactive)
REMARK    1  A    between atoms: C_2  and  C_3
REMARK    2  A    between atoms: C_7  and  N_8
REMARK    3  A    between atoms: N_8  and  C_9
REMARK    4  A    between atoms: C_9  and  C_10
REMARK    5  A    between atoms: C_14  and  C_15
REMARK                            x       y       z     vdW  Elec       q    Type
REMARK                         _______ _______ _______ _____ _____    ______ ____
ROOT
ATOM      1  C   UNL     1      45.082   5.835  11.072  0.00  0.00    +0.000 A 
ATOM      2  C   UNL     1      43.813   5.411  11.438  0.00  0.00    +0.000 A 
ATOM      3  N   UNL     1      43.193   4.340  10.903  0.00  0.00    +0.000 NA
ATOM      4  C   UNL     1      43.872   3.655   9.950  0.00  0.00    +0.000 A 
ATOM      5  C   UNL     1      45.141   3.985   9.469  0.00  0.00    +0.000 A 
ATOM      6  C   UNL     1      45.736   5.115  10.060  0.00  0.00    +0.000 A 
ENDROOT
BRANCH   5   7
ATOM      7  C   UNL     1      45.819   3.191   8.418  0.00  0.00    +0.000 A 
ATOM      8  C   UNL     1      46.327   3.795   7.250  0.00  0.00    +0.000 A 
ATOM      9  C   UNL     1      46.969   3.046   6.254  0.00  0.00    +0.000 A 
ATOM     10  C   UNL     1      47.123   1.674   6.410  0.00  0.00    +0.000 A 
ATOM     11  C   UNL     1      46.629   1.064   7.553  0.00  0.00    +0.000 A 
ATOM     12  F   UNL     1      46.776  -0.258   7.710  0.00  0.00    +0.000 F 
ATOM     13  C   UNL     1      45.982   1.800   8.542  0.00  0.00    +0.000 A 
ENDBRANCH   5   7
BRANCH   1  14
ATOM     14  C   UNL     1      45.724   7.014  11.751  0.00  0.00    +0.000 C 
BRANCH  14  15
ATOM     15  N   UNL     1      47.149   6.798  11.925  0.00  0.00    +0.000 N 
ATOM     16  H   UNL     1      47.649   6.476  11.101  0.00  0.00    +0.000 HD
BRANCH  15  21
ATOM     17  C   UNL     1      47.691   5.215  15.262  0.00  0.00    +0.000 A 
ATOM     18  C   UNL     1      48.772   5.978  15.670  0.00  0.00    +0.000 A 
ATOM     19  N   UNL     1      49.333   6.940  14.906  0.00  0.00    +0.000 NA
ATOM     20  C   UNL     1      48.777   7.147  13.685  0.00  0.00    +0.000 A 
ATOM     21  C   UNL     1      47.697   6.433  13.148  0.00  0.00    +0.000 A 
ATOM     22  C   UNL     1      47.150   5.457  13.990  0.00  0.00    +0.000 A 
BRANCH  17  24
ATOM     23  N   UNL     1      46.687   3.413  16.829  0.00  0.00    +0.000 NA
ATOM     24  C   UNL     1      47.136   4.221  16.123  0.00  0.00    +0.000 C 
ENDBRANCH  17  24
ENDBRANCH  15  21
ENDBRANCH  14  15
ENDBRANCH   1  14
TORSDOF 5
ENDMDL
MODEL 4
REMARK VINA RESULT:    -7.823      1.644      1.915
REMARK INTER + INTRA:         -10.784
REMARK INTER:                 -10.169
REMARK INTRA:                  -0.615
REMARK UNBOUND:                -0.674
REMARK  Name = 
REMARK  5 active torsions:
REMARK  status: ('A' for Active; 'I' for Inactive)
REMARK    1  A    between atoms: C_2  and  C_3
REMARK    2  A    between atoms: C_7  and  N_8
REMARK    3  A    between atoms: N_8  and  C_9
REMARK    4  A    between atoms: C_9  and  C_10
REMARK    5  A    between atoms: C_14  and  C_15
REMARK                            x       y       z     vdW  Elec       q    Type
REMARK                         _______ _______ _______ _____ _____    ______ ____
ROOT
ATOM      1  C   UNL     1      43.763   5.161  11.034  0.00  0.00    +0.000 A 
ATOM      2  C   UNL     1      43.040   4.211  11.741  0.00  0.00    +0.000 A 
ATOM      3  N   UNL     1      43.094   2.887  11.494  0.00  0.00    +0.000 NA
ATOM      4  C   UNL     1      43.908   2.486  10.486  0.00  0.00    +0.000 A 
ATOM      5  C   UNL     1      44.669   3.335   9.679  0.00  0.00    +0.000 A 
ATOM      6  C   UNL     1      44.569   4.705   9.980  0.00  0.00    +0.000 A 
ENDROOT
BRANCH   5   7
ATOM      7  C   UNL     1      45.532   2.823   8.590  0.00  0.00    +0.000 A 
ATOM      8  C   UNL     1      45.999   3.667   7.560  0.00  0.00    +0.000 A 
ATOM      9  C   UNL     1      46.816   3.185   6.529  0.00  0.00    +0.000 A 
ATOM     10  C   UNL     1      47.192   1.847   6.509  0.00  0.00    +0.000 A 
ATOM     11  C   UNL     1      46.742   1.004   7.513  0.00  0.00    +0.000 A 
ATOM     12  F   UNL     1      47.101  -0.287   7.501  0.00  0.00    +0.000 F 
ATOM     13  C   UNL     1      45.921   1.473   8.536  0.00  0.00    +0.000 A 
ENDBRANCH   5   7
BRANCH   1  14
ATOM     14  C   UNL     1      43.683   6.618  11.404  0.00  0.00    +0.000 C 
BRANCH  14  15
ATOM     15  N   UNL     1      44.435   6.885  12.617  0.00  0.00    +0.000 N 
ATOM     16  H   UNL     1      43.898   6.871  13.480  0.00  0.00    +0.000 HD
BRANCH  15  21
ATOM     17  C   UNL     1      47.868   8.210  13.244  0.00  0.00    +0.000 A 
ATOM     18  C   UNL     1      47.677   9.493  12.764  0.00  0.00    +0.000 A 
ATOM     19  N   UNL     1      46.512   9.920  12.230  0.00  0.00    +0.000 NA
ATOM     20  C   UNL     1      45.497   9.019  12.186  0.00  0.00    +0.000 A 
ATOM     21  C   UNL     1      45.568   7.689  12.621  0.00  0.00    +0.000 A 
ATOM     22  C   UNL     1      46.796   7.307  13.175  0.00  0.00    +0.000 A 
BRANCH  17  24
ATOM     23  N   UNL     1      50.141   7.513  14.273  0.00  0.00    +0.000 NA
ATOM     24  C   UNL     1      49.121   7.824  13.809  0.00  0.00    +0.000 C 
ENDBRANCH  17  24
ENDBRANCH  15  21
ENDBRANCH  14  15
ENDBRANCH   1  14
TORSDOF 5
ENDMDL
MODEL 5
REMARK VINA RESULT:    -7.612      1.887      2.346
REMARK INTER + INTRA:         -10.511
REMARK INTER:                  -9.942
REMARK INTRA:                  -0.569
REMARK UNBOUND:                -0.674
REMARK  Name = 
REMARK  5 active torsions:
REMARK  status: ('A' for Active; 'I' for Inactive)
REMARK    1  A    between atoms: C_2  and  C_3
REMARK    2  A    between atoms: C_7  and  N_8
REMARK    3  A    between atoms: N_8  and  C_9
REMARK    4  A    between atoms: C_9  and  C_10
REMARK    5  A    between atoms: C_14  and  C_15
REMARK                            x       y       z     vdW  Elec       q    Type
REMARK                         _______ _______ _______ _____ _____    ______ ____
ROOT
ATOM      1  C   UNL     1      43.915   5.114  10.965  0.00  0.00    +0.000 A 
ATOM      2  C   UNL     1      43.173   4.165  11.653  0.00  0.00    +0.000 A 
ATOM      3  N   UNL     1      43.185   2.847  11.367  0.00  0.00    +0.000 NA
ATOM      4  C   UNL     1      43.974   2.452  10.337  0.00  0.00    +0.000 A 
ATOM      5  C   UNL     1      44.750   3.302   9.545  0.00  0.00    +0.000 A 
ATOM      6  C   UNL     1      44.694   4.665   9.887  0.00  0.00    +0.000 A 
ENDROOT
BRANCH   5   7
ATOM      7  C   UNL     1      45.584   2.798   8.430  0.00  0.00    +0.000 A 
ATOM      8  C   UNL     1      46.127   1.496   8.444  0.00  0.00    +0.000 A 
ATOM      9  C   UNL     1      46.915   1.016   7.389  0.00  0.00    +0.000 A 
ATOM     10  C   UNL     1      47.172   1.829   6.290  0.00  0.00    +0.000 A 
ATOM     11  C   UNL     1      46.646   3.111   6.260  0.00  0.00    +0.000 A 
ATOM     12  F   UNL     1      46.889   3.899   5.204  0.00  0.00    +0.000 F 
ATOM     13  C   UNL     1      45.870   3.598   7.310  0.00  0.00    +0.000 A 
ENDBRANCH   5   7
BRANCH   1  14
ATOM     14  C   UNL     1      43.883   6.560  11.377  0.00  0.00    +0.000 C 
BRANCH  14  15
ATOM     15  N   UNL     1      44.617   6.761  12.614  0.00  0.00    +0.000 N 
ATOM     16  H   UNL     1      44.070   6.687  13.467  0.00  0.00    +0.000 HD
BRANCH  15  21
ATOM     17  C   UNL     1      48.000   8.116  13.424  0.00  0.00    +0.000 A 
ATOM     18  C   UNL     1      47.817   9.403  12.948  0.00  0.00    +0.000 A 
ATOM     19  N   UNL     1      46.676   9.823  12.362  0.00  0.00    +0.000 NA
ATOM     20  C   UNL     1      45.675   8.911  12.258  0.00  0.00    +0.000 A 
ATOM     21  C   UNL     1      45.739   7.577  12.682  0.00  0.00    +0.000 A 
ATOM     22  C   UNL     1      46.942   7.203  13.292  0.00  0.00    +0.000 A 
BRANCH  17  24
ATOM     23  N   UNL     1      50.224   7.426  14.557  0.00  0.00    +0.000 NA
ATOM     24  C   UNL     1      49.227   7.738  14.046  0.00  0.00    +0.000 C 
ENDBRANCH  17  24
ENDBRANCH  15  21
ENDBRANCH  14  15
ENDBRANCH   1  14
TORSDOF 5
ENDMDL
MODEL 6
REMARK VINA RESULT:    -7.588      3.244      6.467
REMARK INTER + INTRA:         -10.480
REMARK INTER:                  -9.881
REMARK INTRA:                  -0.599
REMARK UNBOUND:                -0.674
REMARK  Name = 
REMARK  5 active torsions:
REMARK  status: ('A' for Active; 'I' for Inactive)
REMARK    1  A    between atoms: C_2  and  C_3
REMARK    2  A    between atoms: C_7  and  N_8
REMARK    3  A    between atoms: N_8  and  C_9
REMARK    4  A    between atoms: C_9  and  C_10
REMARK    5  A    between atoms: C_14  and  C_15
REMARK                            x       y       z     vdW  Elec       q    Type
REMARK                         _______ _______ _______ _____ _____    ______ ____
ROOT
ATOM      1  C   UNL     1      44.914   5.258  11.954  0.00  0.00    +0.000 A 
ATOM      2  C   UNL     1      45.209   4.480  13.065  0.00  0.00    +0.000 A 
ATOM      3  N   UNL     1      46.279   4.678  13.861  0.00  0.00    +0.000 NA
ATOM      4  C   UNL     1      47.103   5.703  13.533  0.00  0.00    +0.000 A 
ATOM      5  C   UNL     1      46.941   6.547  12.431  0.00  0.00    +0.000 A 
ATOM      6  C   UNL     1      45.811   6.290  11.634  0.00  0.00    +0.000 A 
ENDROOT
BRANCH   5   7
ATOM      7  C   UNL     1      47.889   7.644  12.132  0.00  0.00    +0.000 A 
ATOM      8  C   UNL     1      47.458   8.983  12.022  0.00  0.00    +0.000 A 
ATOM      9  C   UNL     1      48.354  10.023  11.740  0.00  0.00    +0.000 A 
ATOM     10  C   UNL     1      49.705   9.747  11.567  0.00  0.00    +0.000 A 
ATOM     11  C   UNL     1      50.146   8.437  11.671  0.00  0.00    +0.000 A 
ATOM     12  F   UNL     1      51.447   8.164  11.508  0.00  0.00    +0.000 F 
ATOM     13  C   UNL     1      49.260   7.397  11.942  0.00  0.00    +0.000 A 
ENDBRANCH   5   7
BRANCH   1  14
ATOM     14  C   UNL     1      43.673   5.001  11.144  0.00  0.00    +0.000 C 
BRANCH  14  15
ATOM     15  N   UNL     1      43.719   3.685  10.532  0.00  0.00    +0.000 N 
ATOM     16  H   UNL     1      43.513   2.905  11.150  0.00  0.00    +0.000 HD
BRANCH  15  21
ATOM     17  C   UNL     1      45.977   1.934   8.130  0.00  0.00    +0.000 A 
ATOM     18  C   UNL     1      46.375   3.035   7.392  0.00  0.00    +0.000 A 
ATOM     19  N   UNL     1      45.922   4.286   7.623  0.00  0.00    +0.000 NA
ATOM     20  C   UNL     1      45.039   4.434   8.644  0.00  0.00    +0.000 A 
ATOM     21  C   UNL     1      44.545   3.401   9.452  0.00  0.00    +0.000 A 
ATOM     22  C   UNL     1      45.059   2.129   9.173  0.00  0.00    +0.000 A 
BRANCH  17  24
ATOM     23  N   UNL     1      46.929  -0.420   7.616  0.00  0.00    +0.000 NA
ATOM     24  C   UNL     1      46.503   0.638   7.844  0.00  0.00    +0.000 C 
ENDBRANCH  17  24
ENDBRANCH  15  21
ENDBRANCH  14  15
ENDBRANCH   1  14
TORSDOF 5
ENDMDL
MODEL 7
REMARK VINA RESULT:    -7.312      3.292      7.166
REMARK INTER + INTRA:         -10.123
REMARK INTER:                  -9.742
REMARK INTRA:                  -0.381
REMARK UNBOUND:                -0.674
REMARK  Name = 
REMARK  5 active torsions:
REMARK  status: ('A' for Active; 'I' for Inactive)
REMARK    1  A    between atoms: C_2  and  C_3
REMARK    2  A    between atoms: C_7  and  N_8
REMARK    3  A    between atoms: N_8  and  C_9
REMARK    4  A    between atoms: C_9  and  C_10
REMARK    5  A    between atoms: C_14  and  C_15
REMARK                            x       y       z     vdW  Elec       q    Type
REMARK                         _______ _______ _______ _____ _____    ______ ____
ROOT
ATOM      1  C   UNL     1      45.428   4.749  12.225  0.00  0.00    +0.000 A 
ATOM      2  C   UNL     1      45.900   5.886  11.585  0.00  0.00    +0.000 A 
ATOM      3  N   UNL     1      46.849   6.697  12.094  0.00  0.00    +0.000 NA
ATOM      4  C   UNL     1      47.352   6.362  13.307  0.00  0.00    +0.000 A 
ATOM      5  C   UNL     1      46.951   5.264  14.072  0.00  0.00    +0.000 A 
ATOM      6  C   UNL     1      45.955   4.457  13.493  0.00  0.00    +0.000 A 
ENDROOT
BRANCH   5   7
ATOM      7  C   UNL     1      47.543   4.965  15.396  0.00  0.00    +0.000 A 
ATOM      8  C   UNL     1      48.543   5.784  15.959  0.00  0.00    +0.000 A 
ATOM      9  C   UNL     1      49.105   5.504  17.212  0.00  0.00    +0.000 A 
ATOM     10  C   UNL     1      48.671   4.399  17.935  0.00  0.00    +0.000 A 
ATOM     11  C   UNL     1      47.688   3.583  17.396  0.00  0.00    +0.000 A 
ATOM     12  F   UNL     1      47.264   2.516  18.087  0.00  0.00    +0.000 F 
ATOM     13  C   UNL     1      47.133   3.850  16.147  0.00  0.00    +0.000 A 
ENDBRANCH   5   7
BRANCH   1  14
ATOM     14  C   UNL     1      44.400   3.868  11.568  0.00  0.00    +0.000 C 
BRANCH  14  15
ATOM     15  N   UNL     1      44.211   4.243  10.178  0.00  0.00    +0.000 N 
ATOM     16  H   UNL     1      43.258   4.470   9.909  0.00  0.00    +0.000 HD
BRANCH  15  21
ATOM     17  C   UNL     1      46.244   1.988   8.006  0.00  0.00    +0.000 A 
ATOM     18  C   UNL     1      46.864   2.958   7.238  0.00  0.00    +0.000 A 
ATOM     19  N   UNL     1      46.626   4.279   7.377  0.00  0.00    +0.000 NA
ATOM     20  C   UNL     1      45.733   4.639   8.335  0.00  0.00    +0.000 A 
ATOM     21  C   UNL     1      45.028   3.757   9.165  0.00  0.00    +0.000 A 
ATOM     22  C   UNL     1      45.324   2.400   8.982  0.00  0.00    +0.000 A 
BRANCH  17  24
ATOM     23  N   UNL     1      46.803  -0.519   7.668  0.00  0.00    +0.000 NA
ATOM     24  C   UNL     1      46.549   0.606   7.818  0.00  0.00    +0.000 C 
ENDBRANCH  17  24
ENDBRANCH  15  21
ENDBRANCH  14  15
ENDBRANCH   1  14
TORSDOF 5
ENDMDL
MODEL 8
REMARK VINA RESULT:    -6.720      2.405      4.399
REMARK INTER + INTRA:          -9.359
REMARK INTER:                  -8.703
REMARK INTRA:                  -0.655
REMARK UNBOUND:                -0.674
REMARK  Name = 
REMARK  5 active torsions:
REMARK  status: ('A' for Active; 'I' for Inactive)
REMARK    1  A    between atoms: C_2  and  C_3
REMARK    2  A    between atoms: C_7  and  N_8
REMARK    3  A    between atoms: N_8  and  C_9
REMARK    4  A    between atoms: C_9  and  C_10
REMARK    5  A    between atoms: C_14  and  C_15
REMARK                            x       y       z     vdW  Elec       q    Type
REMARK                         _______ _______ _______ _____ _____    ______ ____
ROOT
ATOM      1  C   UNL     1      47.209   7.431  12.716  0.00  0.00    +0.000 A 
ATOM      2  C   UNL     1      46.248   8.425  12.837  0.00  0.00    +0.000 A 
ATOM      3  N   UNL     1      45.028   8.366  12.266  0.00  0.00    +0.000 NA
ATOM      4  C   UNL     1      44.750   7.261  11.531  0.00  0.00    +0.000 A 
ATOM      5  C   UNL     1      45.630   6.200  11.305  0.00  0.00    +0.000 A 
ATOM      6  C   UNL     1      46.889   6.319  11.921  0.00  0.00    +0.000 A 
ENDROOT
BRANCH   5   7
ATOM      7  C   UNL     1      45.257   5.026  10.484  0.00  0.00    +0.000 A 
ATOM      8  C   UNL     1      44.499   3.963  11.016  0.00  0.00    +0.000 A 
ATOM      9  C   UNL     1      44.144   2.851  10.240  0.00  0.00    +0.000 A 
ATOM     10  C   UNL     1      44.535   2.782   8.908  0.00  0.00    +0.000 A 
ATOM     11  C   UNL     1      45.282   3.818   8.368  0.00  0.00    +0.000 A 
ATOM     12  F   UNL     1      45.661   3.759   7.085  0.00  0.00    +0.000 F 
ATOM     13  C   UNL     1      45.646   4.921   9.136  0.00  0.00    +0.000 A 
ENDBRANCH   5   7
BRANCH   1  14
ATOM     14  C   UNL     1      48.531   7.551  13.424  0.00  0.00    +0.000 C 
BRANCH  14  15
ATOM     15  N   UNL     1      48.349   7.528  14.864  0.00  0.00    +0.000 N 
ATOM     16  H   UNL     1      48.358   8.434  15.324  0.00  0.00    +0.000 HD
BRANCH  15  21
ATOM     17  C   UNL     1      48.346   4.425  16.941  0.00  0.00    +0.000 A 
ATOM     18  C   UNL     1      49.654   4.484  17.388  0.00  0.00    +0.000 A 
ATOM     19  N   UNL     1      50.521   5.453  17.022  0.00  0.00    +0.000 NA
ATOM     20  C   UNL     1      50.047   6.405  16.178  0.00  0.00    +0.000 A 
ATOM     21  C   UNL     1      48.753   6.450  15.642  0.00  0.00    +0.000 A 
ATOM     22  C   UNL     1      47.897   5.426  16.065  0.00  0.00    +0.000 A 
BRANCH  17  24
ATOM     23  N   UNL     1      46.761   2.532  17.725  0.00  0.00    +0.000 NA
ATOM     24  C   UNL     1      47.475   3.381  17.375  0.00  0.00    +0.000 C 
ENDBRANCH  17  24
ENDBRANCH  15  21
ENDBRANCH  14  15
ENDBRANCH   1  14
TORSDOF 5
ENDMDL
MODEL 9
REMARK VINA RESULT:    -6.669      3.129      5.535
REMARK INTER + INTRA:          -9.293
REMARK INTER:                  -8.536
REMARK INTRA:                  -0.757
REMARK UNBOUND:                -0.674
REMARK  Name = 
REMARK  5 active torsions:
REMARK  status: ('A' for Active; 'I' for Inactive)
REMARK    1  A    between atoms: C_2  and  C_3
REMARK    2  A    between atoms: C_7  and  N_8
REMARK    3  A    between atoms: N_8  and  C_9
REMARK    4  A    between atoms: C_9  and  C_10
REMARK    5  A    between atoms: C_14  and  C_15
REMARK                            x       y       z     vdW  Elec       q    Type
REMARK                         _______ _______ _______ _____ _____    ______ ____
ROOT
ATOM      1  C   UNL     1      47.992   7.209  14.147  0.00  0.00    +0.000 A 
ATOM      2  C   UNL     1      47.671   8.516  13.810  0.00  0.00    +0.000 A 
ATOM      3  N   UNL     1      46.723   8.851  12.911  0.00  0.00    +0.000 NA
ATOM      4  C   UNL     1      46.061   7.830  12.314  0.00  0.00    +0.000 A 
ATOM      5  C   UNL     1      46.299   6.472  12.539  0.00  0.00    +0.000 A 
ATOM      6  C   UNL     1      47.303   6.184  13.482  0.00  0.00    +0.000 A 
ENDROOT
BRANCH   5   7
ATOM      7  C   UNL     1      45.539   5.410  11.841  0.00  0.00    +0.000 A 
ATOM      8  C   UNL     1      45.443   5.374  10.435  0.00  0.00    +0.000 A 
ATOM      9  C   UNL     1      44.724   4.369   9.772  0.00  0.00    +0.000 A 
ATOM     10  C   UNL     1      44.090   3.372  10.505  0.00  0.00    +0.000 A 
ATOM     11  C   UNL     1      44.174   3.393  11.888  0.00  0.00    +0.000 A 
ATOM     12  F   UNL     1      43.566   2.435  12.600  0.00  0.00    +0.000 F 
ATOM     13  C   UNL     1      44.878   4.394  12.554  0.00  0.00    +0.000 A 
ENDBRANCH   5   7
BRANCH   1  14
ATOM     14  C   UNL     1      49.032   6.920  15.196  0.00  0.00    +0.000 C 
BRANCH  14  15
ATOM     15  N   UNL     1      48.408   6.532  16.448  0.00  0.00    +0.000 N 
ATOM     16  H   UNL     1      48.469   7.212  17.200  0.00  0.00    +0.000 HD
BRANCH  15  21
ATOM     17  C   UNL     1      49.194   2.958  17.188  0.00  0.00    +0.000 A 
ATOM     18  C   UNL     1      47.904   2.514  17.417  0.00  0.00    +0.000 A 
ATOM     19  N   UNL     1      46.822   3.321  17.370  0.00  0.00    +0.000 NA
ATOM     20  C   UNL     1      47.049   4.626  17.074  0.00  0.00    +0.000 A 
ATOM     21  C   UNL     1      48.305   5.203  16.840  0.00  0.00    +0.000 A 
ATOM     22  C   UNL     1      49.387   4.316  16.890  0.00  0.00    +0.000 A 
BRANCH  17  24
ATOM     23  N   UNL     1      51.192   1.311  17.275  0.00  0.00    +0.000 NA
ATOM     24  C   UNL     1      50.295   2.051  17.240  0.00  0.00    +0.000 C 
ENDBRANCH  17  24
ENDBRANCH  15  21
ENDBRANCH  14  15
ENDBRANCH   1  14
TORSDOF 5
ENDMDL
