MODEL 1
REMARK VINA RESULT:    -7.758      0.000      0.000
REMARK INTER + INTRA:         -11.413
REMARK INTER:                 -10.706
REMARK INTRA:                  -0.707
REMARK UNBOUND:                -0.707
REMARK  Name = 
REMARK  7 active torsions:
REMARK  status: ('A' for Active; 'I' for Inactive)
REMARK    1  A    between atoms: C_2  and  C_3
REMARK    2  A    between atoms: C_6  and  N_7
REMARK    3  A    between atoms: N_7  and  C_8
REMARK    4  A    between atoms: C_8  and  C_9
REMARK    5  A    between atoms: C_9  and  C_11
REMARK    6  A    between atoms: C_15  and  C_16
REMARK    7  A    between atoms: C_16  and  N_17
REMARK                            x       y       z     vdW  Elec       q    Type
REMARK                         _______ _______ _______ _____ _____    ______ ____
ROOT
ATOM      1  C   UNL     1      43.515   5.642  12.084  0.00  0.00    +0.000 C 
ATOM      2  F   UNL     1      42.857   4.725  12.870  0.00  0.00    +0.000 F 
ENDROOT
BRANCH   1   3
ATOM      3  C   UNL     1      44.979   5.782  12.465  0.00  0.00    +0.000 A 
ATOM      4  C   UNL     1      45.822   6.573  11.690  0.00  0.00    +0.000 A 
ATOM      5  C   UNL     1      47.164   6.671  12.040  0.00  0.00    +0.000 A 
ATOM      6  C   UNL     1      47.634   5.979  13.151  0.00  0.00    +0.000 A 
ATOM      7  C   UNL     1      46.744   5.199  13.883  0.00  0.00    +0.000 A 
ATOM      8  N   UNL     1      45.434   5.087  13.543  0.00  0.00    +0.000 NA
BRANCH   7   9
ATOM      9  C   UNL     1      47.206   4.465  15.125  0.00  0.00    +0.000 C 
BRANCH   9  10
ATOM     10  N   UNL     1      47.614   3.082  14.868  0.00  0.00    +0.000 NA
ATOM     11  H   UNL     1      48.619   3.078  14.689  0.00  0.00    +0.000 HD
ATOM     12  H   UNL     1      47.178   2.772  14.000  0.00  0.00    +0.000 HD
ENDBRANCH   9  10
ENDBRANCH   7   9
ENDBRANCH   1   3
BRANCH   1  13
ATOM     13  C   UNL     1      43.348   5.200  10.622  0.00  0.00    +0.000 C 
BRANCH  13  14
ATOM     14  N   UNL     1      43.680   3.777  10.438  0.00  0.00    +0.000 N 
ATOM     15  H   UNL     1      43.767   3.269  11.318  0.00  0.00    +0.000 HD
BRANCH  14  19
ATOM     16  C   UNL     1      46.550   2.535   7.600  0.00  0.00    +0.000 A 
ATOM     17  C   UNL     1      46.273   3.894   7.743  0.00  0.00    +0.000 A 
ATOM     18  C   UNL     1      45.332   4.323   8.686  0.00  0.00    +0.000 A 
ATOM     19  C   UNL     1      44.674   3.415   9.525  0.00  0.00    +0.000 A 
ATOM     20  C   UNL     1      44.961   2.051   9.361  0.00  0.00    +0.000 A 
ATOM     21  C   UNL     1      45.887   1.611   8.409  0.00  0.00    +0.000 A 
BRANCH  16  23
ATOM     22  N   UNL     1      48.265   1.734   5.830  0.00  0.00    +0.000 NA
ATOM     23  C   UNL     1      47.499   2.094   6.620  0.00  0.00    +0.000 C 
ENDBRANCH  16  23
ENDBRANCH  14  19
ENDBRANCH  13  14
ENDBRANCH   1  13
TORSDOF 7
ENDMDL
MODEL 2
REMARK VINA RESULT:    -7.627      1.540      2.595
REMARK INTER + INTRA:         -11.232
REMARK INTER:                 -10.454
REMARK INTRA:                  -0.778
REMARK UNBOUND:                -0.707
REMARK  Name = 
REMARK  7 active torsions:
REMARK  status: ('A' for Active; 'I' for Inactive)
REMARK    1  A    between atoms: C_2  and  C_3
REMARK    2  A    between atoms: C_6  and  N_7
REMARK    3  A    between atoms: N_7  and  C_8
REMARK    4  A    between atoms: C_8  and  C_9
REMARK    5  A    between atoms: C_9  and  C_11
REMARK    6  A    between atoms: C_15  and  C_16
REMARK    7  A    between atoms: C_16  and  N_17
REMARK                            x       y       z     vdW  Elec       q    Type
REMARK                         _______ _______ _______ _____ _____    ______ ____
ROOT
ATOM      1  C   UNL     1      43.274   4.819  12.736  0.00  0.00    +0.000 C 
ATOM      2  F   UNL     1      43.039   3.952  13.777  0.00  0.00    +0.000 F 
ENDROOT
BRANCH   1   3
ATOM      3  C   UNL     1      44.642   5.472  12.829  0.00  0.00    +0.000 A 
ATOM      4  C   UNL     1      45.755   4.700  13.151  0.00  0.00    +0.000 A 
ATOM      5  C   UNL     1      46.997   5.319  13.254  0.00  0.00    +0.000 A 
ATOM      6  C   UNL     1      47.099   6.689  13.036  0.00  0.00    +0.000 A 
ATOM      7  C   UNL     1      45.949   7.407  12.723  0.00  0.00    +0.000 A 
ATOM      8  N   UNL     1      44.730   6.815  12.632  0.00  0.00    +0.000 NA
BRANCH   7   9
ATOM      9  C   UNL     1      46.025   8.892  12.435  0.00  0.00    +0.000 C 
BRANCH   9  10
ATOM     10  N   UNL     1      44.776   9.605  12.714  0.00  0.00    +0.000 NA
ATOM     11  H   UNL     1      45.015  10.512  13.117  0.00  0.00    +0.000 HD
ATOM     12  H   UNL     1      44.273   9.102  13.444  0.00  0.00    +0.000 HD
ENDBRANCH   9  10
ENDBRANCH   7   9
ENDBRANCH   1   3
BRANCH   1  13
ATOM     13  C   UNL     1      43.108   4.027  11.429  0.00  0.00    +0.000 C 
BRANCH  13  14
ATOM     14  N   UNL     1      43.757   4.703  10.293  0.00  0.00    +0.000 N 
ATOM     15  H   UNL     1      43.125   5.315   9.776  0.00  0.00    +0.000 HD
BRANCH  14  19
ATOM     16  C   UNL     1      46.437   2.620   7.780  0.00  0.00    +0.000 A 
ATOM     17  C   UNL     1      45.602   1.902   8.636  0.00  0.00    +0.000 A 
ATOM     18  C   UNL     1      44.701   2.576   9.467  0.00  0.00    +0.000 A 
ATOM     19  C   UNL     1      44.590   3.972   9.442  0.00  0.00    +0.000 A 
ATOM     20  C   UNL     1      45.444   4.678   8.580  0.00  0.00    +0.000 A 
ATOM     21  C   UNL     1      46.361   4.013   7.757  0.00  0.00    +0.000 A 
BRANCH  16  23
ATOM     22  N   UNL     1      48.130   1.375   6.263  0.00  0.00    +0.000 NA
ATOM     23  C   UNL     1      47.374   1.930   6.943  0.00  0.00    +0.000 C 
ENDBRANCH  16  23
ENDBRANCH  14  19
ENDBRANCH  13  14
ENDBRANCH   1  13
TORSDOF 7
ENDMDL
MODEL 3
REMARK VINA RESULT:    -6.893      1.820      5.744
REMARK INTER + INTRA:         -10.219
REMARK INTER:                  -9.272
REMARK INTRA:                  -0.947
REMARK UNBOUND:                -0.707
REMARK  Name = 
REMARK  7 active torsions:
REMARK  status: ('A' for Active; 'I' for Inactive)
REMARK    1  A    between atoms: C_2  and  C_3
REMARK    2  A    between atoms: C_6  and  N_7
REMARK    3  A    between atoms: N_7  and  C_8
REMARK    4  A    between atoms: C_8  and  C_9
REMARK    5  A    between atoms: C_9  and  C_11
REMARK    6  A    between atoms: C_15  and  C_16
REMARK    7  A    between atoms: C_16  and  N_17
REMARK                            x       y       z     vdW  Elec       q    Type
REMARK                         _______ _______ _______ _____ _____    ______ ____
ROOT
ATOM      1  C   UNL     1      43.750   2.959  11.001  0.00  0.00    +0.000 C 
ATOM      2  F   UNL     1      42.835   3.979  11.109  0.00  0.00    +0.000 F 
ENDROOT
BRANCH   1   3
ATOM      3  C   UNL     1      44.688   3.149   9.822  0.00  0.00    +0.000 A 
ATOM      4  C   UNL     1      44.916   4.427   9.320  0.00  0.00    +0.000 A 
ATOM      5  C   UNL     1      45.760   4.581   8.225  0.00  0.00    +0.000 A 
ATOM      6  C   UNL     1      46.353   3.459   7.656  0.00  0.00    +0.000 A 
ATOM      7  C   UNL     1      46.082   2.207   8.198  0.00  0.00    +0.000 A 
ATOM      8  N   UNL     1      45.250   2.045   9.260  0.00  0.00    +0.000 NA
BRANCH   7   9
ATOM      9  C   UNL     1      46.743   0.966   7.636  0.00  0.00    +0.000 C 
BRANCH   9  10
ATOM     10  N   UNL     1      47.901   1.254   6.787  0.00  0.00    +0.000 NA
ATOM     11  H   UNL     1      48.724   0.843   7.226  0.00  0.00    +0.000 HD
ATOM     12  H   UNL     1      48.060   2.261   6.788  0.00  0.00    +0.000 HD
ENDBRANCH   9  10
ENDBRANCH   7   9
ENDBRANCH   1   3
BRANCH   1  13
ATOM     13  C   UNL     1      44.516   2.883  12.331  0.00  0.00    +0.000 C 
BRANCH  13  14
ATOM     14  N   UNL     1      44.342   4.105  13.134  0.00  0.00    +0.000 N 
ATOM     15  H   UNL     1      43.366   4.389  13.225  0.00  0.00    +0.000 HD
BRANCH  14  19
ATOM     16  C   UNL     1      47.017   7.280  12.358  0.00  0.00    +0.000 A 
ATOM     17  C   UNL     1      45.650   7.471  12.157  0.00  0.00    +0.000 A 
ATOM     18  C   UNL     1      44.749   6.433  12.419  0.00  0.00    +0.000 A 
ATOM     19  C   UNL     1      45.185   5.198  12.916  0.00  0.00    +0.000 A 
ATOM     20  C   UNL     1      46.564   5.021  13.104  0.00  0.00    +0.000 A 
ATOM     21  C   UNL     1      47.475   6.048  12.828  0.00  0.00    +0.000 A 
BRANCH  16  23
ATOM     22  N   UNL     1      48.686   9.194  11.839  0.00  0.00    +0.000 NA
ATOM     23  C   UNL     1      47.941   8.336  12.071  0.00  0.00    +0.000 C 
ENDBRANCH  16  23
ENDBRANCH  14  19
ENDBRANCH  13  14
ENDBRANCH   1  13
TORSDOF 7
ENDMDL
MODEL 4
REMARK VINA RESULT:    -6.855      1.445      1.963
REMARK INTER + INTRA:         -10.167
REMARK INTER:                  -9.624
REMARK INTRA:                  -0.543
REMARK UNBOUND:                -0.707
REMARK  Name = 
REMARK  7 active torsions:
REMARK  status: ('A' for Active; 'I' for Inactive)
REMARK    1  A    between atoms: C_2  and  C_3
REMARK    2  A    between atoms: C_6  and  N_7
REMARK    3  A    between atoms: N_7  and  C_8
REMARK    4  A    between atoms: C_8  and  C_9
REMARK    5  A    between atoms: C_9  and  C_11
REMARK    6  A    between atoms: C_15  and  C_16
REMARK    7  A    between atoms: C_16  and  N_17
REMARK                            x       y       z     vdW  Elec       q    Type
REMARK                         _______ _______ _______ _____ _____    ______ ____
ROOT
ATOM      1  C   UNL     1      44.174   5.208  12.217  0.00  0.00    +0.000 C 
ATOM      2  F   UNL     1      44.698   3.994  12.594  0.00  0.00    +0.000 F 
ENDROOT
BRANCH   1   3
ATOM      3  C   UNL     1      45.150   6.350  12.435  0.00  0.00    +0.000 A 
ATOM      4  C   UNL     1      44.891   7.597  11.876  0.00  0.00    +0.000 A 
ATOM      5  C   UNL     1      45.808   8.626  12.066  0.00  0.00    +0.000 A 
ATOM      6  C   UNL     1      46.960   8.386  12.808  0.00  0.00    +0.000 A 
ATOM      7  C   UNL     1      47.166   7.116  13.337  0.00  0.00    +0.000 A 
ATOM      8  N   UNL     1      46.283   6.102  13.147  0.00  0.00    +0.000 NA
BRANCH   7   9
ATOM      9  C   UNL     1      48.386   6.827  14.187  0.00  0.00    +0.000 C 
BRANCH   9  10
ATOM     10  N   UNL     1      49.645   6.879  13.440  0.00  0.00    +0.000 NA
ATOM     11  H   UNL     1      50.260   6.154  13.809  0.00  0.00    +0.000 HD
ATOM     12  H   UNL     1      50.106   7.764  13.646  0.00  0.00    +0.000 HD
ENDBRANCH   9  10
ENDBRANCH   7   9
ENDBRANCH   1   3
BRANCH   1  13
ATOM     13  C   UNL     1      43.755   5.091  10.742  0.00  0.00    +0.000 C 
BRANCH  13  14
ATOM     14  N   UNL     1      43.702   3.688  10.298  0.00  0.00    +0.000 N 
ATOM     15  H   UNL     1      43.596   3.027  11.068  0.00  0.00    +0.000 HD
BRANCH  14  19
ATOM     16  C   UNL     1      46.593   2.468   7.472  0.00  0.00    +0.000 A 
ATOM     17  C   UNL     1      45.992   1.514   8.292  0.00  0.00    +0.000 A 
ATOM     18  C   UNL     1      45.025   1.900   9.227  0.00  0.00    +0.000 A 
ATOM     19  C   UNL     1      44.614   3.234   9.341  0.00  0.00    +0.000 A 
ATOM     20  C   UNL     1      45.234   4.181   8.512  0.00  0.00    +0.000 A 
ATOM     21  C   UNL     1      46.216   3.806   7.587  0.00  0.00    +0.000 A 
BRANCH  16  23
ATOM     22  N   UNL     1      48.408   1.754   5.765  0.00  0.00    +0.000 NA
ATOM     23  C   UNL     1      47.598   2.075   6.529  0.00  0.00    +0.000 C 
ENDBRANCH  16  23
ENDBRANCH  14  19
ENDBRANCH  13  14
ENDBRANCH   1  13
TORSDOF 7
ENDMDL
MODEL 5
REMARK VINA RESULT:    -6.287      1.816      6.493
REMARK INTER + INTRA:          -9.383
REMARK INTER:                  -9.048
REMARK INTRA:                  -0.335
REMARK UNBOUND:                -0.707
REMARK  Name = 
REMARK  7 active torsions:
REMARK  status: ('A' for Active; 'I' for Inactive)
REMARK    1  A    between atoms: C_2  and  C_3
REMARK    2  A    between atoms: C_6  and  N_7
REMARK    3  A    between atoms: N_7  and  C_8
REMARK    4  A    between atoms: C_8  and  C_9
REMARK    5  A    between atoms: C_9  and  C_11
REMARK    6  A    between atoms: C_15  and  C_16
REMARK    7  A    between atoms: C_16  and  N_17
REMARK                            x       y       z     vdW  Elec       q    Type
REMARK                         _______ _______ _______ _____ _____    ______ ____
ROOT
ATOM      1  C   UNL     1      44.639   4.644   9.040  0.00  0.00    +0.000 C 
ATOM      2  F   UNL     1      45.522   5.650   9.356  0.00  0.00    +0.000 F 
ENDROOT
BRANCH   1   3
ATOM      3  C   UNL     1      45.330   3.445   8.417  0.00  0.00    +0.000 A 
ATOM      4  C   UNL     1      45.251   2.202   9.039  0.00  0.00    +0.000 A 
ATOM      5  C   UNL     1      45.910   1.119   8.466  0.00  0.00    +0.000 A 
ATOM      6  C   UNL     1      46.631   1.300   7.291  0.00  0.00    +0.000 A 
ATOM      7  C   UNL     1      46.677   2.568   6.719  0.00  0.00    +0.000 A 
ATOM      8  N   UNL     1      46.048   3.635   7.277  0.00  0.00    +0.000 NA
BRANCH   7   9
ATOM      9  C   UNL     1      47.414   2.798   5.416  0.00  0.00    +0.000 C 
BRANCH   9  10
ATOM     10  N   UNL     1      48.531   1.874   5.206  0.00  0.00    +0.000 NA
ATOM     11  H   UNL     1      48.239   1.179   4.518  0.00  0.00    +0.000 HD
ATOM     12  H   UNL     1      48.692   1.359   6.070  0.00  0.00    +0.000 HD
ENDBRANCH   9  10
ENDBRANCH   7   9
ENDBRANCH   1   3
BRANCH   1  13
ATOM     13  C   UNL     1      43.892   4.265  10.330  0.00  0.00    +0.000 C 
BRANCH  13  14
ATOM     14  N   UNL     1      43.806   5.398  11.266  0.00  0.00    +0.000 N 
ATOM     15  H   UNL     1      43.379   6.228  10.852  0.00  0.00    +0.000 HD
BRANCH  14  19
ATOM     16  C   UNL     1      47.253   6.224  13.562  0.00  0.00    +0.000 A 
ATOM     17  C   UNL     1      46.534   7.279  13.002  0.00  0.00    +0.000 A 
ATOM     18  C   UNL     1      45.383   7.024  12.247  0.00  0.00    +0.000 A 
ATOM     19  C   UNL     1      44.909   5.720  12.062  0.00  0.00    +0.000 A 
ATOM     20  C   UNL     1      45.649   4.670  12.626  0.00  0.00    +0.000 A 
ATOM     21  C   UNL     1      46.811   4.915  13.368  0.00  0.00    +0.000 A 
BRANCH  16  23
ATOM     22  N   UNL     1      49.403   6.700  14.929  0.00  0.00    +0.000 NA
ATOM     23  C   UNL     1      48.442   6.485  14.318  0.00  0.00    +0.000 C 
ENDBRANCH  16  23
ENDBRANCH  14  19
ENDBRANCH  13  14
ENDBRANCH   1  13
TORSDOF 7
ENDMDL
MODEL 6
REMARK VINA RESULT:    -5.888      2.048      6.440
REMARK INTER + INTRA:          -8.832
REMARK INTER:                  -8.354
REMARK INTRA:                  -0.477
REMARK UNBOUND:                -0.707
REMARK  Name = 
REMARK  7 active torsions:
REMARK  status: ('A' for Active; 'I' for Inactive)
REMARK    1  A    between atoms: C_2  and  C_3
REMARK    2  A    between atoms: C_6  and  N_7
REMARK    3  A    between atoms: N_7  and  C_8
REMARK    4  A    between atoms: C_8  and  C_9
REMARK    5  A    between atoms: C_9  and  C_11
REMARK    6  A    between atoms: C_15  and  C_16
REMARK    7  A    between atoms: C_16  and  N_17
REMARK                            x       y       z     vdW  Elec       q    Type
REMARK                         _______ _______ _______ _____ _____    ______ ____
ROOT
ATOM      1  C   UNL     1      44.501   2.871  11.074  0.00  0.00    +0.000 C 
ATOM      2  F   UNL     1      43.185   2.513  10.897  0.00  0.00    +0.000 F 
ENDROOT
BRANCH   1   3
ATOM      3  C   UNL     1      45.212   3.123   9.756  0.00  0.00    +0.000 A 
ATOM      4  C   UNL     1      45.335   4.423   9.274  0.00  0.00    +0.000 A 
ATOM      5  C   UNL     1      45.968   4.633   8.054  0.00  0.00    +0.000 A 
ATOM      6  C   UNL     1      46.462   3.544   7.344  0.00  0.00    +0.000 A 
ATOM      7  C   UNL     1      46.304   2.268   7.874  0.00  0.00    +0.000 A 
ATOM      8  N   UNL     1      45.676   2.050   9.059  0.00  0.00    +0.000 NA
BRANCH   7   9
ATOM      9  C   UNL     1      46.867   1.060   7.154  0.00  0.00    +0.000 C 
BRANCH   9  10
ATOM     10  N   UNL     1      46.715  -0.190   7.903  0.00  0.00    +0.000 NA
ATOM     11  H   UNL     1      45.780  -0.555   7.720  0.00  0.00    +0.000 HD
ATOM     12  H   UNL     1      46.739   0.025   8.899  0.00  0.00    +0.000 HD
ENDBRANCH   9  10
ENDBRANCH   7   9
ENDBRANCH   1   3
BRANCH   1  13
ATOM     13  C   UNL     1      44.522   4.114  11.979  0.00  0.00    +0.000 C 
BRANCH  13  14
ATOM     14  N   UNL     1      45.176   3.839  13.269  0.00  0.00    +0.000 N 
ATOM     15  H   UNL     1      44.518   3.575  14.004  0.00  0.00    +0.000 HD
BRANCH  14  19
ATOM     16  C   UNL     1      48.287   6.300  14.719  0.00  0.00    +0.000 A 
ATOM     17  C   UNL     1      47.637   6.644  13.534  0.00  0.00    +0.000 A 
ATOM     18  C   UNL     1      46.597   5.845  13.045  0.00  0.00    +0.000 A 
ATOM     19  C   UNL     1      46.163   4.710  13.740  0.00  0.00    +0.000 A 
ATOM     20  C   UNL     1      46.833   4.375  14.926  0.00  0.00    +0.000 A 
ATOM     21  C   UNL     1      47.886   5.158  15.414  0.00  0.00    +0.000 A 
BRANCH  16  23
ATOM     22  N   UNL     1      50.236   7.762  15.602  0.00  0.00    +0.000 NA
ATOM     23  C   UNL     1      49.365   7.107  15.209  0.00  0.00    +0.000 C 
ENDBRANCH  16  23
ENDBRANCH  14  19
ENDBRANCH  13  14
ENDBRANCH   1  13
TORSDOF 7
ENDMDL
MODEL 7
REMARK VINA RESULT:    -5.763      2.463      6.042
REMARK INTER + INTRA:          -8.660
REMARK INTER:                  -7.842
REMARK INTRA:                  -0.818
REMARK UNBOUND:                -0.707
REMARK  Name = 
REMARK  7 active torsions:
REMARK  status: ('A' for Active; 'I' for Inactive)
REMARK    1  A    between atoms: C_2  and  C_3
REMARK    2  A    between atoms: C_6  and  N_7
REMARK    3  A    between atoms: N_7  and  C_8
REMARK    4  A    between atoms: C_8  and  C_9
REMARK    5  A    between atoms: C_9  and  C_11
REMARK    6  A    between atoms: C_15  and  C_16
REMARK    7  A    between atoms: C_16  and  N_17
REMARK                            x       y       z     vdW  Elec       q    Type
REMARK                         _______ _______ _______ _____ _____    ______ ____
ROOT
ATOM      1  C   UNL     1      44.816   4.387  12.667  0.00  0.00    +0.000 C 
ATOM      2  F   UNL     1      44.115   5.535  12.956  0.00  0.00    +0.000 F 
ENDROOT
BRANCH   1   3
ATOM      3  C   UNL     1      45.093   4.241  11.181  0.00  0.00    +0.000 A 
ATOM      4  C   UNL     1      45.450   5.359  10.432  0.00  0.00    +0.000 A 
ATOM      5  C   UNL     1      45.677   5.211   9.067  0.00  0.00    +0.000 A 
ATOM      6  C   UNL     1      45.543   3.956   8.483  0.00  0.00    +0.000 A 
ATOM      7  C   UNL     1      45.178   2.878   9.283  0.00  0.00    +0.000 A 
ATOM      8  N   UNL     1      44.941   3.013  10.614  0.00  0.00    +0.000 NA
BRANCH   7   9
ATOM      9  C   UNL     1      45.064   1.487   8.695  0.00  0.00    +0.000 C 
BRANCH   9  10
ATOM     10  N   UNL     1      46.327   0.975   8.158  0.00  0.00    +0.000 NA
ATOM     11  H   UNL     1      46.283   1.035   7.140  0.00  0.00    +0.000 HD
ATOM     12  H   UNL     1      46.391  -0.019   8.374  0.00  0.00    +0.000 HD
ENDBRANCH   9  10
ENDBRANCH   7   9
ENDBRANCH   1   3
BRANCH   1  13
ATOM     13  C   UNL     1      46.115   4.420  13.488  0.00  0.00    +0.000 C 
BRANCH  13  14
ATOM     14  N   UNL     1      46.352   5.746  14.084  0.00  0.00    +0.000 N 
ATOM     15  H   UNL     1      45.527   6.131  14.545  0.00  0.00    +0.000 HD
BRANCH  14  19
ATOM     16  C   UNL     1      48.393   8.819  12.029  0.00  0.00    +0.000 A 
ATOM     17  C   UNL     1      49.023   7.590  12.224  0.00  0.00    +0.000 A 
ATOM     18  C   UNL     1      48.357   6.558  12.894  0.00  0.00    +0.000 A 
ATOM     19  C   UNL     1      47.043   6.716  13.353  0.00  0.00    +0.000 A 
ATOM     20  C   UNL     1      46.428   7.961  13.154  0.00  0.00    +0.000 A 
ATOM     21  C   UNL     1      47.093   9.006  12.501  0.00  0.00    +0.000 A 
BRANCH  16  23
ATOM     22  N   UNL     1      49.644  10.740  10.819  0.00  0.00    +0.000 NA
ATOM     23  C   UNL     1      49.083   9.882  11.361  0.00  0.00    +0.000 C 
ENDBRANCH  16  23
ENDBRANCH  14  19
ENDBRANCH  13  14
ENDBRANCH   1  13
TORSDOF 7
ENDMDL
MODEL 8
REMARK VINA RESULT:    -5.666      2.669      4.147
REMARK INTER + INTRA:          -8.527
REMARK INTER:                  -7.738
REMARK INTRA:                  -0.788
REMARK UNBOUND:                -0.707
REMARK  Name = 
REMARK  7 active torsions:
REMARK  status: ('A' for Active; 'I' for Inactive)
REMARK    1  A    between atoms: C_2  and  C_3
REMARK    2  A    between atoms: C_6  and  N_7
REMARK    3  A    between atoms: N_7  and  C_8
REMARK    4  A    between atoms: C_8  and  C_9
REMARK    5  A    between atoms: C_9  and  C_11
REMARK    6  A    between atoms: C_15  and  C_16
REMARK    7  A    between atoms: C_16  and  N_17
REMARK                            x       y       z     vdW  Elec       q    Type
REMARK                         _______ _______ _______ _____ _____    ______ ____
ROOT
ATOM      1  C   UNL     1      48.057   6.967  13.295  0.00  0.00    +0.000 C 
ATOM      2  F   UNL     1      49.021   7.868  12.909  0.00  0.00    +0.000 F 
ENDROOT
BRANCH   1   3
ATOM      3  C   UNL     1      48.275   6.461  14.710  0.00  0.00    +0.000 A 
ATOM      4  C   UNL     1      48.877   7.288  15.654  0.00  0.00    +0.000 A 
ATOM      5  C   UNL     1      49.090   6.800  16.939  0.00  0.00    +0.000 A 
ATOM      6  C   UNL     1      48.700   5.502  17.251  0.00  0.00    +0.000 A 
ATOM      7  C   UNL     1      48.108   4.721  16.263  0.00  0.00    +0.000 A 
ATOM      8  N   UNL     1      47.906   5.184  15.002  0.00  0.00    +0.000 NA
BRANCH   7   9
ATOM      9  C   UNL     1      47.628   3.319  16.575  0.00  0.00    +0.000 C 
BRANCH   9  10
ATOM     10  N   UNL     1      46.774   3.244  17.762  0.00  0.00    +0.000 NA
ATOM     11  H   UNL     1      47.116   2.482  18.348  0.00  0.00    +0.000 HD
ATOM     12  H   UNL     1      45.838   2.969  17.470  0.00  0.00    +0.000 HD
ENDBRANCH   9  10
ENDBRANCH   7   9
ENDBRANCH   1   3
BRANCH   1  13
ATOM     13  C   UNL     1      46.692   7.657  13.140  0.00  0.00    +0.000 C 
BRANCH  13  14
ATOM     14  N   UNL     1      45.579   6.700  13.259  0.00  0.00    +0.000 N 
ATOM     15  H   UNL     1      45.452   6.348  14.208  0.00  0.00    +0.000 HD
BRANCH  14  19
ATOM     16  C   UNL     1      44.960   3.589  10.471  0.00  0.00    +0.000 A 
ATOM     17  C   UNL     1      45.243   4.875  10.011  0.00  0.00    +0.000 A 
ATOM     18  C   UNL     1      45.461   5.915  10.921  0.00  0.00    +0.000 A 
ATOM     19  C   UNL     1      45.434   5.691  12.304  0.00  0.00    +0.000 A 
ATOM     20  C   UNL     1      45.141   4.392  12.748  0.00  0.00    +0.000 A 
ATOM     21  C   UNL     1      44.904   3.349  11.845  0.00  0.00    +0.000 A 
BRANCH  16  23
ATOM     22  N   UNL     1      44.524   1.668   8.786  0.00  0.00    +0.000 NA
ATOM     23  C   UNL     1      44.718   2.528   9.538  0.00  0.00    +0.000 C 
ENDBRANCH  16  23
ENDBRANCH  14  19
ENDBRANCH  13  14
ENDBRANCH   1  13
TORSDOF 7
ENDMDL
MODEL 9
REMARK VINA RESULT:    -5.593      2.270      6.876
REMARK INTER + INTRA:          -8.426
REMARK INTER:                  -7.573
REMARK INTRA:                  -0.852
REMARK UNBOUND:                -0.707
REMARK  Name = 
REMARK  7 active torsions:
REMARK  status: ('A' for Active; 'I' for Inactive)
REMARK    1  A    between atoms: C_2  and  C_3
REMARK    2  A    between atoms: C_6  and  N_7
REMARK    3  A    between atoms: N_7  and  C_8
REMARK    4  A    between atoms: C_8  and  C_9
REMARK    5  A    between atoms: C_9  and  C_11
REMARK    6  A    between atoms: C_15  and  C_16
REMARK    7  A    between atoms: C_16  and  N_17
REMARK                            x       y       z     vdW  Elec       q    Type
REMARK                         _______ _______ _______ _____ _____    ______ ____
ROOT
ATOM      1  C   UNL     1      44.980   7.219  12.440  0.00  0.00    +0.000 C 
ATOM      2  F   UNL     1      44.559   8.206  11.580  0.00  0.00    +0.000 F 
ENDROOT
BRANCH   1   3
ATOM      3  C   UNL     1      44.538   5.837  11.992  0.00  0.00    +0.000 A 
ATOM      4  C   UNL     1      43.801   5.034  12.857  0.00  0.00    +0.000 A 
ATOM      5  C   UNL     1      43.425   3.761  12.439  0.00  0.00    +0.000 A 
ATOM      6  C   UNL     1      43.794   3.321  11.173  0.00  0.00    +0.000 A 
ATOM      7  C   UNL     1      44.536   4.167  10.356  0.00  0.00    +0.000 A 
ATOM      8  N   UNL     1      44.919   5.407  10.759  0.00  0.00    +0.000 NA
BRANCH   7   9
ATOM      9  C   UNL     1      44.920   3.743   8.954  0.00  0.00    +0.000 C 
BRANCH   9  10
ATOM     10  N   UNL     1      45.643   4.776   8.208  0.00  0.00    +0.000 NA
ATOM     11  H   UNL     1      46.022   5.443   8.881  0.00  0.00    +0.000 HD
ATOM     12  H   UNL     1      44.972   5.299   7.647  0.00  0.00    +0.000 HD
ENDBRANCH   9  10
ENDBRANCH   7   9
ENDBRANCH   1   3
BRANCH   1  13
ATOM     13  C   UNL     1      46.510   7.322  12.547  0.00  0.00    +0.000 C 
BRANCH  13  14
ATOM     14  N   UNL     1      47.133   6.004  12.753  0.00  0.00    +0.000 N 
ATOM     15  H   UNL     1      46.671   5.256  12.235  0.00  0.00    +0.000 HD
BRANCH  14  19
ATOM     16  C   UNL     1      48.154   4.993  16.725  0.00  0.00    +0.000 A 
ATOM     17  C   UNL     1      47.294   4.164  16.006  0.00  0.00    +0.000 A 
ATOM     18  C   UNL     1      46.953   4.478  14.686  0.00  0.00    +0.000 A 
ATOM     19  C   UNL     1      47.486   5.604  14.045  0.00  0.00    +0.000 A 
ATOM     20  C   UNL     1      48.345   6.430  14.786  0.00  0.00    +0.000 A 
ATOM     21  C   UNL     1      48.676   6.133  16.113  0.00  0.00    +0.000 A 
BRANCH  16  23
ATOM     22  N   UNL     1      48.753   4.432  19.183  0.00  0.00    +0.000 NA
ATOM     23  C   UNL     1      48.486   4.681  18.083  0.00  0.00    +0.000 C 
ENDBRANCH  16  23
ENDBRANCH  14  19
ENDBRANCH  13  14
ENDBRANCH   1  13
TORSDOF 7
ENDMDL
