MODEL 1
REMARK VINA RESULT:    -7.944      0.000      0.000
REMARK INTER + INTRA:         -10.126
REMARK INTER:                 -10.034
REMARK INTRA:                  -0.093
REMARK UNBOUND:                -0.093
REMARK  Name = 
REMARK  5 active torsions:
REMARK  status: ('A' for Active; 'I' for Inactive)
REMARK    1  A    between atoms: N_1  and  C_2
REMARK    2  A    between atoms: C_2  and  C_3
REMARK    3  A    between atoms: C_5  and  C_6
REMARK    4  A    between atoms: C_6  and  N_7
REMARK    5  A    between atoms: C_12  and  C_13
REMARK                            x       y       z     vdW  Elec       q    Type
REMARK                         _______ _______ _______ _____ _____    ______ ____
ROOT
ATOM      1  N   UNL     1      44.079   4.467  10.319  0.00  0.00    +0.000 N 
ATOM      2  C   UNL     1      43.463   3.378  10.877  0.00  0.00    +0.000 A 
ATOM      3  N   UNL     1      43.927   2.247  10.396  0.00  0.00    +0.000 NA
ATOM      4  C   UNL     1      44.859   2.619   9.465  0.00  0.00    +0.000 A 
ATOM      5  C   UNL     1      45.659   1.840   8.623  0.00  0.00    +0.000 A 
ATOM      6  C   UNL     1      46.487   2.515   7.720  0.00  0.00    +0.000 A 
ATOM      7  C   UNL     1      46.494   3.915   7.738  0.00  0.00    +0.000 A 
ATOM      8  N   UNL     1      45.761   4.715   8.568  0.00  0.00    +0.000 NA
ATOM      9  C   UNL     1      44.968   4.002   9.386  0.00  0.00    +0.000 A 
ENDROOT
BRANCH   6  10
ATOM     10  C   UNL     1      47.338   1.814   6.729  0.00  0.00    +0.000 C 
ATOM     11  N   UNL     1      48.399   2.489   6.188  0.00  0.00    +0.000 N 
ATOM     12  O   UNL     1      47.113   0.656   6.403  0.00  0.00    +0.000 OA
ATOM     13  H   UNL     1      48.670   3.434   6.405  0.00  0.00    +0.000 HD
ATOM     14  H   UNL     1      48.975   1.980   5.527  0.00  0.00    +0.000 HD
ENDBRANCH   6  10
BRANCH   1  15
ATOM     15  C   UNL     1      43.883   5.845  10.716  0.00  0.00    +0.000 C 
BRANCH  15  18
ATOM     16  C   UNL     1      46.255   5.693  13.608  0.00  0.00    +0.000 C 
ATOM     17  C   UNL     1      44.977   5.231  12.925  0.00  0.00    +0.000 C 
ATOM     18  C   UNL     1      44.783   6.300  11.863  0.00  0.00    +0.000 C 
ATOM     19  C   UNL     1      46.220   6.583  11.449  0.00  0.00    +0.000 C 
ATOM     20  O   UNL     1      47.057   6.319  12.587  0.00  0.00    +0.000 OA
BRANCH  16  21
ATOM     21  C   UNL     1      47.045   4.587  14.328  0.00  0.00    +0.000 C 
BRANCH  21  22
ATOM     22  N   UNL     1      46.878   3.262  13.721  0.00  0.00    +0.000 NA
ATOM     23  H   UNL     1      45.924   3.171  13.376  0.00  0.00    +0.000 HD
ATOM     24  H   UNL     1      46.976   2.566  14.465  0.00  0.00    +0.000 HD
ENDBRANCH  21  22
ENDBRANCH  16  21
ENDBRANCH  15  18
ENDBRANCH   1  15
TORSDOF 5
ENDMDL
MODEL 2
REMARK VINA RESULT:    -7.938      1.816      6.040
REMARK INTER + INTRA:         -10.119
REMARK INTER:                 -10.160
REMARK INTRA:                   0.041
REMARK UNBOUND:                -0.093
REMARK  Name = 
REMARK  5 active torsions:
REMARK  status: ('A' for Active; 'I' for Inactive)
REMARK    1  A    between atoms: N_1  and  C_2
REMARK    2  A    between atoms: C_2  and  C_3
REMARK    3  A    between atoms: C_5  and  C_6
REMARK    4  A    between atoms: C_6  and  N_7
REMARK    5  A    between atoms: C_12  and  C_13
REMARK                            x       y       z     vdW  Elec       q    Type
REMARK                         _______ _______ _______ _____ _____    ______ ____
ROOT
ATOM      1  N   UNL     1      44.546   4.122  10.676  0.00  0.00    +0.000 N 
ATOM      2  C   UNL     1      44.085   3.194  11.573  0.00  0.00    +0.000 A 
ATOM      3  N   UNL     1      44.572   3.387  12.778  0.00  0.00    +0.000 NA
ATOM      4  C   UNL     1      45.408   4.464  12.649  0.00  0.00    +0.000 A 
ATOM      5  C   UNL     1      46.212   5.104  13.597  0.00  0.00    +0.000 A 
ATOM      6  C   UNL     1      47.017   6.157  13.149  0.00  0.00    +0.000 A 
ATOM      7  C   UNL     1      46.941   6.529  11.801  0.00  0.00    +0.000 A 
ATOM      8  N   UNL     1      46.142   5.960  10.851  0.00  0.00    +0.000 NA
ATOM      9  C   UNL     1      45.421   4.937  11.343  0.00  0.00    +0.000 A 
ENDROOT
BRANCH   6  10
ATOM     10  C   UNL     1      47.962   6.880  14.032  0.00  0.00    +0.000 C 
ATOM     11  N   UNL     1      47.600   8.113  14.505  0.00  0.00    +0.000 N 
ATOM     12  O   UNL     1      49.039   6.392  14.347  0.00  0.00    +0.000 OA
ATOM     13  H   UNL     1      46.733   8.587  14.312  0.00  0.00    +0.000 HD
ATOM     14  H   UNL     1      48.258   8.577  15.121  0.00  0.00    +0.000 HD
ENDBRANCH   6  10
BRANCH   1  15
ATOM     15  C   UNL     1      44.110   4.259   9.302  0.00  0.00    +0.000 C 
BRANCH  15  18
ATOM     16  C   UNL     1      46.577   2.445   7.148  0.00  0.00    +0.000 C 
ATOM     17  C   UNL     1      45.885   3.735   7.561  0.00  0.00    +0.000 C 
ATOM     18  C   UNL     1      44.698   3.216   8.354  0.00  0.00    +0.000 C 
ATOM     19  C   UNL     1      45.304   2.010   9.057  0.00  0.00    +0.000 C 
ATOM     20  O   UNL     1      46.358   1.507   8.218  0.00  0.00    +0.000 OA
BRANCH  16  21
ATOM     21  C   UNL     1      48.076   2.583   6.834  0.00  0.00    +0.000 C 
BRANCH  21  22
ATOM     22  N   UNL     1      48.480   1.891   5.604  0.00  0.00    +0.000 NA
ATOM     23  H   UNL     1      49.287   1.301   5.802  0.00  0.00    +0.000 HD
ATOM     24  H   UNL     1      48.804   2.601   4.942  0.00  0.00    +0.000 HD
ENDBRANCH  21  22
ENDBRANCH  16  21
ENDBRANCH  15  18
ENDBRANCH   1  15
TORSDOF 5
ENDMDL
MODEL 3
REMARK VINA RESULT:    -7.366      1.572      1.725
REMARK INTER + INTRA:          -9.396
REMARK INTER:                  -8.977
REMARK INTRA:                  -0.419
REMARK UNBOUND:                -0.093
REMARK  Name = 
REMARK  5 active torsions:
REMARK  status: ('A' for Active; 'I' for Inactive)
REMARK    1  A    between atoms: N_1  and  C_2
REMARK    2  A    between atoms: C_2  and  C_3
REMARK    3  A    between atoms: C_5  and  C_6
REMARK    4  A    between atoms: C_6  and  N_7
REMARK    5  A    between atoms: C_12  and  C_13
REMARK                            x       y       z     vdW  Elec       q    Type
REMARK                         _______ _______ _______ _____ _____    ______ ____
ROOT
ATOM      1  N   UNL     1      44.379   4.784  10.317  0.00  0.00    +0.000 N 
ATOM      2  C   UNL     1      43.667   3.746  10.859  0.00  0.00    +0.000 A 
ATOM      3  N   UNL     1      43.987   2.592  10.319  0.00  0.00    +0.000 NA
ATOM      4  C   UNL     1      44.921   2.898   9.365  0.00  0.00    +0.000 A 
ATOM      5  C   UNL     1      45.600   2.073   8.464  0.00  0.00    +0.000 A 
ATOM      6  C   UNL     1      46.464   2.691   7.554  0.00  0.00    +0.000 A 
ATOM      7  C   UNL     1      46.626   4.080   7.623  0.00  0.00    +0.000 A 
ATOM      8  N   UNL     1      46.014   4.920   8.511  0.00  0.00    +0.000 NA
ATOM      9  C   UNL     1      45.177   4.264   9.334  0.00  0.00    +0.000 A 
ENDROOT
BRANCH   6  10
ATOM     10  C   UNL     1      47.197   1.943   6.506  0.00  0.00    +0.000 C 
ATOM     11  N   UNL     1      47.919   2.652   5.582  0.00  0.00    +0.000 N 
ATOM     12  O   UNL     1      47.174   0.720   6.462  0.00  0.00    +0.000 OA
ATOM     13  H   UNL     1      48.008   3.655   5.548  0.00  0.00    +0.000 HD
ATOM     14  H   UNL     1      48.425   2.115   4.888  0.00  0.00    +0.000 HD
ENDBRANCH   6  10
BRANCH   1  15
ATOM     15  C   UNL     1      44.349   6.158  10.772  0.00  0.00    +0.000 C 
BRANCH  15  18
ATOM     16  C   UNL     1      47.202   6.954  13.061  0.00  0.00    +0.000 C 
ATOM     17  C   UNL     1      46.625   6.156  11.902  0.00  0.00    +0.000 C 
ATOM     18  C   UNL     1      45.135   6.408  12.057  0.00  0.00    +0.000 C 
ATOM     19  C   UNL     1      45.117   7.857  12.523  0.00  0.00    +0.000 C 
ATOM     20  O   UNL     1      46.342   8.096  13.237  0.00  0.00    +0.000 OA
BRANCH  16  21
ATOM     21  C   UNL     1      48.667   7.390  12.886  0.00  0.00    +0.000 C 
BRANCH  21  22
ATOM     22  N   UNL     1      49.021   7.696  11.496  0.00  0.00    +0.000 NA
ATOM     23  H   UNL     1      48.332   7.277  10.875  0.00  0.00    +0.000 HD
ATOM     24  H   UNL     1      49.908   7.227  11.292  0.00  0.00    +0.000 HD
ENDBRANCH  21  22
ENDBRANCH  16  21
ENDBRANCH  15  18
ENDBRANCH   1  15
TORSDOF 5
ENDMDL
MODEL 4
REMARK VINA RESULT:    -6.270      3.625      5.602
REMARK INTER + INTRA:          -8.012
REMARK INTER:                  -7.654
REMARK INTRA:                  -0.358
REMARK UNBOUND:                -0.093
REMARK  Name = 
REMARK  5 active torsions:
REMARK  status: ('A' for Active; 'I' for Inactive)
REMARK    1  A    between atoms: N_1  and  C_2
REMARK    2  A    between atoms: C_2  and  C_3
REMARK    3  A    between atoms: C_5  and  C_6
REMARK    4  A    between atoms: C_6  and  N_7
REMARK    5  A    between atoms: C_12  and  C_13
REMARK                            x       y       z     vdW  Elec       q    Type
REMARK                         _______ _______ _______ _____ _____    ______ ____
ROOT
ATOM      1  N   UNL     1      47.179   5.041  14.508  0.00  0.00    +0.000 N 
ATOM      2  C   UNL     1      47.529   6.325  14.180  0.00  0.00    +0.000 A 
ATOM      3  N   UNL     1      47.031   6.692  13.021  0.00  0.00    +0.000 NA
ATOM      4  C   UNL     1      46.358   5.591  12.564  0.00  0.00    +0.000 A 
ATOM      5  C   UNL     1      45.650   5.391  11.375  0.00  0.00    +0.000 A 
ATOM      6  C   UNL     1      45.111   4.119  11.155  0.00  0.00    +0.000 A 
ATOM      7  C   UNL     1      45.277   3.142  12.145  0.00  0.00    +0.000 A 
ATOM      8  N   UNL     1      45.925   3.305  13.337  0.00  0.00    +0.000 NA
ATOM      9  C   UNL     1      46.443   4.539  13.467  0.00  0.00    +0.000 A 
ENDROOT
BRANCH   6  10
ATOM     10  C   UNL     1      44.394   3.752   9.911  0.00  0.00    +0.000 C 
ATOM     11  N   UNL     1      44.459   4.608   8.844  0.00  0.00    +0.000 N 
ATOM     12  O   UNL     1      43.763   2.707   9.825  0.00  0.00    +0.000 OA
ATOM     13  H   UNL     1      44.964   5.479   8.817  0.00  0.00    +0.000 HD
ATOM     14  H   UNL     1      43.975   4.324   8.001  0.00  0.00    +0.000 HD
ENDBRANCH   6  10
BRANCH   1  15
ATOM     15  C   UNL     1      47.464   4.381  15.764  0.00  0.00    +0.000 C 
BRANCH  15  18
ATOM     16  C   UNL     1      48.613   5.701  19.074  0.00  0.00    +0.000 C 
ATOM     17  C   UNL     1      47.497   5.203  18.168  0.00  0.00    +0.000 C 
ATOM     18  C   UNL     1      48.148   5.274  16.798  0.00  0.00    +0.000 C 
ATOM     19  C   UNL     1      49.579   4.867  17.118  0.00  0.00    +0.000 C 
ATOM     20  O   UNL     1      49.848   5.265  18.473  0.00  0.00    +0.000 OA
BRANCH  16  21
ATOM     21  C   UNL     1      48.519   5.238  20.537  0.00  0.00    +0.000 C 
BRANCH  21  22
ATOM     22  N   UNL     1      48.407   3.782  20.681  0.00  0.00    +0.000 NA
ATOM     23  H   UNL     1      48.428   3.541  21.671  0.00  0.00    +0.000 HD
ATOM     24  H   UNL     1      49.247   3.365  20.271  0.00  0.00    +0.000 HD
ENDBRANCH  21  22
ENDBRANCH  16  21
ENDBRANCH  15  18
ENDBRANCH   1  15
TORSDOF 5
ENDMDL
MODEL 5
REMARK VINA RESULT:    -6.116      4.275      8.165
REMARK INTER + INTRA:          -7.818
REMARK INTER:                  -7.508
REMARK INTRA:                  -0.310
REMARK UNBOUND:                -0.093
REMARK  Name = 
REMARK  5 active torsions:
REMARK  status: ('A' for Active; 'I' for Inactive)
REMARK    1  A    between atoms: N_1  and  C_2
REMARK    2  A    between atoms: C_2  and  C_3
REMARK    3  A    between atoms: C_5  and  C_6
REMARK    4  A    between atoms: C_6  and  N_7
REMARK    5  A    between atoms: C_12  and  C_13
REMARK                            x       y       z     vdW  Elec       q    Type
REMARK                         _______ _______ _______ _____ _____    ______ ____
ROOT
ATOM      1  N   UNL     1      47.193   4.788  14.227  0.00  0.00    +0.000 N 
ATOM      2  C   UNL     1      47.840   5.955  13.915  0.00  0.00    +0.000 A 
ATOM      3  N   UNL     1      48.503   6.441  14.941  0.00  0.00    +0.000 NA
ATOM      4  C   UNL     1      48.247   5.572  15.967  0.00  0.00    +0.000 A 
ATOM      5  C   UNL     1      48.670   5.594  17.299  0.00  0.00    +0.000 A 
ATOM      6  C   UNL     1      48.190   4.586  18.142  0.00  0.00    +0.000 A 
ATOM      7  C   UNL     1      47.353   3.603  17.599  0.00  0.00    +0.000 A 
ATOM      8  N   UNL     1      46.947   3.519  16.297  0.00  0.00    +0.000 NA
ATOM      9  C   UNL     1      47.421   4.534  15.553  0.00  0.00    +0.000 A 
ENDROOT
BRANCH   6  10
ATOM     10  C   UNL     1      48.507   4.527  19.589  0.00  0.00    +0.000 C 
ATOM     11  N   UNL     1      48.444   3.314  20.221  0.00  0.00    +0.000 N 
ATOM     12  O   UNL     1      48.829   5.530  20.211  0.00  0.00    +0.000 OA
ATOM     13  H   UNL     1      48.204   2.436  19.789  0.00  0.00    +0.000 HD
ATOM     14  H   UNL     1      48.684   3.299  21.205  0.00  0.00    +0.000 HD
ENDBRANCH   6  10
BRANCH   1  15
ATOM     15  C   UNL     1      46.478   3.943  13.294  0.00  0.00    +0.000 C 
BRANCH  15  18
ATOM     16  C   UNL     1      43.097   5.269  12.386  0.00  0.00    +0.000 C 
ATOM     17  C   UNL     1      44.547   5.511  12.776  0.00  0.00    +0.000 C 
ATOM     18  C   UNL     1      44.964   4.147  13.299  0.00  0.00    +0.000 C 
ATOM     19  C   UNL     1      44.210   3.216  12.359  0.00  0.00    +0.000 C 
ATOM     20  O   UNL     1      43.020   3.903  11.936  0.00  0.00    +0.000 OA
BRANCH  16  21
ATOM     21  C   UNL     1      42.540   6.231  11.323  0.00  0.00    +0.000 C 
BRANCH  21  22
ATOM     22  N   UNL     1      43.311   7.474  11.200  0.00  0.00    +0.000 NA
ATOM     23  H   UNL     1      44.056   7.475  11.894  0.00  0.00    +0.000 HD
ATOM     24  H   UNL     1      42.691   8.249  11.449  0.00  0.00    +0.000 HD
ENDBRANCH  21  22
ENDBRANCH  16  21
ENDBRANCH  15  18
ENDBRANCH   1  15
TORSDOF 5
ENDMDL
MODEL 6
REMARK VINA RESULT:    -6.104      3.000      6.187
REMARK INTER + INTRA:          -7.803
REMARK INTER:                  -7.599
REMARK INTRA:                  -0.204
REMARK UNBOUND:                -0.093
REMARK  Name = 
REMARK  5 active torsions:
REMARK  status: ('A' for Active; 'I' for Inactive)
REMARK    1  A    between atoms: N_1  and  C_2
REMARK    2  A    between atoms: C_2  and  C_3
REMARK    3  A    between atoms: C_5  and  C_6
REMARK    4  A    between atoms: C_6  and  N_7
REMARK    5  A    between atoms: C_12  and  C_13
REMARK                            x       y       z     vdW  Elec       q    Type
REMARK                         _______ _______ _______ _____ _____    ______ ____
ROOT
ATOM      1  N   UNL     1      45.430   5.318  13.053  0.00  0.00    +0.000 N 
ATOM      2  C   UNL     1      46.268   4.350  13.542  0.00  0.00    +0.000 A 
ATOM      3  N   UNL     1      47.498   4.788  13.687  0.00  0.00    +0.000 NA
ATOM      4  C   UNL     1      47.463   6.083  13.243  0.00  0.00    +0.000 A 
ATOM      5  C   UNL     1      48.483   7.034  13.145  0.00  0.00    +0.000 A 
ATOM      6  C   UNL     1      48.152   8.274  12.588  0.00  0.00    +0.000 A 
ATOM      7  C   UNL     1      46.825   8.501  12.202  0.00  0.00    +0.000 A 
ATOM      8  N   UNL     1      45.789   7.616  12.316  0.00  0.00    +0.000 NA
ATOM      9  C   UNL     1      46.185   6.438  12.830  0.00  0.00    +0.000 A 
ENDROOT
BRANCH   6  10
ATOM     10  C   UNL     1      49.148   9.349  12.366  0.00  0.00    +0.000 C 
ATOM     11  N   UNL     1      49.020  10.513  13.077  0.00  0.00    +0.000 N 
ATOM     12  O   UNL     1      50.073   9.207  11.578  0.00  0.00    +0.000 OA
ATOM     13  H   UNL     1      48.304  10.714  13.755  0.00  0.00    +0.000 HD
ATOM     14  H   UNL     1      49.725  11.223  12.919  0.00  0.00    +0.000 HD
ENDBRANCH   6  10
BRANCH   1  15
ATOM     15  C   UNL     1      43.996   5.194  12.893  0.00  0.00    +0.000 C 
BRANCH  15  18
ATOM     16  C   UNL     1      44.207   3.752   9.445  0.00  0.00    +0.000 C 
ATOM     17  C   UNL     1      44.548   4.854  10.436  0.00  0.00    +0.000 C 
ATOM     18  C   UNL     1      43.567   4.578  11.563  0.00  0.00    +0.000 C 
ATOM     19  C   UNL     1      43.528   3.057  11.568  0.00  0.00    +0.000 C 
ATOM     20  O   UNL     1      43.799   2.614  10.228  0.00  0.00    +0.000 OA
BRANCH  16  21
ATOM     21  C   UNL     1      45.341   3.375   8.475  0.00  0.00    +0.000 C 
BRANCH  21  22
ATOM     22  N   UNL     1      46.021   4.539   7.894  0.00  0.00    +0.000 NA
ATOM     23  H   UNL     1      45.866   5.349   8.491  0.00  0.00    +0.000 HD
ATOM     24  H   UNL     1      45.562   4.752   7.004  0.00  0.00    +0.000 HD
ENDBRANCH  21  22
ENDBRANCH  16  21
ENDBRANCH  15  18
ENDBRANCH   1  15
TORSDOF 5
ENDMDL
MODEL 7
REMARK VINA RESULT:    -5.975      2.826      6.760
REMARK INTER + INTRA:          -7.639
REMARK INTER:                  -7.392
REMARK INTRA:                  -0.247
REMARK UNBOUND:                -0.093
REMARK  Name = 
REMARK  5 active torsions:
REMARK  status: ('A' for Active; 'I' for Inactive)
REMARK    1  A    between atoms: N_1  and  C_2
REMARK    2  A    between atoms: C_2  and  C_3
REMARK    3  A    between atoms: C_5  and  C_6
REMARK    4  A    between atoms: C_6  and  N_7
REMARK    5  A    between atoms: C_12  and  C_13
REMARK                            x       y       z     vdW  Elec       q    Type
REMARK                         _______ _______ _______ _____ _____    ______ ____
ROOT
ATOM      1  N   UNL     1      44.797   5.869  11.860  0.00  0.00    +0.000 N 
ATOM      2  C   UNL     1      43.973   6.831  11.336  0.00  0.00    +0.000 A 
ATOM      3  N   UNL     1      44.441   8.043  11.533  0.00  0.00    +0.000 NA
ATOM      4  C   UNL     1      45.598   7.860  12.242  0.00  0.00    +0.000 A 
ATOM      5  C   UNL     1      46.508   8.795  12.746  0.00  0.00    +0.000 A 
ATOM      6  C   UNL     1      47.584   8.303  13.493  0.00  0.00    +0.000 A 
ATOM      7  C   UNL     1      47.707   6.918  13.658  0.00  0.00    +0.000 A 
ATOM      8  N   UNL     1      46.866   5.968  13.150  0.00  0.00    +0.000 NA
ATOM      9  C   UNL     1      45.840   6.512  12.470  0.00  0.00    +0.000 A 
ENDROOT
BRANCH   6  10
ATOM     10  C   UNL     1      48.585   9.185  14.139  0.00  0.00    +0.000 C 
ATOM     11  N   UNL     1      48.228   9.853  15.279  0.00  0.00    +0.000 N 
ATOM     12  O   UNL     1      49.711   9.313  13.678  0.00  0.00    +0.000 OA
ATOM     13  H   UNL     1      47.333   9.799  15.738  0.00  0.00    +0.000 HD
ATOM     14  H   UNL     1      48.937  10.434  15.709  0.00  0.00    +0.000 HD
ENDBRANCH   6  10
BRANCH   1  15
ATOM     15  C   UNL     1      44.629   4.439  11.708  0.00  0.00    +0.000 C 
BRANCH  15  18
ATOM     16  C   UNL     1      44.848   3.507   8.089  0.00  0.00    +0.000 C 
ATOM     17  C   UNL     1      45.165   4.469   9.225  0.00  0.00    +0.000 C 
ATOM     18  C   UNL     1      44.206   4.004  10.307  0.00  0.00    +0.000 C 
ATOM     19  C   UNL     1      44.215   2.497  10.097  0.00  0.00    +0.000 C 
ATOM     20  O   UNL     1      44.485   2.257   8.705  0.00  0.00    +0.000 OA
BRANCH  16  21
ATOM     21  C   UNL     1      45.982   3.309   7.069  0.00  0.00    +0.000 C 
BRANCH  21  22
ATOM     22  N   UNL     1      47.028   4.336   7.154  0.00  0.00    +0.000 NA
ATOM     23  H   UNL     1      46.622   5.245   6.939  0.00  0.00    +0.000 HD
ATOM     24  H   UNL     1      47.707   4.147   6.412  0.00  0.00    +0.000 HD
ENDBRANCH  21  22
ENDBRANCH  16  21
ENDBRANCH  15  18
ENDBRANCH   1  15
TORSDOF 5
ENDMDL
MODEL 8
REMARK VINA RESULT:    -5.836      3.775      5.845
REMARK INTER + INTRA:          -7.464
REMARK INTER:                  -7.185
REMARK INTRA:                  -0.279
REMARK UNBOUND:                -0.093
REMARK  Name = 
REMARK  5 active torsions:
REMARK  status: ('A' for Active; 'I' for Inactive)
REMARK    1  A    between atoms: N_1  and  C_2
REMARK    2  A    between atoms: C_2  and  C_3
REMARK    3  A    between atoms: C_5  and  C_6
REMARK    4  A    between atoms: C_6  and  N_7
REMARK    5  A    between atoms: C_12  and  C_13
REMARK                            x       y       z     vdW  Elec       q    Type
REMARK                         _______ _______ _______ _____ _____    ______ ____
ROOT
ATOM      1  N   UNL     1      47.824   7.306  13.767  0.00  0.00    +0.000 N 
ATOM      2  C   UNL     1      47.487   8.629  13.647  0.00  0.00    +0.000 A 
ATOM      3  N   UNL     1      46.344   8.793  13.020  0.00  0.00    +0.000 NA
ATOM      4  C   UNL     1      45.940   7.526  12.692  0.00  0.00    +0.000 A 
ATOM      5  C   UNL     1      44.807   7.088  11.999  0.00  0.00    +0.000 A 
ATOM      6  C   UNL     1      44.694   5.715  11.759  0.00  0.00    +0.000 A 
ATOM      7  C   UNL     1      45.690   4.865  12.254  0.00  0.00    +0.000 A 
ATOM      8  N   UNL     1      46.791   5.244  12.969  0.00  0.00    +0.000 NA
ATOM      9  C   UNL     1      46.852   6.577  13.136  0.00  0.00    +0.000 A 
ENDROOT
BRANCH   6  10
ATOM     10  C   UNL     1      43.578   5.123  10.984  0.00  0.00    +0.000 C 
ATOM     11  N   UNL     1      43.776   4.856   9.655  0.00  0.00    +0.000 N 
ATOM     12  O   UNL     1      42.504   4.864  11.510  0.00  0.00    +0.000 OA
ATOM     13  H   UNL     1      44.627   5.021   9.142  0.00  0.00    +0.000 HD
ATOM     14  H   UNL     1      43.004   4.435   9.154  0.00  0.00    +0.000 HD
ENDBRANCH   6  10
BRANCH   1  15
ATOM     15  C   UNL     1      48.955   6.785  14.506  0.00  0.00    +0.000 C 
BRANCH  15  18
ATOM     16  C   UNL     1      48.207   4.875  17.637  0.00  0.00    +0.000 C 
ATOM     17  C   UNL     1      47.904   5.189  16.180  0.00  0.00    +0.000 C 
ATOM     18  C   UNL     1      48.659   6.491  15.975  0.00  0.00    +0.000 C 
ATOM     19  C   UNL     1      49.902   6.259  16.823  0.00  0.00    +0.000 C 
ATOM     20  O   UNL     1      49.536   5.370  17.891  0.00  0.00    +0.000 OA
BRANCH  16  21
ATOM     21  C   UNL     1      48.090   3.389  18.021  0.00  0.00    +0.000 C 
BRANCH  21  22
ATOM     22  N   UNL     1      46.763   2.822  17.756  0.00  0.00    +0.000 NA
ATOM     23  H   UNL     1      46.159   2.998  18.557  0.00  0.00    +0.000 HD
ATOM     24  H   UNL     1      46.867   1.806  17.698  0.00  0.00    +0.000 HD
ENDBRANCH  21  22
ENDBRANCH  16  21
ENDBRANCH  15  18
ENDBRANCH   1  15
TORSDOF 5
ENDMDL
MODEL 9
REMARK VINA RESULT:    -5.804      3.658      5.308
REMARK INTER + INTRA:          -7.423
REMARK INTER:                  -7.025
REMARK INTRA:                  -0.398
REMARK UNBOUND:                -0.093
REMARK  Name = 
REMARK  5 active torsions:
REMARK  status: ('A' for Active; 'I' for Inactive)
REMARK    1  A    between atoms: N_1  and  C_2
REMARK    2  A    between atoms: C_2  and  C_3
REMARK    3  A    between atoms: C_5  and  C_6
REMARK    4  A    between atoms: C_6  and  N_7
REMARK    5  A    between atoms: C_12  and  C_13
REMARK                            x       y       z     vdW  Elec       q    Type
REMARK                         _______ _______ _______ _____ _____    ______ ____
ROOT
ATOM      1  N   UNL     1      47.308   6.042  13.934  0.00  0.00    +0.000 N 
ATOM      2  C   UNL     1      47.274   5.039  14.867  0.00  0.00    +0.000 A 
ATOM      3  N   UNL     1      46.617   3.986  14.437  0.00  0.00    +0.000 NA
ATOM      4  C   UNL     1      46.180   4.333  13.186  0.00  0.00    +0.000 A 
ATOM      5  C   UNL     1      45.413   3.615  12.264  0.00  0.00    +0.000 A 
ATOM      6  C   UNL     1      45.067   4.264  11.074  0.00  0.00    +0.000 A 
ATOM      7  C   UNL     1      45.536   5.567  10.863  0.00  0.00    +0.000 A 
ATOM      8  N   UNL     1      46.319   6.291  11.717  0.00  0.00    +0.000 NA
ATOM      9  C   UNL     1      46.587   5.618  12.850  0.00  0.00    +0.000 A 
ENDROOT
BRANCH   6  10
ATOM     10  C   UNL     1      44.206   3.644  10.039  0.00  0.00    +0.000 C 
ATOM     11  N   UNL     1      43.938   4.357   8.901  0.00  0.00    +0.000 N 
ATOM     12  O   UNL     1      43.749   2.518  10.183  0.00  0.00    +0.000 OA
ATOM     13  H   UNL     1      44.281   5.279   8.689  0.00  0.00    +0.000 HD
ATOM     14  H   UNL     1      43.363   3.901   8.203  0.00  0.00    +0.000 HD
ENDBRANCH   6  10
BRANCH   1  15
ATOM     15  C   UNL     1      48.050   7.280  14.050  0.00  0.00    +0.000 C 
BRANCH  15  18
ATOM     16  C   UNL     1      50.960   8.256  11.906  0.00  0.00    +0.000 C 
ATOM     17  C   UNL     1      49.473   7.974  12.062  0.00  0.00    +0.000 C 
ATOM     18  C   UNL     1      49.429   7.246  13.395  0.00  0.00    +0.000 C 
ATOM     19  C   UNL     1      50.506   7.982  14.181  0.00  0.00    +0.000 C 
ATOM     20  O   UNL     1      51.475   8.465  13.235  0.00  0.00    +0.000 OA
BRANCH  16  21
ATOM     21  C   UNL     1      51.304   9.442  10.989  0.00  0.00    +0.000 C 
BRANCH  21  22
ATOM     22  N   UNL     1      52.376   9.145  10.031  0.00  0.00    +0.000 NA
ATOM     23  H   UNL     1      53.230   9.612  10.331  0.00  0.00    +0.000 HD
ATOM     24  H   UNL     1      52.119   9.573   9.137  0.00  0.00    +0.000 HD
ENDBRANCH  21  22
ENDBRANCH  16  21
ENDBRANCH  15  18
ENDBRANCH   1  15
TORSDOF 5
ENDMDL
