MODEL 1
REMARK VINA RESULT:    -8.133      0.000      0.000
REMARK INTER + INTRA:         -10.015
REMARK INTER:                 -10.035
REMARK INTRA:                   0.020
REMARK UNBOUND:                 0.020
REMARK  Name = 
REMARK  5 active torsions:
REMARK  status: ('A' for Active; 'I' for Inactive)
REMARK    1  A    between atoms: C_1  and  C_2
REMARK    2  A    between atoms: C_5  and  C_6
REMARK    3  A    between atoms: C_6  and  N_7
REMARK    4  A    between atoms: N_7  and  C_8
REMARK    5  A    between atoms: C_11  and  C_12
REMARK                            x       y       z     vdW  Elec       q    Type
REMARK                         _______ _______ _______ _____ _____    ______ ____
ROOT
ATOM      1  N   UNL     1      43.784   4.700  10.158  0.00  0.00    +0.000 N 
ATOM      2  H   UNL     1      42.836   4.429   9.899  0.00  0.00    +0.000 HD
ENDROOT
BRANCH   1   3
ATOM      3  C   UNL     1      44.742   3.998   9.399  0.00  0.00    +0.000 A 
ATOM      4  C   UNL     1      44.778   2.599   9.482  0.00  0.00    +0.000 A 
ATOM      5  C   UNL     1      45.638   1.861   8.666  0.00  0.00    +0.000 A 
ATOM      6  C   UNL     1      46.429   2.556   7.763  0.00  0.00    +0.000 A 
ATOM      7  N   UNL     1      46.418   3.909   7.627  0.00  0.00    +0.000 NA
ATOM      8  C   UNL     1      45.572   4.583   8.444  0.00  0.00    +0.000 A 
BRANCH   6   9
ATOM      9  C   UNL     1      47.364   1.819   6.858  0.00  0.00    +0.000 C 
ATOM     10  N   UNL     1      48.465   2.536   6.466  0.00  0.00    +0.000 N 
ATOM     11  O   UNL     1      47.171   0.669   6.490  0.00  0.00    +0.000 OA
ATOM     12  H   UNL     1      48.574   3.488   6.800  0.00  0.00    +0.000 HD
ATOM     13  H   UNL     1      49.152   2.117   5.859  0.00  0.00    +0.000 HD
ENDBRANCH   6   9
ENDBRANCH   1   3
BRANCH   1  14
ATOM     14  C   UNL     1      43.930   4.920  11.625  0.00  0.00    +0.000 C 
ATOM     15  C   UNL     1      42.720   5.146  12.518  0.00  0.00    +0.000 C 
ATOM     16  C   UNL     1      43.368   3.801  12.499  0.00  0.00    +0.000 C 
BRANCH  14  21
ATOM     17  C   UNL     1      49.128   7.004  12.982  0.00  0.00    +0.000 C 
ATOM     18  C   UNL     1      47.766   6.480  12.691  0.00  0.00    +0.000 A 
ATOM     19  C   UNL     1      47.254   5.338  13.263  0.00  0.00    +0.000 A 
ATOM     20  N   UNL     1      46.040   4.831  12.970  0.00  0.00    +0.000 NA
ATOM     21  C   UNL     1      45.295   5.494  12.058  0.00  0.00    +0.000 A 
ATOM     22  N   UNL     1      45.701   6.645  11.472  0.00  0.00    +0.000 NA
ATOM     23  C   UNL     1      46.923   7.104  11.798  0.00  0.00    +0.000 A 
ENDBRANCH  14  21
ENDBRANCH   1  14
TORSDOF 4
ENDMDL
MODEL 2
REMARK VINA RESULT:    -7.321      3.055      6.412
REMARK INTER + INTRA:          -9.013
REMARK INTER:                  -8.847
REMARK INTRA:                  -0.166
REMARK UNBOUND:                 0.020
REMARK  Name = 
REMARK  5 active torsions:
REMARK  status: ('A' for Active; 'I' for Inactive)
REMARK    1  A    between atoms: C_1  and  C_2
REMARK    2  A    between atoms: C_5  and  C_6
REMARK    3  A    between atoms: C_6  and  N_7
REMARK    4  A    between atoms: N_7  and  C_8
REMARK    5  A    between atoms: C_11  and  C_12
REMARK                            x       y       z     vdW  Elec       q    Type
REMARK                         _______ _______ _______ _____ _____    ______ ____
ROOT
ATOM      1  N   UNL     1      45.598   5.577  11.385  0.00  0.00    +0.000 N 
ATOM      2  H   UNL     1      46.240   6.060  10.756  0.00  0.00    +0.000 HD
ENDROOT
BRANCH   1   3
ATOM      3  C   UNL     1      46.245   5.188  12.575  0.00  0.00    +0.000 A 
ATOM      4  C   UNL     1      46.917   6.160  13.329  0.00  0.00    +0.000 A 
ATOM      5  C   UNL     1      47.477   5.838  14.566  0.00  0.00    +0.000 A 
ATOM      6  C   UNL     1      47.324   4.539  15.028  0.00  0.00    +0.000 A 
ATOM      7  N   UNL     1      46.666   3.563  14.347  0.00  0.00    +0.000 NA
ATOM      8  C   UNL     1      46.144   3.921  13.148  0.00  0.00    +0.000 A 
BRANCH   6   9
ATOM      9  C   UNL     1      47.897   4.136  16.349  0.00  0.00    +0.000 C 
ATOM     10  N   UNL     1      47.095   3.311  17.093  0.00  0.00    +0.000 N 
ATOM     11  O   UNL     1      48.993   4.509  16.744  0.00  0.00    +0.000 OA
ATOM     12  H   UNL     1      46.194   3.034  16.717  0.00  0.00    +0.000 HD
ATOM     13  H   UNL     1      47.402   2.985  17.997  0.00  0.00    +0.000 HD
ENDBRANCH   6   9
ENDBRANCH   1   3
BRANCH   1  14
ATOM     14  C   UNL     1      44.656   4.681  10.655  0.00  0.00    +0.000 C 
ATOM     15  C   UNL     1      43.443   4.076  11.344  0.00  0.00    +0.000 C 
ATOM     16  C   UNL     1      43.257   5.257  10.450  0.00  0.00    +0.000 C 
BRANCH  14  21
ATOM     17  C   UNL     1      47.154   1.852   6.302  0.00  0.00    +0.000 C 
ATOM     18  C   UNL     1      46.464   2.603   7.385  0.00  0.00    +0.000 A 
ATOM     19  C   UNL     1      46.431   3.978   7.453  0.00  0.00    +0.000 A 
ATOM     20  N   UNL     1      45.849   4.666   8.454  0.00  0.00    +0.000 NA
ATOM     21  C   UNL     1      45.271   3.949   9.444  0.00  0.00    +0.000 A 
ATOM     22  N   UNL     1      45.222   2.596   9.443  0.00  0.00    +0.000 NA
ATOM     23  C   UNL     1      45.822   1.960   8.420  0.00  0.00    +0.000 A 
ENDBRANCH  14  21
ENDBRANCH   1  14
TORSDOF 4
ENDMDL
MODEL 3
REMARK VINA RESULT:    -7.235      3.165      6.532
REMARK INTER + INTRA:          -8.907
REMARK INTER:                  -8.634
REMARK INTRA:                  -0.273
REMARK UNBOUND:                 0.020
REMARK  Name = 
REMARK  5 active torsions:
REMARK  status: ('A' for Active; 'I' for Inactive)
REMARK    1  A    between atoms: C_1  and  C_2
REMARK    2  A    between atoms: C_5  and  C_6
REMARK    3  A    between atoms: C_6  and  N_7
REMARK    4  A    between atoms: N_7  and  C_8
REMARK    5  A    between atoms: C_11  and  C_12
REMARK                            x       y       z     vdW  Elec       q    Type
REMARK                         _______ _______ _______ _____ _____    ______ ____
ROOT
ATOM      1  N   UNL     1      44.835   6.168  10.713  0.00  0.00    +0.000 N 
ATOM      2  H   UNL     1      45.044   6.537   9.785  0.00  0.00    +0.000 HD
ENDROOT
BRANCH   1   3
ATOM      3  C   UNL     1      45.640   6.773  11.698  0.00  0.00    +0.000 A 
ATOM      4  C   UNL     1      46.971   6.354  11.836  0.00  0.00    +0.000 A 
ATOM      5  C   UNL     1      47.831   7.002  12.724  0.00  0.00    +0.000 A 
ATOM      6  C   UNL     1      47.332   8.079  13.440  0.00  0.00    +0.000 A 
ATOM      7  N   UNL     1      46.057   8.539  13.330  0.00  0.00    +0.000 NA
ATOM      8  C   UNL     1      45.257   7.876  12.460  0.00  0.00    +0.000 A 
BRANCH   6   9
ATOM      9  C   UNL     1      48.208   8.816  14.402  0.00  0.00    +0.000 C 
ATOM     10  N   UNL     1      47.574   9.252  15.536  0.00  0.00    +0.000 N 
ATOM     11  O   UNL     1      49.398   9.019  14.202  0.00  0.00    +0.000 OA
ATOM     12  H   UNL     1      46.584   9.057  15.650  0.00  0.00    +0.000 HD
ATOM     13  H   UNL     1      48.088   9.754  16.243  0.00  0.00    +0.000 HD
ENDBRANCH   6   9
ENDBRANCH   1   3
BRANCH   1  14
ATOM     14  C   UNL     1      44.560   4.703  10.691  0.00  0.00    +0.000 C 
ATOM     15  C   UNL     1      44.237   3.937  11.964  0.00  0.00    +0.000 C 
ATOM     16  C   UNL     1      43.125   4.317  11.042  0.00  0.00    +0.000 C 
BRANCH  14  21
ATOM     17  C   UNL     1      47.127   1.797   6.428  0.00  0.00    +0.000 C 
ATOM     18  C   UNL     1      46.418   2.565   7.488  0.00  0.00    +0.000 A 
ATOM     19  C   UNL     1      46.337   3.939   7.503  0.00  0.00    +0.000 A 
ATOM     20  N   UNL     1      45.738   4.645   8.482  0.00  0.00    +0.000 NA
ATOM     21  C   UNL     1      45.192   3.947   9.503  0.00  0.00    +0.000 A 
ATOM     22  N   UNL     1      45.191   2.594   9.554  0.00  0.00    +0.000 NA
ATOM     23  C   UNL     1      45.806   1.941   8.551  0.00  0.00    +0.000 A 
ENDBRANCH  14  21
ENDBRANCH   1  14
TORSDOF 4
ENDMDL
MODEL 4
REMARK VINA RESULT:    -6.386      2.705      4.576
REMARK INTER + INTRA:          -7.859
REMARK INTER:                  -7.949
REMARK INTRA:                   0.090
REMARK UNBOUND:                 0.020
REMARK  Name = 
REMARK  5 active torsions:
REMARK  status: ('A' for Active; 'I' for Inactive)
REMARK    1  A    between atoms: C_1  and  C_2
REMARK    2  A    between atoms: C_5  and  C_6
REMARK    3  A    between atoms: C_6  and  N_7
REMARK    4  A    between atoms: N_7  and  C_8
REMARK    5  A    between atoms: C_11  and  C_12
REMARK                            x       y       z     vdW  Elec       q    Type
REMARK                         _______ _______ _______ _____ _____    ______ ____
ROOT
ATOM      1  N   UNL     1      46.096   6.244  13.362  0.00  0.00    +0.000 N 
ATOM      2  H   UNL     1      45.485   6.168  14.175  0.00  0.00    +0.000 HD
ENDROOT
BRANCH   1   3
ATOM      3  C   UNL     1      45.641   5.436  12.301  0.00  0.00    +0.000 A 
ATOM      4  C   UNL     1      45.702   5.937  10.994  0.00  0.00    +0.000 A 
ATOM      5  C   UNL     1      45.362   5.129   9.907  0.00  0.00    +0.000 A 
ATOM      6  C   UNL     1      44.988   3.819  10.166  0.00  0.00    +0.000 A 
ATOM      7  N   UNL     1      44.932   3.277  11.411  0.00  0.00    +0.000 NA
ATOM      8  C   UNL     1      45.265   4.100  12.435  0.00  0.00    +0.000 A 
BRANCH   6   9
ATOM      9  C   UNL     1      44.620   2.904   9.041  0.00  0.00    +0.000 C 
ATOM     10  N   UNL     1      44.297   3.539   7.870  0.00  0.00    +0.000 N 
ATOM     11  O   UNL     1      44.603   1.686   9.148  0.00  0.00    +0.000 OA
ATOM     12  H   UNL     1      44.326   4.553   7.838  0.00  0.00    +0.000 HD
ATOM     13  H   UNL     1      44.040   3.002   7.056  0.00  0.00    +0.000 HD
ENDBRANCH   6   9
ENDBRANCH   1   3
BRANCH   1  14
ATOM     14  C   UNL     1      47.536   6.332  13.741  0.00  0.00    +0.000 C 
ATOM     15  C   UNL     1      48.608   6.665  12.716  0.00  0.00    +0.000 C 
ATOM     16  C   UNL     1      48.137   7.733  13.647  0.00  0.00    +0.000 C 
BRANCH  14  21
ATOM     17  C   UNL     1      48.724   3.315  18.504  0.00  0.00    +0.000 C 
ATOM     18  C   UNL     1      48.477   4.083  17.254  0.00  0.00    +0.000 A 
ATOM     19  C   UNL     1      49.070   5.294  16.977  0.00  0.00    +0.000 A 
ATOM     20  N   UNL     1      48.817   6.018  15.869  0.00  0.00    +0.000 NA
ATOM     21  C   UNL     1      47.924   5.513  14.990  0.00  0.00    +0.000 A 
ATOM     22  N   UNL     1      47.319   4.313  15.160  0.00  0.00    +0.000 NA
ATOM     23  C   UNL     1      47.607   3.634  16.286  0.00  0.00    +0.000 A 
ENDBRANCH  14  21
ENDBRANCH   1  14
TORSDOF 4
ENDMDL
MODEL 5
REMARK VINA RESULT:    -6.309      3.280      5.372
REMARK INTER + INTRA:          -7.764
REMARK INTER:                  -7.421
REMARK INTRA:                  -0.342
REMARK UNBOUND:                 0.020
REMARK  Name = 
REMARK  5 active torsions:
REMARK  status: ('A' for Active; 'I' for Inactive)
REMARK    1  A    between atoms: C_1  and  C_2
REMARK    2  A    between atoms: C_5  and  C_6
REMARK    3  A    between atoms: C_6  and  N_7
REMARK    4  A    between atoms: N_7  and  C_8
REMARK    5  A    between atoms: C_11  and  C_12
REMARK                            x       y       z     vdW  Elec       q    Type
REMARK                         _______ _______ _______ _____ _____    ______ ____
ROOT
ATOM      1  N   UNL     1      46.602   7.303  13.443  0.00  0.00    +0.000 N 
ATOM      2  H   UNL     1      46.113   7.708  14.241  0.00  0.00    +0.000 HD
ENDROOT
BRANCH   1   3
ATOM      3  C   UNL     1      45.879   6.225  12.894  0.00  0.00    +0.000 A 
ATOM      4  C   UNL     1      45.467   6.296  11.556  0.00  0.00    +0.000 A 
ATOM      5  C   UNL     1      44.844   5.207  10.945  0.00  0.00    +0.000 A 
ATOM      6  C   UNL     1      44.673   4.054  11.696  0.00  0.00    +0.000 A 
ATOM      7  N   UNL     1      45.071   3.923  12.990  0.00  0.00    +0.000 NA
ATOM      8  C   UNL     1      45.665   5.009  13.543  0.00  0.00    +0.000 A 
BRANCH   6   9
ATOM      9  C   UNL     1      44.018   2.852  11.093  0.00  0.00    +0.000 C 
ATOM     10  N   UNL     1      44.678   2.322  10.015  0.00  0.00    +0.000 N 
ATOM     11  O   UNL     1      42.976   2.374  11.519  0.00  0.00    +0.000 OA
ATOM     12  H   UNL     1      45.538   2.760   9.703  0.00  0.00    +0.000 HD
ATOM     13  H   UNL     1      44.312   1.507   9.547  0.00  0.00    +0.000 HD
ENDBRANCH   6   9
ENDBRANCH   1   3
BRANCH   1  14
ATOM     14  C   UNL     1      48.078   7.257  13.645  0.00  0.00    +0.000 C 
ATOM     15  C   UNL     1      49.022   6.864  12.520  0.00  0.00    +0.000 C 
ATOM     16  C   UNL     1      48.863   8.308  12.863  0.00  0.00    +0.000 C 
BRANCH  14  21
ATOM     17  C   UNL     1      49.482   6.293  19.149  0.00  0.00    +0.000 C 
ATOM     18  C   UNL     1      49.177   6.569  17.719  0.00  0.00    +0.000 A 
ATOM     19  C   UNL     1      48.981   7.835  17.216  0.00  0.00    +0.000 A 
ATOM     20  N   UNL     1      48.659   8.092  15.933  0.00  0.00    +0.000 NA
ATOM     21  C   UNL     1      48.521   7.031  15.105  0.00  0.00    +0.000 A 
ATOM     22  N   UNL     1      48.731   5.754  15.503  0.00  0.00    +0.000 NA
ATOM     23  C   UNL     1      49.047   5.556  16.796  0.00  0.00    +0.000 A 
ENDBRANCH  14  21
ENDBRANCH   1  14
TORSDOF 4
ENDMDL
MODEL 6
REMARK VINA RESULT:    -5.820      4.871      7.268
REMARK INTER + INTRA:          -7.161
REMARK INTER:                  -6.842
REMARK INTRA:                  -0.319
REMARK UNBOUND:                 0.020
REMARK  Name = 
REMARK  5 active torsions:
REMARK  status: ('A' for Active; 'I' for Inactive)
REMARK    1  A    between atoms: C_1  and  C_2
REMARK    2  A    between atoms: C_5  and  C_6
REMARK    3  A    between atoms: C_6  and  N_7
REMARK    4  A    between atoms: N_7  and  C_8
REMARK    5  A    between atoms: C_11  and  C_12
REMARK                            x       y       z     vdW  Elec       q    Type
REMARK                         _______ _______ _______ _____ _____    ______ ____
ROOT
ATOM      1  N   UNL     1      46.503   4.730  15.389  0.00  0.00    +0.000 N 
ATOM      2  H   UNL     1      46.034   5.539  15.797  0.00  0.00    +0.000 HD
ENDROOT
BRANCH   1   3
ATOM      3  C   UNL     1      47.648   4.376  16.129  0.00  0.00    +0.000 A 
ATOM      4  C   UNL     1      47.901   3.020  16.379  0.00  0.00    +0.000 A 
ATOM      5  C   UNL     1      49.079   2.621  17.014  0.00  0.00    +0.000 A 
ATOM      6  C   UNL     1      49.991   3.606  17.363  0.00  0.00    +0.000 A 
ATOM      7  N   UNL     1      49.806   4.932  17.126  0.00  0.00    +0.000 NA
ATOM      8  C   UNL     1      48.646   5.272  16.513  0.00  0.00    +0.000 A 
BRANCH   6   9
ATOM      9  C   UNL     1      51.273   3.239  18.039  0.00  0.00    +0.000 C 
ATOM     10  N   UNL     1      51.631   1.922  17.911  0.00  0.00    +0.000 N 
ATOM     11  O   UNL     1      51.955   4.042  18.661  0.00  0.00    +0.000 OA
ATOM     12  H   UNL     1      51.027   1.299  17.385  0.00  0.00    +0.000 HD
ATOM     13  H   UNL     1      52.484   1.586  18.331  0.00  0.00    +0.000 HD
ENDBRANCH   6   9
ENDBRANCH   1   3
BRANCH   1  14
ATOM     14  C   UNL     1      46.489   4.758  13.899  0.00  0.00    +0.000 C 
ATOM     15  C   UNL     1      46.397   3.479  13.081  0.00  0.00    +0.000 C 
ATOM     16  C   UNL     1      45.173   4.315  13.263  0.00  0.00    +0.000 C 
BRANCH  14  21
ATOM     17  C   UNL     1      49.132   9.427  11.797  0.00  0.00    +0.000 C 
ATOM     18  C   UNL     1      48.418   8.216  12.285  0.00  0.00    +0.000 A 
ATOM     19  C   UNL     1      47.072   8.194  12.572  0.00  0.00    +0.000 A 
ATOM     20  N   UNL     1      46.425   7.115  13.057  0.00  0.00    +0.000 NA
ATOM     21  C   UNL     1      47.158   5.999  13.272  0.00  0.00    +0.000 A 
ATOM     22  N   UNL     1      48.478   5.917  12.984  0.00  0.00    +0.000 NA
ATOM     23  C   UNL     1      49.073   7.025  12.504  0.00  0.00    +0.000 A 
ENDBRANCH  14  21
ENDBRANCH   1  14
TORSDOF 4
ENDMDL
MODEL 7
REMARK VINA RESULT:    -5.150      4.880      7.809
REMARK INTER + INTRA:          -6.334
REMARK INTER:                  -6.485
REMARK INTRA:                   0.151
REMARK UNBOUND:                 0.020
REMARK  Name = 
REMARK  5 active torsions:
REMARK  status: ('A' for Active; 'I' for Inactive)
REMARK    1  A    between atoms: C_1  and  C_2
REMARK    2  A    between atoms: C_5  and  C_6
REMARK    3  A    between atoms: C_6  and  N_7
REMARK    4  A    between atoms: N_7  and  C_8
REMARK    5  A    between atoms: C_11  and  C_12
REMARK                            x       y       z     vdW  Elec       q    Type
REMARK                         _______ _______ _______ _____ _____    ______ ____
ROOT
ATOM      1  N   UNL     1      47.916   7.530  14.737  0.00  0.00    +0.000 N 
ATOM      2  H   UNL     1      48.114   8.490  15.018  0.00  0.00    +0.000 HD
ENDROOT
BRANCH   1   3
ATOM      3  C   UNL     1      48.669   6.610  15.494  0.00  0.00    +0.000 A 
ATOM      4  C   UNL     1      49.935   6.992  15.959  0.00  0.00    +0.000 A 
ATOM      5  C   UNL     1      50.666   6.152  16.802  0.00  0.00    +0.000 A 
ATOM      6  C   UNL     1      50.088   4.948  17.175  0.00  0.00    +0.000 A 
ATOM      7  N   UNL     1      48.857   4.538  16.769  0.00  0.00    +0.000 NA
ATOM      8  C   UNL     1      48.187   5.383  15.948  0.00  0.00    +0.000 A 
BRANCH   6   9
ATOM      9  C   UNL     1      50.820   4.010  18.081  0.00  0.00    +0.000 C 
ATOM     10  N   UNL     1      50.280   2.752  18.161  0.00  0.00    +0.000 N 
ATOM     11  O   UNL     1      51.822   4.330  18.706  0.00  0.00    +0.000 OA
ATOM     12  H   UNL     1      49.447   2.542  17.621  0.00  0.00    +0.000 HD
ATOM     13  H   UNL     1      50.711   2.052  18.744  0.00  0.00    +0.000 HD
ENDBRANCH   6   9
ENDBRANCH   1   3
BRANCH   1  14
ATOM     14  C   UNL     1      47.734   7.396  13.263  0.00  0.00    +0.000 C 
ATOM     15  C   UNL     1      48.490   8.282  12.287  0.00  0.00    +0.000 C 
ATOM     16  C   UNL     1      48.961   6.884  12.512  0.00  0.00    +0.000 C 
BRANCH  14  21
ATOM     17  C   UNL     1      42.546   5.372  11.786  0.00  0.00    +0.000 C 
ATOM     18  C   UNL     1      43.912   5.845  12.138  0.00  0.00    +0.000 A 
ATOM     19  C   UNL     1      44.728   5.201  13.041  0.00  0.00    +0.000 A 
ATOM     20  N   UNL     1      45.948   5.647  13.400  0.00  0.00    +0.000 NA
ATOM     21  C   UNL     1      46.379   6.796  12.834  0.00  0.00    +0.000 A 
ATOM     22  N   UNL     1      45.662   7.477  11.909  0.00  0.00    +0.000 NA
ATOM     23  C   UNL     1      44.449   6.988  11.590  0.00  0.00    +0.000 A 
ENDBRANCH  14  21
ENDBRANCH   1  14
TORSDOF 4
ENDMDL
