MODEL 1
REMARK VINA RESULT:    -8.575      0.000      0.000
REMARK INTER + INTRA:         -13.464
REMARK INTER:                 -12.335
REMARK INTRA:                  -1.129
REMARK UNBOUND:                -1.129
REMARK  Name = 
REMARK  8 active torsions:
REMARK  status: ('A' for Active; 'I' for Inactive)
REMARK    1  A    between atoms: N_1  and  C_2
REMARK    2  A    between atoms: C_2  and  C_3
REMARK    3  A    between atoms: C_2  and  C_17
REMARK    4  A    between atoms: C_3  and  N_4
REMARK    5  A    between atoms: C_5  and  C_7
REMARK    6  A    between atoms: C_20  and  C_21
REMARK    7  A    between atoms: C_21  and  N_22
REMARK    8  A    between atoms: C_23  and  C_25
REMARK                            x       y       z     vdW  Elec       q    Type
REMARK                         _______ _______ _______ _____ _____    ______ ____
ROOT
ATOM      1  C   UNL     1      47.133   4.054  15.764  0.00  0.00    +0.000 C 
ENDROOT
BRANCH   1   2
ATOM      2  C   UNL     1      46.693   4.660  14.434  0.00  0.00    +0.000 A 
ATOM      3  C   UNL     1      47.407   5.727  13.862  0.00  0.00    +0.000 A 
ATOM      4  C   UNL     1      47.049   6.258  12.619  0.00  0.00    +0.000 A 
ATOM      5  C   UNL     1      45.968   5.730  11.906  0.00  0.00    +0.000 A 
ATOM      6  C   UNL     1      45.257   4.663  12.461  0.00  0.00    +0.000 A 
ATOM      7  C   UNL     1      45.614   4.137  13.704  0.00  0.00    +0.000 A 
BRANCH   5   8
ATOM      8  C   UNL     1      45.576   6.278  10.563  0.00  0.00    +0.000 C 
BRANCH   8   9
ATOM      9  N   UNL     1      45.904   5.381   9.484  0.00  0.00    +0.000 N 
ATOM     10  C   UNL     1      44.978   4.503   8.969  0.00  0.00    +0.000 C 
ATOM     11  O   UNL     1      43.839   4.387   9.414  0.00  0.00    +0.000 OA
ATOM     12  H   UNL     1      46.829   5.373   9.065  0.00  0.00    +0.000 HD
BRANCH  10  13
ATOM     13  C   UNL     1      45.508   3.610   7.839  0.00  0.00    +0.000 C 
ATOM     14  C   UNL     1      45.936   2.244   8.339  0.00  0.00    +0.000 C 
ATOM     15  C   UNL     1      46.831   1.744   7.222  0.00  0.00    +0.000 C 
ATOM     16  C   UNL     1      47.451   3.005   6.632  0.00  0.00    +0.000 C 
ATOM     17  N   UNL     1      46.772   4.140   7.266  0.00  0.00    +0.000 NA
ATOM     18  H   UNL     1      46.557   4.859   6.575  0.00  0.00    +0.000 HD
ENDBRANCH  10  13
ENDBRANCH   8   9
ENDBRANCH   5   8
ENDBRANCH   1   2
BRANCH   1  19
ATOM     19  N   UNL     1      47.898   2.806  15.553  0.00  0.00    +0.000 NA
ATOM     20  H   UNL     1      47.238   2.044  15.402  0.00  0.00    +0.000 HD
ATOM     21  H   UNL     1      48.342   2.562  16.441  0.00  0.00    +0.000 HD
ENDBRANCH   1  19
BRANCH   1  22
ATOM     22  C   UNL     1      47.929   5.051  16.652  0.00  0.00    +0.000 C 
BRANCH  22  23
ATOM     23  N   UNL     1      49.114   4.472  17.249  0.00  0.00    +0.000 N 
ATOM     24  C   UNL     1      50.362   4.975  17.023  0.00  0.00    +0.000 C 
ATOM     25  O   UNL     1      50.563   5.933  16.281  0.00  0.00    +0.000 OA
ATOM     26  H   UNL     1      49.004   3.562  17.690  0.00  0.00    +0.000 HD
BRANCH  24  27
ATOM     27  C   UNL     1      51.452   4.329  17.746  0.00  0.00    +0.000 A 
ATOM     28  C   UNL     1      52.300   5.088  18.536  0.00  0.00    +0.000 A 
ATOM     29  S   UNL     1      53.479   4.156  19.341  0.00  0.00    +0.000 S 
ATOM     30  C   UNL     1      52.926   2.720  18.610  0.00  0.00    +0.000 A 
ATOM     31  N   UNL     1      53.526   1.527  18.851  0.00  0.00    +0.000 NA
ATOM     32  C   UNL     1      53.029   0.533  18.202  0.00  0.00    +0.000 A 
ATOM     33  N   UNL     1      51.970   0.618  17.330  0.00  0.00    +0.000 N 
ATOM     34  C   UNL     1      51.296   1.792  17.092  0.00  0.00    +0.000 A 
ATOM     35  O   UNL     1      50.298   1.819  16.383  0.00  0.00    +0.000 OA
ATOM     36  C   UNL     1      51.839   2.945  17.783  0.00  0.00    +0.000 A 
ATOM     37  H   UNL     1      51.612  -0.201  16.862  0.00  0.00    +0.000 HD
ENDBRANCH  24  27
ENDBRANCH  22  23
ENDBRANCH   1  22
TORSDOF 8
ENDMDL
MODEL 2
REMARK VINA RESULT:    -7.908      3.388     10.050
REMARK INTER + INTRA:         -12.505
REMARK INTER:                 -11.517
REMARK INTRA:                  -0.988
REMARK UNBOUND:                -1.129
REMARK  Name = 
REMARK  8 active torsions:
REMARK  status: ('A' for Active; 'I' for Inactive)
REMARK    1  A    between atoms: N_1  and  C_2
REMARK    2  A    between atoms: C_2  and  C_3
REMARK    3  A    between atoms: C_2  and  C_17
REMARK    4  A    between atoms: C_3  and  N_4
REMARK    5  A    between atoms: C_5  and  C_7
REMARK    6  A    between atoms: C_20  and  C_21
REMARK    7  A    between atoms: C_21  and  N_22
REMARK    8  A    between atoms: C_23  and  C_25
REMARK                            x       y       z     vdW  Elec       q    Type
REMARK                         _______ _______ _______ _____ _____    ______ ____
ROOT
ATOM      1  C   UNL     1      48.031   3.402  16.669  0.00  0.00    +0.000 C 
ENDROOT
BRANCH   1   2
ATOM      2  C   UNL     1      49.437   3.034  17.134  0.00  0.00    +0.000 A 
ATOM      3  C   UNL     1      49.922   1.724  16.981  0.00  0.00    +0.000 A 
ATOM      4  C   UNL     1      51.227   1.383  17.352  0.00  0.00    +0.000 A 
ATOM      5  C   UNL     1      52.090   2.348  17.881  0.00  0.00    +0.000 A 
ATOM      6  C   UNL     1      51.621   3.656  18.029  0.00  0.00    +0.000 A 
ATOM      7  C   UNL     1      50.317   3.992  17.661  0.00  0.00    +0.000 A 
BRANCH   5   8
ATOM      8  C   UNL     1      53.499   2.005  18.274  0.00  0.00    +0.000 C 
BRANCH   8   9
ATOM      9  N   UNL     1      53.618   0.664  18.785  0.00  0.00    +0.000 N 
ATOM     10  C   UNL     1      54.435  -0.267  18.185  0.00  0.00    +0.000 C 
ATOM     11  O   UNL     1      55.075  -0.041  17.161  0.00  0.00    +0.000 OA
ATOM     12  H   UNL     1      53.106   0.363  19.609  0.00  0.00    +0.000 HD
BRANCH  10  13
ATOM     13  C   UNL     1      54.423  -1.649  18.852  0.00  0.00    +0.000 C 
ATOM     14  C   UNL     1      54.770  -2.758  17.879  0.00  0.00    +0.000 C 
ATOM     15  C   UNL     1      54.242  -3.995  18.581  0.00  0.00    +0.000 C 
ATOM     16  C   UNL     1      53.051  -3.499  19.391  0.00  0.00    +0.000 C 
ATOM     17  N   UNL     1      53.057  -2.036  19.290  0.00  0.00    +0.000 NA
ATOM     18  H   UNL     1      52.859  -1.614  20.198  0.00  0.00    +0.000 HD
ENDBRANCH  10  13
ENDBRANCH   8   9
ENDBRANCH   5   8
ENDBRANCH   1   2
BRANCH   1  19
ATOM     19  N   UNL     1      47.015   2.970  17.653  0.00  0.00    +0.000 NA
ATOM     20  H   UNL     1      46.181   2.674  17.147  0.00  0.00    +0.000 HD
ATOM     21  H   UNL     1      46.703   3.802  18.159  0.00  0.00    +0.000 HD
ENDBRANCH   1  19
BRANCH   1  22
ATOM     22  C   UNL     1      47.878   4.913  16.337  0.00  0.00    +0.000 C 
BRANCH  22  23
ATOM     23  N   UNL     1      46.957   5.174  15.251  0.00  0.00    +0.000 N 
ATOM     24  C   UNL     1      47.354   5.767  14.088  0.00  0.00    +0.000 C 
ATOM     25  O   UNL     1      48.508   6.141  13.899  0.00  0.00    +0.000 OA
ATOM     26  H   UNL     1      45.966   5.072  15.458  0.00  0.00    +0.000 HD
BRANCH  24  27
ATOM     27  C   UNL     1      46.330   5.904  13.058  0.00  0.00    +0.000 A 
ATOM     28  C   UNL     1      45.969   7.164  12.608  0.00  0.00    +0.000 A 
ATOM     29  S   UNL     1      44.796   7.125  11.372  0.00  0.00    +0.000 S 
ATOM     30  C   UNL     1      44.696   5.425  11.444  0.00  0.00    +0.000 A 
ATOM     31  N   UNL     1      43.840   4.734  10.649  0.00  0.00    +0.000 NA
ATOM     32  C   UNL     1      43.841   3.460  10.838  0.00  0.00    +0.000 A 
ATOM     33  N   UNL     1      44.630   2.803  11.751  0.00  0.00    +0.000 N 
ATOM     34  C   UNL     1      45.548   3.453  12.541  0.00  0.00    +0.000 A 
ATOM     35  O   UNL     1      46.304   2.832  13.278  0.00  0.00    +0.000 OA
ATOM     36  C   UNL     1      45.564   4.894  12.381  0.00  0.00    +0.000 A 
ATOM     37  H   UNL     1      44.600   1.799  11.841  0.00  0.00    +0.000 HD
ENDBRANCH  24  27
ENDBRANCH  22  23
ENDBRANCH   1  22
TORSDOF 8
ENDMDL
MODEL 3
REMARK VINA RESULT:    -7.713      2.793      3.713
REMARK INTER + INTRA:         -12.223
REMARK INTER:                 -11.045
REMARK INTRA:                  -1.178
REMARK UNBOUND:                -1.129
REMARK  Name = 
REMARK  8 active torsions:
REMARK  status: ('A' for Active; 'I' for Inactive)
REMARK    1  A    between atoms: N_1  and  C_2
REMARK    2  A    between atoms: C_2  and  C_3
REMARK    3  A    between atoms: C_2  and  C_17
REMARK    4  A    between atoms: C_3  and  N_4
REMARK    5  A    between atoms: C_5  and  C_7
REMARK    6  A    between atoms: C_20  and  C_21
REMARK    7  A    between atoms: C_21  and  N_22
REMARK    8  A    between atoms: C_23  and  C_25
REMARK                            x       y       z     vdW  Elec       q    Type
REMARK                         _______ _______ _______ _____ _____    ______ ____
ROOT
ATOM      1  C   UNL     1      48.536   9.041  13.474  0.00  0.00    +0.000 C 
ENDROOT
BRANCH   1   2
ATOM      2  C   UNL     1      47.430   8.169  12.884  0.00  0.00    +0.000 A 
ATOM      3  C   UNL     1      46.078   8.506  13.066  0.00  0.00    +0.000 A 
ATOM      4  C   UNL     1      45.055   7.748  12.488  0.00  0.00    +0.000 A 
ATOM      5  C   UNL     1      45.356   6.631  11.701  0.00  0.00    +0.000 A 
ATOM      6  C   UNL     1      46.697   6.292  11.506  0.00  0.00    +0.000 A 
ATOM      7  C   UNL     1      47.717   7.049  12.088  0.00  0.00    +0.000 A 
BRANCH   5   8
ATOM      8  C   UNL     1      44.273   5.811  11.060  0.00  0.00    +0.000 C 
BRANCH   8   9
ATOM      9  N   UNL     1      44.727   5.123   9.880  0.00  0.00    +0.000 N 
ATOM     10  C   UNL     1      44.344   3.830   9.606  0.00  0.00    +0.000 C 
ATOM     11  O   UNL     1      43.637   3.164  10.357  0.00  0.00    +0.000 OA
ATOM     12  H   UNL     1      45.342   5.573   9.207  0.00  0.00    +0.000 HD
BRANCH  10  13
ATOM     13  C   UNL     1      44.941   3.249   8.316  0.00  0.00    +0.000 C 
ATOM     14  C   UNL     1      45.773   2.009   8.578  0.00  0.00    +0.000 C 
ATOM     15  C   UNL     1      46.617   1.903   7.322  0.00  0.00    +0.000 C 
ATOM     16  C   UNL     1      46.802   3.342   6.860  0.00  0.00    +0.000 C 
ATOM     17  N   UNL     1      45.935   4.168   7.708  0.00  0.00    +0.000 NA
ATOM     18  H   UNL     1      45.451   4.871   7.148  0.00  0.00    +0.000 HD
ENDBRANCH  10  13
ENDBRANCH   8   9
ENDBRANCH   5   8
ENDBRANCH   1   2
BRANCH   1  19
ATOM     19  N   UNL     1      48.757  10.249  12.651  0.00  0.00    +0.000 NA
ATOM     20  H   UNL     1      48.231  11.020  13.061  0.00  0.00    +0.000 HD
ATOM     21  H   UNL     1      48.295  10.098  11.751  0.00  0.00    +0.000 HD
ENDBRANCH   1  19
BRANCH   1  22
ATOM     22  C   UNL     1      48.283   9.418  14.960  0.00  0.00    +0.000 C 
BRANCH  22  23
ATOM     23  N   UNL     1      48.298   8.280  15.854  0.00  0.00    +0.000 N 
ATOM     24  C   UNL     1      49.454   7.648  16.210  0.00  0.00    +0.000 C 
ATOM     25  O   UNL     1      50.551   7.988  15.775  0.00  0.00    +0.000 OA
ATOM     26  H   UNL     1      47.398   7.849  16.058  0.00  0.00    +0.000 HD
BRANCH  24  27
ATOM     27  C   UNL     1      49.318   6.559  17.171  0.00  0.00    +0.000 A 
ATOM     28  C   UNL     1      49.934   6.651  18.408  0.00  0.00    +0.000 A 
ATOM     29  S   UNL     1      49.623   5.311  19.413  0.00  0.00    +0.000 S 
ATOM     30  C   UNL     1      48.704   4.543  18.202  0.00  0.00    +0.000 A 
ATOM     31  N   UNL     1      48.153   3.319  18.402  0.00  0.00    +0.000 NA
ATOM     32  C   UNL     1      47.519   2.843  17.387  0.00  0.00    +0.000 A 
ATOM     33  N   UNL     1      47.374   3.484  16.181  0.00  0.00    +0.000 N 
ATOM     34  C   UNL     1      47.868   4.745  15.947  0.00  0.00    +0.000 A 
ATOM     35  O   UNL     1      47.644   5.331  14.895  0.00  0.00    +0.000 OA
ATOM     36  C   UNL     1      48.614   5.312  17.054  0.00  0.00    +0.000 A 
ATOM     37  H   UNL     1      46.849   3.067  15.427  0.00  0.00    +0.000 HD
ENDBRANCH  24  27
ENDBRANCH  22  23
ENDBRANCH   1  22
TORSDOF 8
ENDMDL
MODEL 4
REMARK VINA RESULT:    -7.632      3.213      4.482
REMARK INTER + INTRA:         -12.108
REMARK INTER:                 -10.904
REMARK INTRA:                  -1.203
REMARK UNBOUND:                -1.129
REMARK  Name = 
REMARK  8 active torsions:
REMARK  status: ('A' for Active; 'I' for Inactive)
REMARK    1  A    between atoms: N_1  and  C_2
REMARK    2  A    between atoms: C_2  and  C_3
REMARK    3  A    between atoms: C_2  and  C_17
REMARK    4  A    between atoms: C_3  and  N_4
REMARK    5  A    between atoms: C_5  and  C_7
REMARK    6  A    between atoms: C_20  and  C_21
REMARK    7  A    between atoms: C_21  and  N_22
REMARK    8  A    between atoms: C_23  and  C_25
REMARK                            x       y       z     vdW  Elec       q    Type
REMARK                         _______ _______ _______ _____ _____    ______ ____
ROOT
ATOM      1  C   UNL     1      47.735   8.279  13.712  0.00  0.00    +0.000 C 
ENDROOT
BRANCH   1   2
ATOM      2  C   UNL     1      46.643   7.522  12.963  0.00  0.00    +0.000 A 
ATOM      3  C   UNL     1      45.656   8.215  12.241  0.00  0.00    +0.000 A 
ATOM      4  C   UNL     1      44.680   7.536  11.505  0.00  0.00    +0.000 A 
ATOM      5  C   UNL     1      44.667   6.138  11.463  0.00  0.00    +0.000 A 
ATOM      6  C   UNL     1      45.649   5.438  12.169  0.00  0.00    +0.000 A 
ATOM      7  C   UNL     1      46.620   6.119  12.906  0.00  0.00    +0.000 A 
BRANCH   5   8
ATOM      8  C   UNL     1      43.635   5.389  10.668  0.00  0.00    +0.000 C 
BRANCH   8   9
ATOM      9  N   UNL     1      44.194   4.744   9.508  0.00  0.00    +0.000 N 
ATOM     10  C   UNL     1      44.304   3.375   9.426  0.00  0.00    +0.000 C 
ATOM     11  O   UNL     1      43.983   2.618  10.339  0.00  0.00    +0.000 OA
ATOM     12  H   UNL     1      44.521   5.280   8.708  0.00  0.00    +0.000 HD
BRANCH  10  13
ATOM     13  C   UNL     1      44.942   2.863   8.127  0.00  0.00    +0.000 C 
ATOM     14  C   UNL     1      45.978   1.786   8.382  0.00  0.00    +0.000 C 
ATOM     15  C   UNL     1      46.782   1.785   7.096  0.00  0.00    +0.000 C 
ATOM     16  C   UNL     1      46.709   3.221   6.595  0.00  0.00    +0.000 C 
ATOM     17  N   UNL     1      45.748   3.917   7.459  0.00  0.00    +0.000 NA
ATOM     18  H   UNL     1      45.135   4.513   6.904  0.00  0.00    +0.000 HD
ENDBRANCH  10  13
ENDBRANCH   8   9
ENDBRANCH   5   8
ENDBRANCH   1   2
BRANCH   1  19
ATOM     19  N   UNL     1      47.158   9.155  14.753  0.00  0.00    +0.000 NA
ATOM     20  H   UNL     1      47.486  10.107  14.593  0.00  0.00    +0.000 HD
ATOM     21  H   UNL     1      47.589   8.902  15.644  0.00  0.00    +0.000 HD
ENDBRANCH   1  19
BRANCH   1  22
ATOM     22  C   UNL     1      48.821   7.342  14.312  0.00  0.00    +0.000 C 
BRANCH  22  23
ATOM     23  N   UNL     1      48.549   6.947  15.678  0.00  0.00    +0.000 N 
ATOM     24  C   UNL     1      49.503   6.386  16.477  0.00  0.00    +0.000 C 
ATOM     25  O   UNL     1      50.643   6.159  16.081  0.00  0.00    +0.000 OA
ATOM     26  H   UNL     1      47.572   6.926  15.961  0.00  0.00    +0.000 HD
BRANCH  24  27
ATOM     27  C   UNL     1      49.101   6.102  17.850  0.00  0.00    +0.000 A 
ATOM     28  C   UNL     1      49.316   4.842  18.383  0.00  0.00    +0.000 A 
ATOM     29  S   UNL     1      48.829   4.711  20.011  0.00  0.00    +0.000 S 
ATOM     30  C   UNL     1      48.265   6.319  20.032  0.00  0.00    +0.000 A 
ATOM     31  N   UNL     1      47.690   6.853  21.139  0.00  0.00    +0.000 NA
ATOM     32  C   UNL     1      47.275   8.063  20.999  0.00  0.00    +0.000 A 
ATOM     33  N   UNL     1      47.389   8.803  19.846  0.00  0.00    +0.000 N 
ATOM     34  C   UNL     1      48.009   8.325  18.717  0.00  0.00    +0.000 A 
ATOM     35  O   UNL     1      48.179   9.039  17.736  0.00  0.00    +0.000 OA
ATOM     36  C   UNL     1      48.469   6.955  18.819  0.00  0.00    +0.000 A 
ATOM     37  H   UNL     1      47.060   9.756  19.802  0.00  0.00    +0.000 HD
ENDBRANCH  24  27
ENDBRANCH  22  23
ENDBRANCH   1  22
TORSDOF 8
ENDMDL
MODEL 5
REMARK VINA RESULT:    -7.522      2.600      3.320
REMARK INTER + INTRA:         -11.948
REMARK INTER:                 -10.892
REMARK INTRA:                  -1.056
REMARK UNBOUND:                -1.129
REMARK  Name = 
REMARK  8 active torsions:
REMARK  status: ('A' for Active; 'I' for Inactive)
REMARK    1  A    between atoms: N_1  and  C_2
REMARK    2  A    between atoms: C_2  and  C_3
REMARK    3  A    between atoms: C_2  and  C_17
REMARK    4  A    between atoms: C_3  and  N_4
REMARK    5  A    between atoms: C_5  and  C_7
REMARK    6  A    between atoms: C_20  and  C_21
REMARK    7  A    between atoms: C_21  and  N_22
REMARK    8  A    between atoms: C_23  and  C_25
REMARK                            x       y       z     vdW  Elec       q    Type
REMARK                         _______ _______ _______ _____ _____    ______ ____
ROOT
ATOM      1  C   UNL     1      47.836   8.256  13.817  0.00  0.00    +0.000 C 
ENDROOT
BRANCH   1   2
ATOM      2  C   UNL     1      46.759   7.511  13.034  0.00  0.00    +0.000 A 
ATOM      3  C   UNL     1      45.595   8.172  12.608  0.00  0.00    +0.000 A 
ATOM      4  C   UNL     1      44.623   7.518  11.844  0.00  0.00    +0.000 A 
ATOM      5  C   UNL     1      44.793   6.179  11.475  0.00  0.00    +0.000 A 
ATOM      6  C   UNL     1      45.951   5.514  11.885  0.00  0.00    +0.000 A 
ATOM      7  C   UNL     1      46.918   6.169  12.651  0.00  0.00    +0.000 A 
BRANCH   5   8
ATOM      8  C   UNL     1      43.768   5.461  10.644  0.00  0.00    +0.000 C 
BRANCH   8   9
ATOM      9  N   UNL     1      44.347   4.807   9.499  0.00  0.00    +0.000 N 
ATOM     10  C   UNL     1      44.352   3.437   9.377  0.00  0.00    +0.000 C 
ATOM     11  O   UNL     1      43.913   2.682  10.241  0.00  0.00    +0.000 OA
ATOM     12  H   UNL     1      44.767   5.338   8.740  0.00  0.00    +0.000 HD
BRANCH  10  13
ATOM     13  C   UNL     1      45.029   2.913   8.102  0.00  0.00    +0.000 C 
ATOM     14  C   UNL     1      45.986   1.773   8.389  0.00  0.00    +0.000 C 
ATOM     15  C   UNL     1      46.857   1.748   7.147  0.00  0.00    +0.000 C 
ATOM     16  C   UNL     1      46.893   3.196   6.674  0.00  0.00    +0.000 C 
ATOM     17  N   UNL     1      45.929   3.930   7.501  0.00  0.00    +0.000 NA
ATOM     18  H   UNL     1      45.381   4.571   6.927  0.00  0.00    +0.000 HD
ENDBRANCH  10  13
ENDBRANCH   8   9
ENDBRANCH   5   8
ENDBRANCH   1   2
BRANCH   1  19
ATOM     19  N   UNL     1      47.263   8.932  15.000  0.00  0.00    +0.000 NA
ATOM     20  H   UNL     1      47.935   9.621  15.336  0.00  0.00    +0.000 HD
ATOM     21  H   UNL     1      47.225   8.248  15.759  0.00  0.00    +0.000 HD
ENDBRANCH   1  19
BRANCH   1  22
ATOM     22  C   UNL     1      49.032   7.349  14.219  0.00  0.00    +0.000 C 
BRANCH  22  23
ATOM     23  N   UNL     1      49.086   7.061  15.637  0.00  0.00    +0.000 N 
ATOM     24  C   UNL     1      48.601   5.899  16.162  0.00  0.00    +0.000 C 
ATOM     25  O   UNL     1      48.066   5.036  15.471  0.00  0.00    +0.000 OA
ATOM     26  H   UNL     1      49.326   7.836  16.251  0.00  0.00    +0.000 HD
BRANCH  24  27
ATOM     27  C   UNL     1      48.786   5.720  17.598  0.00  0.00    +0.000 A 
ATOM     28  C   UNL     1      47.691   5.776  18.445  0.00  0.00    +0.000 A 
ATOM     29  S   UNL     1      48.092   5.496  20.078  0.00  0.00    +0.000 S 
ATOM     30  C   UNL     1      49.748   5.350  19.706  0.00  0.00    +0.000 A 
ATOM     31  N   UNL     1      50.674   5.127  20.673  0.00  0.00    +0.000 NA
ATOM     32  C   UNL     1      51.890   5.079  20.253  0.00  0.00    +0.000 A 
ATOM     33  N   UNL     1      52.273   5.225  18.942  0.00  0.00    +0.000 N 
ATOM     34  C   UNL     1      51.370   5.400  17.920  0.00  0.00    +0.000 A 
ATOM     35  O   UNL     1      51.733   5.433  16.751  0.00  0.00    +0.000 OA
ATOM     36  C   UNL     1      49.988   5.488  18.349  0.00  0.00    +0.000 A 
ATOM     37  H   UNL     1      53.243   5.159  18.670  0.00  0.00    +0.000 HD
ENDBRANCH  24  27
ENDBRANCH  22  23
ENDBRANCH   1  22
TORSDOF 8
ENDMDL
MODEL 6
REMARK VINA RESULT:    -6.847      3.929      6.544
REMARK INTER + INTRA:         -10.978
REMARK INTER:                  -8.841
REMARK INTRA:                  -2.137
REMARK UNBOUND:                -1.129
REMARK  Name = 
REMARK  8 active torsions:
REMARK  status: ('A' for Active; 'I' for Inactive)
REMARK    1  A    between atoms: N_1  and  C_2
REMARK    2  A    between atoms: C_2  and  C_3
REMARK    3  A    between atoms: C_2  and  C_17
REMARK    4  A    between atoms: C_3  and  N_4
REMARK    5  A    between atoms: C_5  and  C_7
REMARK    6  A    between atoms: C_20  and  C_21
REMARK    7  A    between atoms: C_21  and  N_22
REMARK    8  A    between atoms: C_23  and  C_25
REMARK                            x       y       z     vdW  Elec       q    Type
REMARK                         _______ _______ _______ _____ _____    ______ ____
ROOT
ATOM      1  C   UNL     1      44.881   6.155  12.853  0.00  0.00    +0.000 C 
ENDROOT
BRANCH   1   2
ATOM      2  C   UNL     1      46.046   7.090  12.542  0.00  0.00    +0.000 A 
ATOM      3  C   UNL     1      46.107   8.373  13.113  0.00  0.00    +0.000 A 
ATOM      4  C   UNL     1      47.194   9.222  12.881  0.00  0.00    +0.000 A 
ATOM      5  C   UNL     1      48.260   8.807  12.076  0.00  0.00    +0.000 A 
ATOM      6  C   UNL     1      48.215   7.530  11.512  0.00  0.00    +0.000 A 
ATOM      7  C   UNL     1      47.126   6.686  11.742  0.00  0.00    +0.000 A 
BRANCH   5   8
ATOM      8  C   UNL     1      49.443   9.699  11.826  0.00  0.00    +0.000 C 
BRANCH   8   9
ATOM      9  N   UNL     1      50.500   9.494  12.782  0.00  0.00    +0.000 N 
ATOM     10  C   UNL     1      51.613   8.743  12.479  0.00  0.00    +0.000 C 
ATOM     11  O   UNL     1      51.762   8.164  11.405  0.00  0.00    +0.000 OA
ATOM     12  H   UNL     1      50.461   9.902  13.712  0.00  0.00    +0.000 HD
BRANCH  10  13
ATOM     13  C   UNL     1      52.626   8.614  13.624  0.00  0.00    +0.000 C 
ATOM     14  C   UNL     1      53.912   7.946  13.179  0.00  0.00    +0.000 C 
ATOM     15  C   UNL     1      54.527   7.499  14.491  0.00  0.00    +0.000 C 
ATOM     16  C   UNL     1      53.336   7.223  15.401  0.00  0.00    +0.000 C 
ATOM     17  N   UNL     1      52.145   7.690  14.682  0.00  0.00    +0.000 NA
ATOM     18  H   UNL     1      51.520   8.191  15.313  0.00  0.00    +0.000 HD
ENDBRANCH  10  13
ENDBRANCH   8   9
ENDBRANCH   5   8
ENDBRANCH   1   2
BRANCH   1  19
ATOM     19  N   UNL     1      43.967   6.041  11.697  0.00  0.00    +0.000 NA
ATOM     20  H   UNL     1      44.451   5.547  10.949  0.00  0.00    +0.000 HD
ATOM     21  H   UNL     1      43.835   6.980  11.314  0.00  0.00    +0.000 HD
ENDBRANCH   1  19
BRANCH   1  22
ATOM     22  C   UNL     1      45.342   4.752  13.338  0.00  0.00    +0.000 C 
BRANCH  22  23
ATOM     23  N   UNL     1      46.033   4.780  14.610  0.00  0.00    +0.000 N 
ATOM     24  C   UNL     1      47.055   3.924  14.902  0.00  0.00    +0.000 C 
ATOM     25  O   UNL     1      47.437   3.061  14.117  0.00  0.00    +0.000 OA
ATOM     26  H   UNL     1      45.604   5.332  15.349  0.00  0.00    +0.000 HD
BRANCH  24  27
ATOM     27  C   UNL     1      47.698   4.116  16.197  0.00  0.00    +0.000 A 
ATOM     28  C   UNL     1      47.458   3.218  17.225  0.00  0.00    +0.000 A 
ATOM     29  S   UNL     1      48.332   3.574  18.644  0.00  0.00    +0.000 S 
ATOM     30  C   UNL     1      49.012   4.970  17.943  0.00  0.00    +0.000 A 
ATOM     31  N   UNL     1      49.854   5.774  18.642  0.00  0.00    +0.000 NA
ATOM     32  C   UNL     1      50.260   6.814  18.001  0.00  0.00    +0.000 A 
ATOM     33  N   UNL     1      49.907   7.127  16.711  0.00  0.00    +0.000 N 
ATOM     34  C   UNL     1      49.100   6.320  15.945  0.00  0.00    +0.000 A 
ATOM     35  O   UNL     1      48.879   6.576  14.768  0.00  0.00    +0.000 OA
ATOM     36  C   UNL     1      48.597   5.148  16.635  0.00  0.00    +0.000 A 
ATOM     37  H   UNL     1      50.273   7.949  16.254  0.00  0.00    +0.000 HD
ENDBRANCH  24  27
ENDBRANCH  22  23
ENDBRANCH   1  22
TORSDOF 8
ENDMDL
MODEL 7
REMARK VINA RESULT:    -6.652      3.856      5.811
REMARK INTER + INTRA:         -10.697
REMARK INTER:                  -9.532
REMARK INTRA:                  -1.165
REMARK UNBOUND:                -1.129
REMARK  Name = 
REMARK  8 active torsions:
REMARK  status: ('A' for Active; 'I' for Inactive)
REMARK    1  A    between atoms: N_1  and  C_2
REMARK    2  A    between atoms: C_2  and  C_3
REMARK    3  A    between atoms: C_2  and  C_17
REMARK    4  A    between atoms: C_3  and  N_4
REMARK    5  A    between atoms: C_5  and  C_7
REMARK    6  A    between atoms: C_20  and  C_21
REMARK    7  A    between atoms: C_21  and  N_22
REMARK    8  A    between atoms: C_23  and  C_25
REMARK                            x       y       z     vdW  Elec       q    Type
REMARK                         _______ _______ _______ _____ _____    ______ ____
ROOT
ATOM      1  C   UNL     1      44.787   5.821  12.279  0.00  0.00    +0.000 C 
ENDROOT
BRANCH   1   2
ATOM      2  C   UNL     1      45.869   6.892  12.176  0.00  0.00    +0.000 A 
ATOM      3  C   UNL     1      45.654   8.181  12.695  0.00  0.00    +0.000 A 
ATOM      4  C   UNL     1      46.654   9.158  12.657  0.00  0.00    +0.000 A 
ATOM      5  C   UNL     1      47.907   8.870  12.105  0.00  0.00    +0.000 A 
ATOM      6  C   UNL     1      48.135   7.590  11.595  0.00  0.00    +0.000 A 
ATOM      7  C   UNL     1      47.133   6.618  11.631  0.00  0.00    +0.000 A 
BRANCH   5   8
ATOM      8  C   UNL     1      48.999   9.901  12.066  0.00  0.00    +0.000 C 
BRANCH   8   9
ATOM      9  N   UNL     1      50.180   9.428  11.391  0.00  0.00    +0.000 N 
ATOM     10  C   UNL     1      51.260   8.933  12.085  0.00  0.00    +0.000 C 
ATOM     11  O   UNL     1      51.314   8.901  13.312  0.00  0.00    +0.000 OA
ATOM     12  H   UNL     1      50.252   9.440  10.377  0.00  0.00    +0.000 HD
BRANCH  10  13
ATOM     13  C   UNL     1      52.438   8.494  11.204  0.00  0.00    +0.000 C 
ATOM     14  C   UNL     1      52.029   7.458  10.176  0.00  0.00    +0.000 C 
ATOM     15  C   UNL     1      53.357   6.842   9.778  0.00  0.00    +0.000 C 
ATOM     16  C   UNL     1      54.222   6.952  11.027  0.00  0.00    +0.000 C 
ATOM     17  N   UNL     1      53.468   7.766  11.986  0.00  0.00    +0.000 NA
ATOM     18  H   UNL     1      54.084   8.438  12.446  0.00  0.00    +0.000 HD
ENDBRANCH  10  13
ENDBRANCH   8   9
ENDBRANCH   5   8
ENDBRANCH   1   2
BRANCH   1  19
ATOM     19  N   UNL     1      44.474   5.252  10.951  0.00  0.00    +0.000 NA
ATOM     20  H   UNL     1      44.127   6.000  10.352  0.00  0.00    +0.000 HD
ATOM     21  H   UNL     1      43.662   4.640  11.061  0.00  0.00    +0.000 HD
ENDBRANCH   1  19
BRANCH   1  22
ATOM     22  C   UNL     1      45.138   4.700  13.297  0.00  0.00    +0.000 C 
BRANCH  22  23
ATOM     23  N   UNL     1      46.016   5.141  14.360  0.00  0.00    +0.000 N 
ATOM     24  C   UNL     1      47.121   4.432  14.733  0.00  0.00    +0.000 C 
ATOM     25  O   UNL     1      47.426   3.365  14.209  0.00  0.00    +0.000 OA
ATOM     26  H   UNL     1      45.675   5.900  14.948  0.00  0.00    +0.000 HD
BRANCH  24  27
ATOM     27  C   UNL     1      47.946   5.035  15.774  0.00  0.00    +0.000 A 
ATOM     28  C   UNL     1      48.650   6.198  15.508  0.00  0.00    +0.000 A 
ATOM     29  S   UNL     1      49.516   6.781  16.855  0.00  0.00    +0.000 S 
ATOM     30  C   UNL     1      49.020   5.464  17.816  0.00  0.00    +0.000 A 
ATOM     31  N   UNL     1      49.435   5.330  19.101  0.00  0.00    +0.000 NA
ATOM     32  C   UNL     1      49.015   4.268  19.694  0.00  0.00    +0.000 A 
ATOM     33  N   UNL     1      48.203   3.318  19.120  0.00  0.00    +0.000 N 
ATOM     34  C   UNL     1      47.715   3.434  17.841  0.00  0.00    +0.000 A 
ATOM     35  O   UNL     1      46.919   2.621  17.389  0.00  0.00    +0.000 OA
ATOM     36  C   UNL     1      48.184   4.604  17.124  0.00  0.00    +0.000 A 
ATOM     37  H   UNL     1      47.891   2.513  19.643  0.00  0.00    +0.000 HD
ENDBRANCH  24  27
ENDBRANCH  22  23
ENDBRANCH   1  22
TORSDOF 8
ENDMDL
MODEL 8
REMARK VINA RESULT:    -6.591      4.064      6.045
REMARK INTER + INTRA:         -10.609
REMARK INTER:                  -9.014
REMARK INTRA:                  -1.595
REMARK UNBOUND:                -1.129
REMARK  Name = 
REMARK  8 active torsions:
REMARK  status: ('A' for Active; 'I' for Inactive)
REMARK    1  A    between atoms: N_1  and  C_2
REMARK    2  A    between atoms: C_2  and  C_3
REMARK    3  A    between atoms: C_2  and  C_17
REMARK    4  A    between atoms: C_3  and  N_4
REMARK    5  A    between atoms: C_5  and  C_7
REMARK    6  A    between atoms: C_20  and  C_21
REMARK    7  A    between atoms: C_21  and  N_22
REMARK    8  A    between atoms: C_23  and  C_25
REMARK                            x       y       z     vdW  Elec       q    Type
REMARK                         _______ _______ _______ _____ _____    ______ ____
ROOT
ATOM      1  C   UNL     1      45.225   6.542  12.771  0.00  0.00    +0.000 C 
ENDROOT
BRANCH   1   2
ATOM      2  C   UNL     1      46.454   7.395  12.467  0.00  0.00    +0.000 A 
ATOM      3  C   UNL     1      46.575   8.692  12.994  0.00  0.00    +0.000 A 
ATOM      4  C   UNL     1      47.718   9.466  12.770  0.00  0.00    +0.000 A 
ATOM      5  C   UNL     1      48.781   8.959  12.016  0.00  0.00    +0.000 A 
ATOM      6  C   UNL     1      48.677   7.667  11.495  0.00  0.00    +0.000 A 
ATOM      7  C   UNL     1      47.532   6.898  11.718  0.00  0.00    +0.000 A 
BRANCH   5   8
ATOM      8  C   UNL     1      50.024   9.768  11.775  0.00  0.00    +0.000 C 
BRANCH   8   9
ATOM      9  N   UNL     1      51.053   9.013  11.109  0.00  0.00    +0.000 N 
ATOM     10  C   UNL     1      52.184   8.594  11.771  0.00  0.00    +0.000 C 
ATOM     11  O   UNL     1      52.417   8.868  12.946  0.00  0.00    +0.000 OA
ATOM     12  H   UNL     1      50.976   8.760  10.127  0.00  0.00    +0.000 HD
BRANCH  10  13
ATOM     13  C   UNL     1      53.183   7.820  10.900  0.00  0.00    +0.000 C 
ATOM     14  C   UNL     1      53.309   8.411   9.510  0.00  0.00    +0.000 C 
ATOM     15  C   UNL     1      53.922   7.272   8.717  0.00  0.00    +0.000 C 
ATOM     16  C   UNL     1      53.403   6.010   9.393  0.00  0.00    +0.000 C 
ATOM     17  N   UNL     1      52.708   6.443  10.610  0.00  0.00    +0.000 NA
ATOM     18  H   UNL     1      52.941   5.831  11.392  0.00  0.00    +0.000 HD
ENDBRANCH  10  13
ENDBRANCH   8   9
ENDBRANCH   5   8
ENDBRANCH   1   2
BRANCH   1  19
ATOM     19  N   UNL     1      44.302   6.508  11.616  0.00  0.00    +0.000 NA
ATOM     20  H   UNL     1      44.304   5.566  11.229  0.00  0.00    +0.000 HD
ATOM     21  H   UNL     1      44.718   7.072  10.872  0.00  0.00    +0.000 HD
ENDBRANCH   1  19
BRANCH   1  22
ATOM     22  C   UNL     1      45.584   5.104  13.239  0.00  0.00    +0.000 C 
BRANCH  22  23
ATOM     23  N   UNL     1      46.240   5.065  14.529  0.00  0.00    +0.000 N 
ATOM     24  C   UNL     1      47.095   4.061  14.881  0.00  0.00    +0.000 C 
ATOM     25  O   UNL     1      47.341   3.115  14.137  0.00  0.00    +0.000 OA
ATOM     26  H   UNL     1      45.896   5.711  15.235  0.00  0.00    +0.000 HD
BRANCH  24  27
ATOM     27  C   UNL     1      47.731   4.191  16.186  0.00  0.00    +0.000 A 
ATOM     28  C   UNL     1      47.467   3.260  17.178  0.00  0.00    +0.000 A 
ATOM     29  S   UNL     1      48.337   3.546  18.615  0.00  0.00    +0.000 S 
ATOM     30  C   UNL     1      49.048   4.955  17.972  0.00  0.00    +0.000 A 
ATOM     31  N   UNL     1      49.899   5.716  18.706  0.00  0.00    +0.000 NA
ATOM     32  C   UNL     1      50.328   6.772  18.108  0.00  0.00    +0.000 A 
ATOM     33  N   UNL     1      49.991   7.140  16.828  0.00  0.00    +0.000 N 
ATOM     34  C   UNL     1      49.175   6.377  16.027  0.00  0.00    +0.000 A 
ATOM     35  O   UNL     1      48.967   6.682  14.859  0.00  0.00    +0.000 OA
ATOM     36  C   UNL     1      48.645   5.190  16.669  0.00  0.00    +0.000 A 
ATOM     37  H   UNL     1      50.374   7.972  16.405  0.00  0.00    +0.000 HD
ENDBRANCH  24  27
ENDBRANCH  22  23
ENDBRANCH   1  22
TORSDOF 8
ENDMDL
MODEL 9
REMARK VINA RESULT:    -6.501      5.967      7.824
REMARK INTER + INTRA:         -10.480
REMARK INTER:                  -9.118
REMARK INTRA:                  -1.362
REMARK UNBOUND:                -1.129
REMARK  Name = 
REMARK  8 active torsions:
REMARK  status: ('A' for Active; 'I' for Inactive)
REMARK    1  A    between atoms: N_1  and  C_2
REMARK    2  A    between atoms: C_2  and  C_3
REMARK    3  A    between atoms: C_2  and  C_17
REMARK    4  A    between atoms: C_3  and  N_4
REMARK    5  A    between atoms: C_5  and  C_7
REMARK    6  A    between atoms: C_20  and  C_21
REMARK    7  A    between atoms: C_21  and  N_22
REMARK    8  A    between atoms: C_23  and  C_25
REMARK                            x       y       z     vdW  Elec       q    Type
REMARK                         _______ _______ _______ _____ _____    ______ ____
ROOT
ATOM      1  C   UNL     1      50.937   9.056  12.378  0.00  0.00    +0.000 C 
ENDROOT
BRANCH   1   2
ATOM      2  C   UNL     1      49.468   8.649  12.301  0.00  0.00    +0.000 A 
ATOM      3  C   UNL     1      48.457   9.622  12.243  0.00  0.00    +0.000 A 
ATOM      4  C   UNL     1      47.110   9.266  12.119  0.00  0.00    +0.000 A 
ATOM      5  C   UNL     1      46.736   7.921  12.039  0.00  0.00    +0.000 A 
ATOM      6  C   UNL     1      47.734   6.945  12.085  0.00  0.00    +0.000 A 
ATOM      7  C   UNL     1      49.077   7.303  12.214  0.00  0.00    +0.000 A 
BRANCH   5   8
ATOM      8  C   UNL     1      45.296   7.518  11.891  0.00  0.00    +0.000 C 
BRANCH   8   9
ATOM      9  N   UNL     1      45.100   6.546  10.846  0.00  0.00    +0.000 N 
ATOM     10  C   UNL     1      44.339   5.417  11.044  0.00  0.00    +0.000 C 
ATOM     11  O   UNL     1      43.820   5.135  12.121  0.00  0.00    +0.000 OA
ATOM     12  H   UNL     1      45.513   6.667   9.925  0.00  0.00    +0.000 HD
BRANCH  10  13
ATOM     13  C   UNL     1      44.257   4.484   9.828  0.00  0.00    +0.000 C 
ATOM     14  C   UNL     1      44.670   3.065  10.165  0.00  0.00    +0.000 C 
ATOM     15  C   UNL     1      44.974   2.473   8.802  0.00  0.00    +0.000 C 
ATOM     16  C   UNL     1      45.463   3.652   7.971  0.00  0.00    +0.000 C 
ATOM     17  N   UNL     1      45.244   4.854   8.782  0.00  0.00    +0.000 NA
ATOM     18  H   UNL     1      44.865   5.608   8.209  0.00  0.00    +0.000 HD
ENDBRANCH  10  13
ENDBRANCH   8   9
ENDBRANCH   5   8
ENDBRANCH   1   2
BRANCH   1  19
ATOM     19  N   UNL     1      51.819   7.870  12.388  0.00  0.00    +0.000 NA
ATOM     20  H   UNL     1      52.247   7.777  11.468  0.00  0.00    +0.000 HD
ATOM     21  H   UNL     1      51.223   7.042  12.457  0.00  0.00    +0.000 HD
ENDBRANCH   1  19
BRANCH   1  22
ATOM     22  C   UNL     1      51.351  10.048  11.255  0.00  0.00    +0.000 C 
BRANCH  22  23
ATOM     23  N   UNL     1      51.674   9.398  10.002  0.00  0.00    +0.000 N 
ATOM     24  C   UNL     1      52.865   9.593   9.366  0.00  0.00    +0.000 C 
ATOM     25  O   UNL     1      53.728  10.351   9.802  0.00  0.00    +0.000 OA
ATOM     26  H   UNL     1      50.907   8.939   9.516  0.00  0.00    +0.000 HD
BRANCH  24  27
ATOM     27  C   UNL     1      53.074   8.820   8.148  0.00  0.00    +0.000 A 
ATOM     28  C   UNL     1      53.066   9.456   6.917  0.00  0.00    +0.000 A 
ATOM     29  S   UNL     1      53.375   8.402   5.615  0.00  0.00    +0.000 S 
ATOM     30  C   UNL     1      53.473   7.055   6.653  0.00  0.00    +0.000 A 
ATOM     31  N   UNL     1      53.697   5.806   6.172  0.00  0.00    +0.000 NA
ATOM     32  C   UNL     1      53.706   4.879   7.066  0.00  0.00    +0.000 A 
ATOM     33  N   UNL     1      53.519   5.085   8.411  0.00  0.00    +0.000 N 
ATOM     34  C   UNL     1      53.340   6.336   8.952  0.00  0.00    +0.000 A 
ATOM     35  O   UNL     1      53.270   6.499  10.164  0.00  0.00    +0.000 OA
ATOM     36  C   UNL     1      53.296   7.410   7.980  0.00  0.00    +0.000 A 
ATOM     37  H   UNL     1      53.555   4.319   9.067  0.00  0.00    +0.000 HD
ENDBRANCH  24  27
ENDBRANCH  22  23
ENDBRANCH   1  22
TORSDOF 8
ENDMDL
