MODEL 1
REMARK VINA RESULT:    -8.031      0.000      0.000
REMARK INTER + INTRA:         -12.509
REMARK INTER:                 -11.552
REMARK INTRA:                  -0.957
REMARK UNBOUND:                -0.957
REMARK  Name = 
REMARK  8 active torsions:
REMARK  status: ('A' for Active; 'I' for Inactive)
REMARK    1  A    between atoms: N_1  and  C_2
REMARK    2  A    between atoms: C_2  and  C_3
REMARK    3  A    between atoms: C_2  and  C_18
REMARK    4  A    between atoms: C_3  and  C_4
REMARK    5  A    between atoms: C_7  and  C_8
REMARK    6  A    between atoms: C_8  and  O_9
REMARK    7  A    between atoms: O_9  and  C_10
REMARK    8  A    between atoms: C_18  and  C_20
REMARK                            x       y       z     vdW  Elec       q    Type
REMARK                         _______ _______ _______ _____ _____    ______ ____
ROOT
ATOM      1  C   UNL     1      46.894   7.533  13.135  0.00  0.00    +0.000 C 
ENDROOT
BRANCH   1   2
ATOM      2  N   UNL     1      46.841   8.826  13.865  0.00  0.00    +0.000 NA
ATOM      3  H   UNL     1      47.792   9.149  14.043  0.00  0.00    +0.000 HD
ATOM      4  H   UNL     1      46.453   8.642  14.796  0.00  0.00    +0.000 HD
ENDBRANCH   1   2
BRANCH   1   5
ATOM      5  C   UNL     1      48.145   6.727  13.587  0.00  0.00    +0.000 C 
ATOM      6  O   UNL     1      48.899   6.223  12.750  0.00  0.00    +0.000 OA
BRANCH   5   7
ATOM      7  C   UNL     1      48.380   6.527  15.027  0.00  0.00    +0.000 A 
ATOM      8  C   UNL     1      48.961   7.488  15.840  0.00  0.00    +0.000 A 
ATOM      9  S   UNL     1      49.018   7.048  17.491  0.00  0.00    +0.000 S 
ATOM     10  C   UNL     1      48.263   5.557  17.176  0.00  0.00    +0.000 A 
ATOM     11  N   UNL     1      47.987   4.694  18.186  0.00  0.00    +0.000 NA
ATOM     12  C   UNL     1      47.391   3.610  17.810  0.00  0.00    +0.000 A 
ATOM     13  N   UNL     1      47.072   3.304  16.511  0.00  0.00    +0.000 N 
ATOM     14  C   UNL     1      47.438   4.093  15.442  0.00  0.00    +0.000 A 
ATOM     15  O   UNL     1      47.348   3.681  14.293  0.00  0.00    +0.000 OA
ATOM     16  C   UNL     1      48.013   5.375  15.825  0.00  0.00    +0.000 A 
ATOM     17  H   UNL     1      46.673   2.406  16.277  0.00  0.00    +0.000 HD
ENDBRANCH   5   7
ENDBRANCH   1   5
BRANCH   1  18
ATOM     18  C   UNL     1      45.636   6.681  13.382  0.00  0.00    +0.000 C 
BRANCH  18  19
ATOM     19  C   UNL     1      45.329   5.671  12.296  0.00  0.00    +0.000 A 
ATOM     20  C   UNL     1      44.753   4.428  12.594  0.00  0.00    +0.000 A 
ATOM     21  C   UNL     1      44.480   3.508  11.577  0.00  0.00    +0.000 A 
ATOM     22  C   UNL     1      44.777   3.811  10.244  0.00  0.00    +0.000 A 
ATOM     23  C   UNL     1      45.332   5.061   9.942  0.00  0.00    +0.000 A 
ATOM     24  C   UNL     1      45.608   5.978  10.958  0.00  0.00    +0.000 A 
BRANCH  22  25
ATOM     25  C   UNL     1      44.513   2.812   9.144  0.00  0.00    +0.000 C 
BRANCH  25  26
ATOM     26  O   UNL     1      45.645   1.951   9.012  0.00  0.00    +0.000 OA
BRANCH  26  27
ATOM     27  C   UNL     1      46.322   2.164   7.830  0.00  0.00    +0.000 A 
ATOM     28  C   UNL     1      47.304   1.253   7.467  0.00  0.00    +0.000 A 
ATOM     29  N   UNL     1      48.022   1.367   6.321  0.00  0.00    +0.000 NA
ATOM     30  C   UNL     1      47.710   2.436   5.554  0.00  0.00    +0.000 A 
ATOM     31  C   UNL     1      46.731   3.347   5.915  0.00  0.00    +0.000 A 
ATOM     32  N   UNL     1      46.018   3.235   7.059  0.00  0.00    +0.000 NA
ENDBRANCH  26  27
ENDBRANCH  25  26
ENDBRANCH  22  25
ENDBRANCH  18  19
ENDBRANCH   1  18
TORSDOF 8
ENDMDL
MODEL 2
REMARK VINA RESULT:    -7.926      2.239      3.026
REMARK INTER + INTRA:         -12.357
REMARK INTER:                 -11.551
REMARK INTRA:                  -0.806
REMARK UNBOUND:                -0.957
REMARK  Name = 
REMARK  8 active torsions:
REMARK  status: ('A' for Active; 'I' for Inactive)
REMARK    1  A    between atoms: N_1  and  C_2
REMARK    2  A    between atoms: C_2  and  C_3
REMARK    3  A    between atoms: C_2  and  C_18
REMARK    4  A    between atoms: C_3  and  C_4
REMARK    5  A    between atoms: C_7  and  C_8
REMARK    6  A    between atoms: C_8  and  O_9
REMARK    7  A    between atoms: O_9  and  C_10
REMARK    8  A    between atoms: C_18  and  C_20
REMARK                            x       y       z     vdW  Elec       q    Type
REMARK                         _______ _______ _______ _____ _____    ______ ____
ROOT
ATOM      1  C   UNL     1      47.126   4.087  15.495  0.00  0.00    +0.000 C 
ENDROOT
BRANCH   1   2
ATOM      2  N   UNL     1      47.925   2.888  15.130  0.00  0.00    +0.000 NA
ATOM      3  H   UNL     1      47.302   2.088  15.030  0.00  0.00    +0.000 HD
ATOM      4  H   UNL     1      48.519   2.654  15.932  0.00  0.00    +0.000 HD
ENDBRANCH   1   2
BRANCH   1   5
ATOM      5  C   UNL     1      47.603   4.635  16.870  0.00  0.00    +0.000 C 
ATOM      6  O   UNL     1      46.842   4.633  17.841  0.00  0.00    +0.000 OA
BRANCH   5   7
ATOM      7  C   UNL     1      48.956   5.208  16.977  0.00  0.00    +0.000 A 
ATOM      8  C   UNL     1      49.227   6.552  16.775  0.00  0.00    +0.000 A 
ATOM      9  S   UNL     1      50.857   6.975  17.066  0.00  0.00    +0.000 S 
ATOM     10  C   UNL     1      51.256   5.374  17.479  0.00  0.00    +0.000 A 
ATOM     11  N   UNL     1      52.517   5.052  17.864  0.00  0.00    +0.000 NA
ATOM     12  C   UNL     1      52.676   3.807  18.172  0.00  0.00    +0.000 A 
ATOM     13  N   UNL     1      51.693   2.854  18.103  0.00  0.00    +0.000 N 
ATOM     14  C   UNL     1      50.432   3.108  17.606  0.00  0.00    +0.000 A 
ATOM     15  O   UNL     1      49.662   2.196  17.339  0.00  0.00    +0.000 OA
ATOM     16  C   UNL     1      50.174   4.519  17.351  0.00  0.00    +0.000 A 
ATOM     17  H   UNL     1      51.902   1.883  18.286  0.00  0.00    +0.000 HD
ENDBRANCH   5   7
ENDBRANCH   1   5
BRANCH   1  18
ATOM     18  C   UNL     1      47.250   5.203  14.443  0.00  0.00    +0.000 C 
BRANCH  18  19
ATOM     19  C   UNL     1      46.441   4.980  13.182  0.00  0.00    +0.000 A 
ATOM     20  C   UNL     1      45.664   3.827  13.004  0.00  0.00    +0.000 A 
ATOM     21  C   UNL     1      44.926   3.639  11.831  0.00  0.00    +0.000 A 
ATOM     22  C   UNL     1      44.952   4.599  10.812  0.00  0.00    +0.000 A 
ATOM     23  C   UNL     1      45.710   5.762  10.998  0.00  0.00    +0.000 A 
ATOM     24  C   UNL     1      46.449   5.947  12.168  0.00  0.00    +0.000 A 
BRANCH  22  25
ATOM     25  C   UNL     1      44.183   4.390   9.531  0.00  0.00    +0.000 C 
BRANCH  25  26
ATOM     26  O   UNL     1      44.301   3.024   9.132  0.00  0.00    +0.000 OA
BRANCH  26  27
ATOM     27  C   UNL     1      45.359   2.828   8.269  0.00  0.00    +0.000 A 
ATOM     28  C   UNL     1      46.026   1.612   8.320  0.00  0.00    +0.000 A 
ATOM     29  N   UNL     1      47.073   1.316   7.510  0.00  0.00    +0.000 NA
ATOM     30  C   UNL     1      47.421   2.294   6.642  0.00  0.00    +0.000 A 
ATOM     31  C   UNL     1      46.756   3.509   6.590  0.00  0.00    +0.000 A 
ATOM     32  N   UNL     1      45.715   3.804   7.401  0.00  0.00    +0.000 NA
ENDBRANCH  26  27
ENDBRANCH  25  26
ENDBRANCH  22  25
ENDBRANCH  18  19
ENDBRANCH   1  18
TORSDOF 8
ENDMDL
MODEL 3
REMARK VINA RESULT:    -7.369      2.450      3.162
REMARK INTER + INTRA:         -11.556
REMARK INTER:                 -10.429
REMARK INTRA:                  -1.127
REMARK UNBOUND:                -0.957
REMARK  Name = 
REMARK  8 active torsions:
REMARK  status: ('A' for Active; 'I' for Inactive)
REMARK    1  A    between atoms: N_1  and  C_2
REMARK    2  A    between atoms: C_2  and  C_3
REMARK    3  A    between atoms: C_2  and  C_18
REMARK    4  A    between atoms: C_3  and  C_4
REMARK    5  A    between atoms: C_7  and  C_8
REMARK    6  A    between atoms: C_8  and  O_9
REMARK    7  A    between atoms: O_9  and  C_10
REMARK    8  A    between atoms: C_18  and  C_20
REMARK                            x       y       z     vdW  Elec       q    Type
REMARK                         _______ _______ _______ _____ _____    ______ ____
ROOT
ATOM      1  C   UNL     1      48.803   6.713  14.220  0.00  0.00    +0.000 C 
ENDROOT
BRANCH   1   2
ATOM      2  N   UNL     1      50.068   7.204  13.617  0.00  0.00    +0.000 NA
ATOM      3  H   UNL     1      50.036   8.221  13.553  0.00  0.00    +0.000 HD
ATOM      4  H   UNL     1      50.092   6.886  12.642  0.00  0.00    +0.000 HD
ENDBRANCH   1   2
BRANCH   1   5
ATOM      5  C   UNL     1      48.806   6.998  15.749  0.00  0.00    +0.000 C 
ATOM      6  O   UNL     1      48.573   8.133  16.173  0.00  0.00    +0.000 OA
BRANCH   5   7
ATOM      7  C   UNL     1      49.149   5.905  16.676  0.00  0.00    +0.000 A 
ATOM      8  C   UNL     1      48.198   5.091  17.272  0.00  0.00    +0.000 A 
ATOM      9  S   UNL     1      48.866   3.833  18.216  0.00  0.00    +0.000 S 
ATOM     10  C   UNL     1      50.452   4.331  17.855  0.00  0.00    +0.000 A 
ATOM     11  N   UNL     1      51.520   3.645  18.339  0.00  0.00    +0.000 NA
ATOM     12  C   UNL     1      52.665   4.117  17.968  0.00  0.00    +0.000 A 
ATOM     13  N   UNL     1      52.835   5.226  17.180  0.00  0.00    +0.000 N 
ATOM     14  C   UNL     1      51.788   6.021  16.765  0.00  0.00    +0.000 A 
ATOM     15  O   UNL     1      51.988   7.121  16.269  0.00  0.00    +0.000 OA
ATOM     16  C   UNL     1      50.474   5.468  17.065  0.00  0.00    +0.000 A 
ATOM     17  H   UNL     1      53.759   5.586  16.989  0.00  0.00    +0.000 HD
ENDBRANCH   5   7
ENDBRANCH   1   5
BRANCH   1  18
ATOM     18  C   UNL     1      47.568   7.380  13.591  0.00  0.00    +0.000 C 
BRANCH  18  19
ATOM     19  C   UNL     1      46.676   6.448  12.797  0.00  0.00    +0.000 A 
ATOM     20  C   UNL     1      46.121   6.834  11.569  0.00  0.00    +0.000 A 
ATOM     21  C   UNL     1      45.297   5.958  10.854  0.00  0.00    +0.000 A 
ATOM     22  C   UNL     1      45.012   4.682  11.352  0.00  0.00    +0.000 A 
ATOM     23  C   UNL     1      45.584   4.287  12.568  0.00  0.00    +0.000 A 
ATOM     24  C   UNL     1      46.402   5.162  13.284  0.00  0.00    +0.000 A 
BRANCH  22  25
ATOM     25  C   UNL     1      44.101   3.743  10.600  0.00  0.00    +0.000 C 
BRANCH  25  26
ATOM     26  O   UNL     1      44.162   4.048   9.206  0.00  0.00    +0.000 OA
BRANCH  26  27
ATOM     27  C   UNL     1      45.139   3.320   8.560  0.00  0.00    +0.000 A 
ATOM     28  C   UNL     1      45.264   1.973   8.873  0.00  0.00    +0.000 A 
ATOM     29  N   UNL     1      46.187   1.168   8.290  0.00  0.00    +0.000 NA
ATOM     30  C   UNL     1      46.980   1.773   7.376  0.00  0.00    +0.000 A 
ATOM     31  C   UNL     1      46.857   3.117   7.063  0.00  0.00    +0.000 A 
ATOM     32  N   UNL     1      45.940   3.920   7.648  0.00  0.00    +0.000 NA
ENDBRANCH  26  27
ENDBRANCH  25  26
ENDBRANCH  22  25
ENDBRANCH  18  19
ENDBRANCH   1  18
TORSDOF 8
ENDMDL
MODEL 4
REMARK VINA RESULT:    -7.328      3.189      8.006
REMARK INTER + INTRA:         -11.498
REMARK INTER:                 -10.450
REMARK INTRA:                  -1.049
REMARK UNBOUND:                -0.957
REMARK  Name = 
REMARK  8 active torsions:
REMARK  status: ('A' for Active; 'I' for Inactive)
REMARK    1  A    between atoms: N_1  and  C_2
REMARK    2  A    between atoms: C_2  and  C_3
REMARK    3  A    between atoms: C_2  and  C_18
REMARK    4  A    between atoms: C_3  and  C_4
REMARK    5  A    between atoms: C_7  and  C_8
REMARK    6  A    between atoms: C_8  and  O_9
REMARK    7  A    between atoms: O_9  and  C_10
REMARK    8  A    between atoms: C_18  and  C_20
REMARK                            x       y       z     vdW  Elec       q    Type
REMARK                         _______ _______ _______ _____ _____    ______ ____
ROOT
ATOM      1  C   UNL     1      45.595   7.324  12.561  0.00  0.00    +0.000 C 
ENDROOT
BRANCH   1   2
ATOM      2  N   UNL     1      45.942   8.715  12.167  0.00  0.00    +0.000 NA
ATOM      3  H   UNL     1      45.295   9.361  12.617  0.00  0.00    +0.000 HD
ATOM      4  H   UNL     1      45.747   8.812  11.165  0.00  0.00    +0.000 HD
ENDBRANCH   1   2
BRANCH   1   5
ATOM      5  C   UNL     1      44.483   6.776  11.622  0.00  0.00    +0.000 C 
ATOM      6  O   UNL     1      43.734   7.551  11.022  0.00  0.00    +0.000 OA
BRANCH   5   7
ATOM      7  C   UNL     1      44.303   5.318  11.509  0.00  0.00    +0.000 A 
ATOM      8  C   UNL     1      43.633   4.561  12.458  0.00  0.00    +0.000 A 
ATOM      9  S   UNL     1      43.471   2.914  12.033  0.00  0.00    +0.000 S 
ATOM     10  C   UNL     1      44.288   3.157  10.561  0.00  0.00    +0.000 A 
ATOM     11  N   UNL     1      44.466   2.130   9.691  0.00  0.00    +0.000 NA
ATOM     12  C   UNL     1      45.080   2.459   8.602  0.00  0.00    +0.000 A 
ATOM     13  N   UNL     1      45.553   3.715   8.320  0.00  0.00    +0.000 N 
ATOM     14  C   UNL     1      45.500   4.758   9.221  0.00  0.00    +0.000 A 
ATOM     15  O   UNL     1      46.134   5.787   9.033  0.00  0.00    +0.000 OA
ATOM     16  C   UNL     1      44.720   4.465  10.415  0.00  0.00    +0.000 A 
ATOM     17  H   UNL     1      46.090   3.887   7.483  0.00  0.00    +0.000 HD
ENDBRANCH   5   7
ENDBRANCH   1   5
BRANCH   1  18
ATOM     18  C   UNL     1      46.814   6.386  12.492  0.00  0.00    +0.000 C 
BRANCH  18  19
ATOM     19  C   UNL     1      47.293   5.868  13.832  0.00  0.00    +0.000 A 
ATOM     20  C   UNL     1      46.838   4.648  14.351  0.00  0.00    +0.000 A 
ATOM     21  C   UNL     1      47.291   4.188  15.591  0.00  0.00    +0.000 A 
ATOM     22  C   UNL     1      48.207   4.939  16.338  0.00  0.00    +0.000 A 
ATOM     23  C   UNL     1      48.679   6.147  15.810  0.00  0.00    +0.000 A 
ATOM     24  C   UNL     1      48.224   6.608  14.574  0.00  0.00    +0.000 A 
BRANCH  22  25
ATOM     25  C   UNL     1      48.678   4.464  17.690  0.00  0.00    +0.000 C 
BRANCH  25  26
ATOM     26  O   UNL     1      50.080   4.711  17.810  0.00  0.00    +0.000 OA
BRANCH  26  27
ATOM     27  C   UNL     1      50.818   3.549  17.736  0.00  0.00    +0.000 A 
ATOM     28  C   UNL     1      50.197   2.413  17.236  0.00  0.00    +0.000 A 
ATOM     29  N   UNL     1      50.836   1.221  17.115  0.00  0.00    +0.000 NA
ATOM     30  C   UNL     1      52.128   1.221  17.516  0.00  0.00    +0.000 A 
ATOM     31  C   UNL     1      52.749   2.355  18.015  0.00  0.00    +0.000 A 
ATOM     32  N   UNL     1      52.110   3.540  18.139  0.00  0.00    +0.000 NA
ENDBRANCH  26  27
ENDBRANCH  25  26
ENDBRANCH  22  25
ENDBRANCH  18  19
ENDBRANCH   1  18
TORSDOF 8
ENDMDL
MODEL 5
REMARK VINA RESULT:    -7.326      1.956      2.510
REMARK INTER + INTRA:         -11.495
REMARK INTER:                 -10.494
REMARK INTRA:                  -1.001
REMARK UNBOUND:                -0.957
REMARK  Name = 
REMARK  8 active torsions:
REMARK  status: ('A' for Active; 'I' for Inactive)
REMARK    1  A    between atoms: N_1  and  C_2
REMARK    2  A    between atoms: C_2  and  C_3
REMARK    3  A    between atoms: C_2  and  C_18
REMARK    4  A    between atoms: C_3  and  C_4
REMARK    5  A    between atoms: C_7  and  C_8
REMARK    6  A    between atoms: C_8  and  O_9
REMARK    7  A    between atoms: O_9  and  C_10
REMARK    8  A    between atoms: C_18  and  C_20
REMARK                            x       y       z     vdW  Elec       q    Type
REMARK                         _______ _______ _______ _____ _____    ______ ____
ROOT
ATOM      1  C   UNL     1      48.906   6.861  14.090  0.00  0.00    +0.000 C 
ENDROOT
BRANCH   1   2
ATOM      2  N   UNL     1      49.760   6.816  12.875  0.00  0.00    +0.000 NA
ATOM      3  H   UNL     1      50.713   6.571  13.143  0.00  0.00    +0.000 HD
ATOM      4  H   UNL     1      49.834   7.772  12.511  0.00  0.00    +0.000 HD
ENDBRANCH   1   2
BRANCH   1   5
ATOM      5  C   UNL     1      49.583   7.748  15.174  0.00  0.00    +0.000 C 
ATOM      6  O   UNL     1      50.623   8.361  14.918  0.00  0.00    +0.000 OA
BRANCH   5   7
ATOM      7  C   UNL     1      48.995   7.795  16.523  0.00  0.00    +0.000 A 
ATOM      8  C   UNL     1      48.367   8.919  17.037  0.00  0.00    +0.000 A 
ATOM      9  S   UNL     1      47.675   8.674  18.580  0.00  0.00    +0.000 S 
ATOM     10  C   UNL     1      48.188   7.053  18.613  0.00  0.00    +0.000 A 
ATOM     11  N   UNL     1      47.888   6.254  19.669  0.00  0.00    +0.000 NA
ATOM     12  C   UNL     1      48.317   5.040  19.553  0.00  0.00    +0.000 A 
ATOM     13  N   UNL     1      49.040   4.564  18.488  0.00  0.00    +0.000 N 
ATOM     14  C   UNL     1      49.469   5.367  17.453  0.00  0.00    +0.000 A 
ATOM     15  O   UNL     1      50.302   4.971  16.649  0.00  0.00    +0.000 OA
ATOM     16  C   UNL     1      48.917   6.715  17.485  0.00  0.00    +0.000 A 
ATOM     17  H   UNL     1      49.409   3.625  18.495  0.00  0.00    +0.000 HD
ENDBRANCH   5   7
ENDBRANCH   1   5
BRANCH   1  18
ATOM     18  C   UNL     1      47.506   7.423  13.789  0.00  0.00    +0.000 C 
BRANCH  18  19
ATOM     19  C   UNL     1      46.629   6.525  12.941  0.00  0.00    +0.000 A 
ATOM     20  C   UNL     1      46.122   6.952  11.705  0.00  0.00    +0.000 A 
ATOM     21  C   UNL     1      45.312   6.108  10.938  0.00  0.00    +0.000 A 
ATOM     22  C   UNL     1      44.992   4.823  11.392  0.00  0.00    +0.000 A 
ATOM     23  C   UNL     1      45.516   4.388  12.615  0.00  0.00    +0.000 A 
ATOM     24  C   UNL     1      46.322   5.231  13.382  0.00  0.00    +0.000 A 
BRANCH  22  25
ATOM     25  C   UNL     1      44.095   3.917  10.584  0.00  0.00    +0.000 C 
BRANCH  25  26
ATOM     26  O   UNL     1      44.216   4.251   9.201  0.00  0.00    +0.000 OA
BRANCH  26  27
ATOM     27  C   UNL     1      45.151   3.466   8.560  0.00  0.00    +0.000 A 
ATOM     28  C   UNL     1      45.240   2.130   8.923  0.00  0.00    +0.000 A 
ATOM     29  N   UNL     1      46.121   1.271   8.349  0.00  0.00    +0.000 NA
ATOM     30  C   UNL     1      46.907   1.813   7.391  0.00  0.00    +0.000 A 
ATOM     31  C   UNL     1      46.820   3.147   7.027  0.00  0.00    +0.000 A 
ATOM     32  N   UNL     1      45.945   4.003   7.603  0.00  0.00    +0.000 NA
ENDBRANCH  26  27
ENDBRANCH  25  26
ENDBRANCH  22  25
ENDBRANCH  18  19
ENDBRANCH   1  18
TORSDOF 8
ENDMDL
MODEL 6
REMARK VINA RESULT:    -6.938      2.136      2.705
REMARK INTER + INTRA:         -10.937
REMARK INTER:                 -10.302
REMARK INTRA:                  -0.634
REMARK UNBOUND:                -0.957
REMARK  Name = 
REMARK  8 active torsions:
REMARK  status: ('A' for Active; 'I' for Inactive)
REMARK    1  A    between atoms: N_1  and  C_2
REMARK    2  A    between atoms: C_2  and  C_3
REMARK    3  A    between atoms: C_2  and  C_18
REMARK    4  A    between atoms: C_3  and  C_4
REMARK    5  A    between atoms: C_7  and  C_8
REMARK    6  A    between atoms: C_8  and  O_9
REMARK    7  A    between atoms: O_9  and  C_10
REMARK    8  A    between atoms: C_18  and  C_20
REMARK                            x       y       z     vdW  Elec       q    Type
REMARK                         _______ _______ _______ _____ _____    ______ ____
ROOT
ATOM      1  C   UNL     1      48.374   8.182  14.234  0.00  0.00    +0.000 C 
ENDROOT
BRANCH   1   2
ATOM      2  N   UNL     1      46.929   8.529  14.216  0.00  0.00    +0.000 NA
ATOM      3  H   UNL     1      46.792   9.414  14.702  0.00  0.00    +0.000 HD
ATOM      4  H   UNL     1      46.437   7.839  14.793  0.00  0.00    +0.000 HD
ENDBRANCH   1   2
BRANCH   1   5
ATOM      5  C   UNL     1      48.884   8.136  15.702  0.00  0.00    +0.000 C 
ATOM      6  O   UNL     1      48.307   8.778  16.584  0.00  0.00    +0.000 OA
BRANCH   5   7
ATOM      7  C   UNL     1      50.099   7.363  16.009  0.00  0.00    +0.000 A 
ATOM      8  C   UNL     1      51.379   7.826  15.745  0.00  0.00    +0.000 A 
ATOM      9  S   UNL     1      52.615   6.782  16.298  0.00  0.00    +0.000 S 
ATOM     10  C   UNL     1      51.480   5.676  16.915  0.00  0.00    +0.000 A 
ATOM     11  N   UNL     1      51.887   4.551  17.555  0.00  0.00    +0.000 NA
ATOM     12  C   UNL     1      50.922   3.811  17.995  0.00  0.00    +0.000 A 
ATOM     13  N   UNL     1      49.589   4.086  17.827  0.00  0.00    +0.000 N 
ATOM     14  C   UNL     1      49.129   5.151  17.083  0.00  0.00    +0.000 A 
ATOM     15  O   UNL     1      47.952   5.234  16.757  0.00  0.00    +0.000 OA
ATOM     16  C   UNL     1      50.176   6.072  16.662  0.00  0.00    +0.000 A 
ATOM     17  H   UNL     1      48.885   3.428  18.129  0.00  0.00    +0.000 HD
ENDBRANCH   5   7
ENDBRANCH   1   5
BRANCH   1  18
ATOM     18  C   UNL     1      48.647   6.822  13.568  0.00  0.00    +0.000 C 
BRANCH  18  19
ATOM     19  C   UNL     1      47.445   6.187  12.901  0.00  0.00    +0.000 A 
ATOM     20  C   UNL     1      46.793   5.081  13.465  0.00  0.00    +0.000 A 
ATOM     21  C   UNL     1      45.686   4.508  12.832  0.00  0.00    +0.000 A 
ATOM     22  C   UNL     1      45.209   5.028  11.623  0.00  0.00    +0.000 A 
ATOM     23  C   UNL     1      45.845   6.147  11.070  0.00  0.00    +0.000 A 
ATOM     24  C   UNL     1      46.953   6.716  11.701  0.00  0.00    +0.000 A 
BRANCH  22  25
ATOM     25  C   UNL     1      44.033   4.398  10.919  0.00  0.00    +0.000 C 
BRANCH  25  26
ATOM     26  O   UNL     1      44.130   4.662   9.519  0.00  0.00    +0.000 OA
BRANCH  26  27
ATOM     27  C   UNL     1      44.958   3.763   8.879  0.00  0.00    +0.000 A 
ATOM     28  C   UNL     1      44.908   2.434   9.277  0.00  0.00    +0.000 A 
ATOM     29  N   UNL     1      45.675   1.470   8.708  0.00  0.00    +0.000 NA
ATOM     30  C   UNL     1      46.494   1.898   7.720  0.00  0.00    +0.000 A 
ATOM     31  C   UNL     1      46.545   3.224   7.322  0.00  0.00    +0.000 A 
ATOM     32  N   UNL     1      45.783   4.185   7.893  0.00  0.00    +0.000 NA
ENDBRANCH  26  27
ENDBRANCH  25  26
ENDBRANCH  22  25
ENDBRANCH  18  19
ENDBRANCH   1  18
TORSDOF 8
ENDMDL
MODEL 7
REMARK VINA RESULT:    -6.915      2.119      2.982
REMARK INTER + INTRA:         -10.903
REMARK INTER:                 -10.176
REMARK INTRA:                  -0.727
REMARK UNBOUND:                -0.957
REMARK  Name = 
REMARK  8 active torsions:
REMARK  status: ('A' for Active; 'I' for Inactive)
REMARK    1  A    between atoms: N_1  and  C_2
REMARK    2  A    between atoms: C_2  and  C_3
REMARK    3  A    between atoms: C_2  and  C_18
REMARK    4  A    between atoms: C_3  and  C_4
REMARK    5  A    between atoms: C_7  and  C_8
REMARK    6  A    between atoms: C_8  and  O_9
REMARK    7  A    between atoms: O_9  and  C_10
REMARK    8  A    between atoms: C_18  and  C_20
REMARK                            x       y       z     vdW  Elec       q    Type
REMARK                         _______ _______ _______ _____ _____    ______ ____
ROOT
ATOM      1  C   UNL     1      48.256   6.970  14.259  0.00  0.00    +0.000 C 
ENDROOT
BRANCH   1   2
ATOM      2  N   UNL     1      47.448   8.211  14.382  0.00  0.00    +0.000 NA
ATOM      3  H   UNL     1      47.309   8.613  13.455  0.00  0.00    +0.000 HD
ATOM      4  H   UNL     1      48.017   8.904  14.880  0.00  0.00    +0.000 HD
ENDBRANCH   1   2
BRANCH   1   5
ATOM      5  C   UNL     1      49.404   6.986  15.308  0.00  0.00    +0.000 C 
ATOM      6  O   UNL     1      50.527   7.392  14.999  0.00  0.00    +0.000 OA
BRANCH   5   7
ATOM      7  C   UNL     1      49.142   6.454  16.657  0.00  0.00    +0.000 A 
ATOM      8  C   UNL     1      49.422   5.146  17.023  0.00  0.00    +0.000 A 
ATOM      9  S   UNL     1      49.127   4.817  18.674  0.00  0.00    +0.000 S 
ATOM     10  C   UNL     1      48.618   6.415  18.957  0.00  0.00    +0.000 A 
ATOM     11  N   UNL     1      48.246   6.813  20.201  0.00  0.00    +0.000 NA
ATOM     12  C   UNL     1      47.906   8.057  20.280  0.00  0.00    +0.000 A 
ATOM     13  N   UNL     1      47.879   8.929  19.222  0.00  0.00    +0.000 N 
ATOM     14  C   UNL     1      48.133   8.542  17.923  0.00  0.00    +0.000 A 
ATOM     15  O   UNL     1      47.874   9.280  16.982  0.00  0.00    +0.000 OA
ATOM     16  C   UNL     1      48.627   7.178  17.801  0.00  0.00    +0.000 A 
ATOM     17  H   UNL     1      47.531   9.870  19.338  0.00  0.00    +0.000 HD
ENDBRANCH   5   7
ENDBRANCH   1   5
BRANCH   1  18
ATOM     18  C   UNL     1      47.403   5.706  14.472  0.00  0.00    +0.000 C 
BRANCH  18  19
ATOM     19  C   UNL     1      46.593   5.275  13.266  0.00  0.00    +0.000 A 
ATOM     20  C   UNL     1      46.443   6.109  12.149  0.00  0.00    +0.000 A 
ATOM     21  C   UNL     1      45.689   5.693  11.047  0.00  0.00    +0.000 A 
ATOM     22  C   UNL     1      45.070   4.438  11.040  0.00  0.00    +0.000 A 
ATOM     23  C   UNL     1      45.238   3.595  12.146  0.00  0.00    +0.000 A 
ATOM     24  C   UNL     1      45.988   4.012  13.248  0.00  0.00    +0.000 A 
BRANCH  22  25
ATOM     25  C   UNL     1      44.231   3.994   9.868  0.00  0.00    +0.000 C 
BRANCH  25  26
ATOM     26  O   UNL     1      44.517   2.624   9.580  0.00  0.00    +0.000 OA
BRANCH  26  27
ATOM     27  C   UNL     1      45.431   2.491   8.557  0.00  0.00    +0.000 A 
ATOM     28  C   UNL     1      45.618   3.570   7.705  0.00  0.00    +0.000 A 
ATOM     29  N   UNL     1      46.499   3.544   6.672  0.00  0.00    +0.000 NA
ATOM     30  C   UNL     1      47.186   2.388   6.534  0.00  0.00    +0.000 A 
ATOM     31  C   UNL     1      47.001   1.310   7.384  0.00  0.00    +0.000 A 
ATOM     32  N   UNL     1      46.120   1.335   8.410  0.00  0.00    +0.000 NA
ENDBRANCH  26  27
ENDBRANCH  25  26
ENDBRANCH  22  25
ENDBRANCH  18  19
ENDBRANCH   1  18
TORSDOF 8
ENDMDL
MODEL 8
REMARK VINA RESULT:    -6.643      3.040      4.352
REMARK INTER + INTRA:         -10.512
REMARK INTER:                  -9.779
REMARK INTRA:                  -0.732
REMARK UNBOUND:                -0.957
REMARK  Name = 
REMARK  8 active torsions:
REMARK  status: ('A' for Active; 'I' for Inactive)
REMARK    1  A    between atoms: N_1  and  C_2
REMARK    2  A    between atoms: C_2  and  C_3
REMARK    3  A    between atoms: C_2  and  C_18
REMARK    4  A    between atoms: C_3  and  C_4
REMARK    5  A    between atoms: C_7  and  C_8
REMARK    6  A    between atoms: C_8  and  O_9
REMARK    7  A    between atoms: O_9  and  C_10
REMARK    8  A    between atoms: C_18  and  C_20
REMARK                            x       y       z     vdW  Elec       q    Type
REMARK                         _______ _______ _______ _____ _____    ______ ____
ROOT
ATOM      1  C   UNL     1      47.367   8.423  14.014  0.00  0.00    +0.000 C 
ENDROOT
BRANCH   1   2
ATOM      2  N   UNL     1      47.703   8.764  15.421  0.00  0.00    +0.000 NA
ATOM      3  H   UNL     1      47.329   8.045  16.039  0.00  0.00    +0.000 HD
ATOM      4  H   UNL     1      47.181   9.612  15.668  0.00  0.00    +0.000 HD
ENDBRANCH   1   2
BRANCH   1   5
ATOM      5  C   UNL     1      48.010   9.464  13.055  0.00  0.00    +0.000 C 
ATOM      6  O   UNL     1      47.409   9.837  12.044  0.00  0.00    +0.000 OA
BRANCH   5   7
ATOM      7  C   UNL     1      49.370   9.952  13.343  0.00  0.00    +0.000 A 
ATOM      8  C   UNL     1      49.626  11.042  14.162  0.00  0.00    +0.000 A 
ATOM      9  S   UNL     1      51.291  11.331  14.420  0.00  0.00    +0.000 S 
ATOM     10  C   UNL     1      51.727  10.005  13.448  0.00  0.00    +0.000 A 
ATOM     11  N   UNL     1      53.032   9.675  13.273  0.00  0.00    +0.000 NA
ATOM     12  C   UNL     1      53.220   8.632  12.532  0.00  0.00    +0.000 A 
ATOM     13  N   UNL     1      52.222   7.909  11.932  0.00  0.00    +0.000 N 
ATOM     14  C   UNL     1      50.893   8.275  11.983  0.00  0.00    +0.000 A 
ATOM     15  O   UNL     1      50.065   7.752  11.251  0.00  0.00    +0.000 OA
ATOM     16  C   UNL     1      50.621   9.378  12.896  0.00  0.00    +0.000 A 
ATOM     17  H   UNL     1      52.442   7.150  11.303  0.00  0.00    +0.000 HD
ENDBRANCH   5   7
ENDBRANCH   1   5
BRANCH   1  18
ATOM     18  C   UNL     1      47.861   7.017  13.630  0.00  0.00    +0.000 C 
BRANCH  18  19
ATOM     19  C   UNL     1      46.896   6.213  12.785  0.00  0.00    +0.000 A 
ATOM     20  C   UNL     1      46.579   6.592  11.473  0.00  0.00    +0.000 A 
ATOM     21  C   UNL     1      45.683   5.836  10.710  0.00  0.00    +0.000 A 
ATOM     22  C   UNL     1      45.085   4.689  11.243  0.00  0.00    +0.000 A 
ATOM     23  C   UNL     1      45.417   4.297  12.546  0.00  0.00    +0.000 A 
ATOM     24  C   UNL     1      46.309   5.053  13.309  0.00  0.00    +0.000 A 
BRANCH  22  25
ATOM     25  C   UNL     1      44.094   3.885  10.438  0.00  0.00    +0.000 C 
BRANCH  25  26
ATOM     26  O   UNL     1      44.257   4.196   9.053  0.00  0.00    +0.000 OA
BRANCH  26  27
ATOM     27  C   UNL     1      45.206   3.397   8.452  0.00  0.00    +0.000 A 
ATOM     28  C   UNL     1      45.261   2.059   8.820  0.00  0.00    +0.000 A 
ATOM     29  N   UNL     1      46.152   1.188   8.283  0.00  0.00    +0.000 NA
ATOM     30  C   UNL     1      46.986   1.717   7.359  0.00  0.00    +0.000 A 
ATOM     31  C   UNL     1      46.933   3.052   6.991  0.00  0.00    +0.000 A 
ATOM     32  N   UNL     1      46.047   3.920   7.529  0.00  0.00    +0.000 NA
ENDBRANCH  26  27
ENDBRANCH  25  26
ENDBRANCH  22  25
ENDBRANCH  18  19
ENDBRANCH   1  18
TORSDOF 8
ENDMDL
MODEL 9
REMARK VINA RESULT:    -6.593      2.949      4.447
REMARK INTER + INTRA:         -10.441
REMARK INTER:                  -9.568
REMARK INTRA:                  -0.872
REMARK UNBOUND:                -0.957
REMARK  Name = 
REMARK  8 active torsions:
REMARK  status: ('A' for Active; 'I' for Inactive)
REMARK    1  A    between atoms: N_1  and  C_2
REMARK    2  A    between atoms: C_2  and  C_3
REMARK    3  A    between atoms: C_2  and  C_18
REMARK    4  A    between atoms: C_3  and  C_4
REMARK    5  A    between atoms: C_7  and  C_8
REMARK    6  A    between atoms: C_8  and  O_9
REMARK    7  A    between atoms: O_9  and  C_10
REMARK    8  A    between atoms: C_18  and  C_20
REMARK                            x       y       z     vdW  Elec       q    Type
REMARK                         _______ _______ _______ _____ _____    ______ ____
ROOT
ATOM      1  C   UNL     1      49.274   6.945  17.177  0.00  0.00    +0.000 C 
ENDROOT
BRANCH   1   2
ATOM      2  N   UNL     1      47.919   7.535  17.328  0.00  0.00    +0.000 NA
ATOM      3  H   UNL     1      47.458   7.551  16.418  0.00  0.00    +0.000 HD
ATOM      4  H   UNL     1      48.036   8.524  17.574  0.00  0.00    +0.000 HD
ENDBRANCH   1   2
BRANCH   1   5
ATOM      5  C   UNL     1      49.319   5.553  17.871  0.00  0.00    +0.000 C 
ATOM      6  O   UNL     1      48.286   5.039  18.308  0.00  0.00    +0.000 OA
BRANCH   5   7
ATOM      7  C   UNL     1      50.622   4.888  18.047  0.00  0.00    +0.000 A 
ATOM      8  C   UNL     1      51.717   5.509  18.627  0.00  0.00    +0.000 A 
ATOM      9  S   UNL     1      53.071   4.482  18.812  0.00  0.00    +0.000 S 
ATOM     10  C   UNL     1      52.237   3.169  18.125  0.00  0.00    +0.000 A 
ATOM     11  N   UNL     1      52.832   1.954  18.012  0.00  0.00    +0.000 NA
ATOM     12  C   UNL     1      52.077   1.040  17.495  0.00  0.00    +0.000 A 
ATOM     13  N   UNL     1      50.793   1.242  17.059  0.00  0.00    +0.000 N 
ATOM     14  C   UNL     1      50.190   2.482  17.043  0.00  0.00    +0.000 A 
ATOM     15  O   UNL     1      49.144   2.669  16.437  0.00  0.00    +0.000 OA
ATOM     16  C   UNL     1      50.960   3.519  17.717  0.00  0.00    +0.000 A 
ATOM     17  H   UNL     1      50.284   0.503  16.595  0.00  0.00    +0.000 HD
ENDBRANCH   5   7
ENDBRANCH   1   5
BRANCH   1  18
ATOM     18  C   UNL     1      49.669   6.779  15.699  0.00  0.00    +0.000 C 
BRANCH  18  19
ATOM     19  C   UNL     1      48.505   6.612  14.745  0.00  0.00    +0.000 A 
ATOM     20  C   UNL     1      48.103   7.649  13.892  0.00  0.00    +0.000 A 
ATOM     21  C   UNL     1      47.023   7.475  13.020  0.00  0.00    +0.000 A 
ATOM     22  C   UNL     1      46.324   6.263  12.984  0.00  0.00    +0.000 A 
ATOM     23  C   UNL     1      46.739   5.219  13.821  0.00  0.00    +0.000 A 
ATOM     24  C   UNL     1      47.814   5.394  14.694  0.00  0.00    +0.000 A 
BRANCH  22  25
ATOM     25  C   UNL     1      45.140   6.077  12.068  0.00  0.00    +0.000 C 
BRANCH  25  26
ATOM     26  O   UNL     1      45.587   6.125  10.712  0.00  0.00    +0.000 OA
BRANCH  26  27
ATOM     27  C   UNL     1      45.234   4.991  10.011  0.00  0.00    +0.000 A 
ATOM     28  C   UNL     1      44.469   4.033  10.662  0.00  0.00    +0.000 A 
ATOM     29  N   UNL     1      44.064   2.886  10.061  0.00  0.00    +0.000 NA
ATOM     30  C   UNL     1      44.458   2.743   8.775  0.00  0.00    +0.000 A 
ATOM     31  C   UNL     1      45.222   3.698   8.124  0.00  0.00    +0.000 A 
ATOM     32  N   UNL     1      45.629   4.839   8.725  0.00  0.00    +0.000 NA
ENDBRANCH  26  27
ENDBRANCH  25  26
ENDBRANCH  22  25
ENDBRANCH  18  19
ENDBRANCH   1  18
TORSDOF 8
ENDMDL
