MODEL 1
REMARK VINA RESULT:    -7.936      0.000      0.000
REMARK INTER + INTRA:         -11.463
REMARK INTER:                 -10.488
REMARK INTRA:                  -0.975
REMARK UNBOUND:                -0.975
REMARK  Name = 
REMARK  6 active torsions:
REMARK  status: ('A' for Active; 'I' for Inactive)
REMARK    1  A    between atoms: C_2  and  C_18
REMARK    2  A    between atoms: N_3  and  C_4
REMARK    3  A    between atoms: C_4  and  C_5
REMARK    4  A    between atoms: C_8  and  C_9
REMARK    5  A    between atoms: C_9  and  O_10
REMARK    6  A    between atoms: C_9  and  C_11
REMARK                            x       y       z     vdW  Elec       q    Type
REMARK                         _______ _______ _______ _____ _____    ______ ____
ROOT
ATOM      1  C   UNL     1      46.060   7.345  12.808  0.00  0.00    +0.000 C 
ENDROOT
BRANCH   1   2
ATOM      2  C   UNL     1      45.691   6.216  11.894  0.00  0.00    +0.000 A 
ATOM      3  C   UNL     1      44.944   5.127  12.340  0.00  0.00    +0.000 A 
ATOM      4  C   UNL     1      44.621   4.102  11.453  0.00  0.00    +0.000 A 
ATOM      5  C   UNL     1      45.058   4.180  10.131  0.00  0.00    +0.000 A 
ATOM      6  N   UNL     1      45.744   5.258   9.670  0.00  0.00    +0.000 NA
ATOM      7  C   UNL     1      46.040   6.241  10.552  0.00  0.00    +0.000 A 
BRANCH   5   8
ATOM      8  C   UNL     1      44.746   3.056   9.148  0.00  0.00    +0.000 C 
BRANCH   8   9
ATOM      9  C   UNL     1      46.015   2.471   8.478  0.00  0.00    +0.000 C 
ATOM     10  C   UNL     1      46.169   2.863   7.012  0.00  0.00    +0.000 C 
ATOM     11  C   UNL     1      47.191   1.858   6.509  0.00  0.00    +0.000 C 
ATOM     12  C   UNL     1      46.959   0.616   7.358  0.00  0.00    +0.000 C 
ATOM     13  N   UNL     1      45.967   0.990   8.369  0.00  0.00    +0.000 NA
ATOM     14  H   UNL     1      46.222   0.595   9.279  0.00  0.00    +0.000 HD
ENDBRANCH   8   9
BRANCH   8  15
ATOM     15  O   UNL     1      44.052   1.992   9.825  0.00  0.00    +0.000 OA
ATOM     16  H   UNL     1      43.708   1.441   9.092  0.00  0.00    +0.000 HD
ENDBRANCH   8  15
ENDBRANCH   5   8
ENDBRANCH   1   2
BRANCH   1  19
ATOM     17  O   UNL     1      48.746   6.715  13.098  0.00  0.00    +0.000 OA
ATOM     18  C   UNL     1      48.019   6.628  14.085  0.00  0.00    +0.000 C 
ATOM     19  N   UNL     1      46.670   6.854  14.015  0.00  0.00    +0.000 N 
ATOM     20  H   UNL     1      46.144   6.970  14.878  0.00  0.00    +0.000 HD
BRANCH  18  21
ATOM     21  C   UNL     1      48.546   6.229  15.395  0.00  0.00    +0.000 A 
ATOM     22  C   UNL     1      49.517   7.003  16.014  0.00  0.00    +0.000 A 
ATOM     23  S   UNL     1      50.035   6.377  17.513  0.00  0.00    +0.000 S 
ATOM     24  C   UNL     1      48.947   5.074  17.407  0.00  0.00    +0.000 A 
ATOM     25  N   UNL     1      48.861   4.150  18.404  0.00  0.00    +0.000 NA
ATOM     26  C   UNL     1      47.964   3.241  18.211  0.00  0.00    +0.000 A 
ATOM     27  N   UNL     1      47.152   3.165  17.110  0.00  0.00    +0.000 N 
ATOM     28  C   UNL     1      47.228   4.053  16.063  0.00  0.00    +0.000 A 
ATOM     29  O   UNL     1      46.523   3.927  15.067  0.00  0.00    +0.000 OA
ATOM     30  C   UNL     1      48.209   5.106  16.238  0.00  0.00    +0.000 A 
ATOM     31  H   UNL     1      46.477   2.419  17.015  0.00  0.00    +0.000 HD
ENDBRANCH  18  21
ENDBRANCH   1  19
TORSDOF 6
ENDMDL
MODEL 2
REMARK VINA RESULT:    -7.861      1.255      1.518
REMARK INTER + INTRA:         -11.362
REMARK INTER:                 -10.161
REMARK INTRA:                  -1.202
REMARK UNBOUND:                -0.975
REMARK  Name = 
REMARK  6 active torsions:
REMARK  status: ('A' for Active; 'I' for Inactive)
REMARK    1  A    between atoms: C_2  and  C_18
REMARK    2  A    between atoms: N_3  and  C_4
REMARK    3  A    between atoms: C_4  and  C_5
REMARK    4  A    between atoms: C_8  and  C_9
REMARK    5  A    between atoms: C_9  and  O_10
REMARK    6  A    between atoms: C_9  and  C_11
REMARK                            x       y       z     vdW  Elec       q    Type
REMARK                         _______ _______ _______ _____ _____    ______ ____
ROOT
ATOM      1  C   UNL     1      47.190   7.437  13.204  0.00  0.00    +0.000 C 
ENDROOT
BRANCH   1   2
ATOM      2  C   UNL     1      46.344   6.447  12.463  0.00  0.00    +0.000 A 
ATOM      3  C   UNL     1      46.259   5.114  12.861  0.00  0.00    +0.000 A 
ATOM      4  C   UNL     1      45.456   4.229  12.145  0.00  0.00    +0.000 A 
ATOM      5  C   UNL     1      44.753   4.692  11.033  0.00  0.00    +0.000 A 
ATOM      6  N   UNL     1      44.787   5.999  10.662  0.00  0.00    +0.000 NA
ATOM      7  C   UNL     1      45.572   6.837  11.378  0.00  0.00    +0.000 A 
BRANCH   5   8
ATOM      8  C   UNL     1      43.893   3.737  10.212  0.00  0.00    +0.000 C 
BRANCH   8   9
ATOM      9  C   UNL     1      44.555   3.330   8.870  0.00  0.00    +0.000 C 
ATOM     10  C   UNL     1      45.505   2.143   8.991  0.00  0.00    +0.000 C 
ATOM     11  C   UNL     1      46.306   2.231   7.703  0.00  0.00    +0.000 C 
ATOM     12  C   UNL     1      46.343   3.717   7.375  0.00  0.00    +0.000 C 
ATOM     13  N   UNL     1      45.475   4.376   8.354  0.00  0.00    +0.000 NA
ATOM     14  H   UNL     1      44.912   5.099   7.897  0.00  0.00    +0.000 HD
ENDBRANCH   8   9
BRANCH   8  15
ATOM     15  O   UNL     1      43.624   2.544  10.971  0.00  0.00    +0.000 OA
ATOM     16  H   UNL     1      43.271   2.887  11.818  0.00  0.00    +0.000 HD
ENDBRANCH   8  15
ENDBRANCH   5   8
ENDBRANCH   1   2
BRANCH   1  19
ATOM     17  O   UNL     1      49.745   6.999  14.195  0.00  0.00    +0.000 OA
ATOM     18  C   UNL     1      48.792   6.838  14.953  0.00  0.00    +0.000 C 
ATOM     19  N   UNL     1      47.496   6.967  14.529  0.00  0.00    +0.000 N 
ATOM     20  H   UNL     1      46.754   7.026  15.221  0.00  0.00    +0.000 HD
BRANCH  18  21
ATOM     21  C   UNL     1      48.983   6.451  16.355  0.00  0.00    +0.000 A 
ATOM     22  C   UNL     1      49.516   7.361  17.257  0.00  0.00    +0.000 A 
ATOM     23  S   UNL     1      49.695   6.735  18.833  0.00  0.00    +0.000 S 
ATOM     24  C   UNL     1      49.026   5.241  18.374  0.00  0.00    +0.000 A 
ATOM     25  N   UNL     1      48.866   4.237  19.280  0.00  0.00    +0.000 NA
ATOM     26  C   UNL     1      48.306   3.174  18.805  0.00  0.00    +0.000 A 
ATOM     27  N   UNL     1      47.900   3.019  17.505  0.00  0.00    +0.000 N 
ATOM     28  C   UNL     1      48.075   3.990  16.547  0.00  0.00    +0.000 A 
ATOM     29  O   UNL     1      47.748   3.801  15.380  0.00  0.00    +0.000 OA
ATOM     30  C   UNL     1      48.683   5.213  17.034  0.00  0.00    +0.000 A 
ATOM     31  H   UNL     1      47.479   2.155  17.194  0.00  0.00    +0.000 HD
ENDBRANCH  18  21
ENDBRANCH   1  19
TORSDOF 6
ENDMDL
MODEL 3
REMARK VINA RESULT:    -7.649      2.076      2.698
REMARK INTER + INTRA:         -11.083
REMARK INTER:                 -10.113
REMARK INTRA:                  -0.970
REMARK UNBOUND:                -0.975
REMARK  Name = 
REMARK  6 active torsions:
REMARK  status: ('A' for Active; 'I' for Inactive)
REMARK    1  A    between atoms: C_2  and  C_18
REMARK    2  A    between atoms: N_3  and  C_4
REMARK    3  A    between atoms: C_4  and  C_5
REMARK    4  A    between atoms: C_8  and  C_9
REMARK    5  A    between atoms: C_9  and  O_10
REMARK    6  A    between atoms: C_9  and  C_11
REMARK                            x       y       z     vdW  Elec       q    Type
REMARK                         _______ _______ _______ _____ _____    ______ ____
ROOT
ATOM      1  C   UNL     1      48.276   6.590  13.772  0.00  0.00    +0.000 C 
ENDROOT
BRANCH   1   2
ATOM      2  C   UNL     1      47.083   6.077  13.023  0.00  0.00    +0.000 A 
ATOM      3  C   UNL     1      46.343   4.989  13.481  0.00  0.00    +0.000 A 
ATOM      4  C   UNL     1      45.239   4.549  12.755  0.00  0.00    +0.000 A 
ATOM      5  C   UNL     1      44.896   5.203  11.571  0.00  0.00    +0.000 A 
ATOM      6  N   UNL     1      45.578   6.295  11.138  0.00  0.00    +0.000 NA
ATOM      7  C   UNL     1      46.643   6.703  11.866  0.00  0.00    +0.000 A 
BRANCH   5   8
ATOM      8  C   UNL     1      43.712   4.721  10.739  0.00  0.00    +0.000 C 
BRANCH   8   9
ATOM      9  C   UNL     1      44.144   3.986   9.445  0.00  0.00    +0.000 C 
ATOM     10  C   UNL     1      44.865   2.667   9.702  0.00  0.00    +0.000 C 
ATOM     11  C   UNL     1      45.529   2.390   8.364  0.00  0.00    +0.000 C 
ATOM     12  C   UNL     1      45.806   3.768   7.780  0.00  0.00    +0.000 C 
ATOM     13  N   UNL     1      45.182   4.732   8.690  0.00  0.00    +0.000 NA
ATOM     14  H   UNL     1      44.718   5.473   8.156  0.00  0.00    +0.000 HD
ENDBRANCH   8   9
BRANCH   8  15
ATOM     15  O   UNL     1      42.893   3.833  11.521  0.00  0.00    +0.000 OA
ATOM     16  H   UNL     1      41.980   4.122  11.315  0.00  0.00    +0.000 HD
ENDBRANCH   8  15
ENDBRANCH   5   8
ENDBRANCH   1   2
BRANCH   1  19
ATOM     17  O   UNL     1      50.141   6.218  15.792  0.00  0.00    +0.000 OA
ATOM     18  C   UNL     1      49.000   6.542  16.109  0.00  0.00    +0.000 C 
ATOM     19  N   UNL     1      48.000   6.679  15.181  0.00  0.00    +0.000 N 
ATOM     20  H   UNL     1      47.135   7.139  15.454  0.00  0.00    +0.000 HD
BRANCH  18  21
ATOM     21  C   UNL     1      48.622   6.756  17.510  0.00  0.00    +0.000 A 
ATOM     22  C   UNL     1      48.212   8.013  17.931  0.00  0.00    +0.000 A 
ATOM     23  S   UNL     1      47.840   8.089  19.593  0.00  0.00    +0.000 S 
ATOM     24  C   UNL     1      48.171   6.434  19.798  0.00  0.00    +0.000 A 
ATOM     25  N   UNL     1      48.023   5.835  21.012  0.00  0.00    +0.000 NA
ATOM     26  C   UNL     1      48.268   4.567  21.014  0.00  0.00    +0.000 A 
ATOM     27  N   UNL     1      48.656   3.844  19.916  0.00  0.00    +0.000 N 
ATOM     28  C   UNL     1      48.854   4.412  18.680  0.00  0.00    +0.000 A 
ATOM     29  O   UNL     1      49.252   3.747  17.729  0.00  0.00    +0.000 OA
ATOM     30  C   UNL     1      48.575   5.833  18.619  0.00  0.00    +0.000 A 
ATOM     31  H   UNL     1      48.843   2.853  19.988  0.00  0.00    +0.000 HD
ENDBRANCH  18  21
ENDBRANCH   1  19
TORSDOF 6
ENDMDL
MODEL 4
REMARK VINA RESULT:    -6.993      3.865      8.982
REMARK INTER + INTRA:         -10.216
REMARK INTER:                  -9.502
REMARK INTRA:                  -0.714
REMARK UNBOUND:                -0.975
REMARK  Name = 
REMARK  6 active torsions:
REMARK  status: ('A' for Active; 'I' for Inactive)
REMARK    1  A    between atoms: C_2  and  C_18
REMARK    2  A    between atoms: N_3  and  C_4
REMARK    3  A    between atoms: C_4  and  C_5
REMARK    4  A    between atoms: C_8  and  C_9
REMARK    5  A    between atoms: C_9  and  O_10
REMARK    6  A    between atoms: C_9  and  C_11
REMARK                            x       y       z     vdW  Elec       q    Type
REMARK                         _______ _______ _______ _____ _____    ______ ____
ROOT
ATOM      1  C   UNL     1      47.154   3.621  16.818  0.00  0.00    +0.000 C 
ENDROOT
BRANCH   1   2
ATOM      2  C   UNL     1      48.589   3.289  17.098  0.00  0.00    +0.000 A 
ATOM      3  C   UNL     1      49.405   4.138  17.842  0.00  0.00    +0.000 A 
ATOM      4  C   UNL     1      50.732   3.786  18.082  0.00  0.00    +0.000 A 
ATOM      5  C   UNL     1      51.224   2.587  17.564  0.00  0.00    +0.000 A 
ATOM      6  N   UNL     1      50.428   1.726  16.879  0.00  0.00    +0.000 NA
ATOM      7  C   UNL     1      49.142   2.092  16.665  0.00  0.00    +0.000 A 
BRANCH   5   8
ATOM      8  C   UNL     1      52.682   2.194  17.784  0.00  0.00    +0.000 C 
BRANCH   8   9
ATOM      9  C   UNL     1      53.458   3.217  18.652  0.00  0.00    +0.000 C 
ATOM     10  C   UNL     1      54.938   3.322  18.298  0.00  0.00    +0.000 C 
ATOM     11  C   UNL     1      55.519   4.020  19.515  0.00  0.00    +0.000 C 
ATOM     12  C   UNL     1      54.632   3.579  20.671  0.00  0.00    +0.000 C 
ATOM     13  N   UNL     1      53.539   2.805  20.076  0.00  0.00    +0.000 NA
ATOM     14  H   UNL     1      52.651   3.043  20.528  0.00  0.00    +0.000 HD
ENDBRANCH   8   9
BRANCH   8  15
ATOM     15  O   UNL     1      52.751   0.905  18.421  0.00  0.00    +0.000 OA
ATOM     16  H   UNL     1      52.147   0.997  19.187  0.00  0.00    +0.000 HD
ENDBRANCH   8  15
ENDBRANCH   5   8
ENDBRANCH   1   2
BRANCH   1  19
ATOM     17  O   UNL     1      47.163   3.143  14.085  0.00  0.00    +0.000 OA
ATOM     18  C   UNL     1      46.998   4.297  14.472  0.00  0.00    +0.000 C 
ATOM     19  N   UNL     1      47.048   4.632  15.799  0.00  0.00    +0.000 N 
ATOM     20  H   UNL     1      46.710   5.545  16.090  0.00  0.00    +0.000 HD
BRANCH  18  21
ATOM     21  C   UNL     1      46.784   5.400  13.529  0.00  0.00    +0.000 A 
ATOM     22  C   UNL     1      47.849   6.207  13.155  0.00  0.00    +0.000 A 
ATOM     23  S   UNL     1      47.415   7.455  12.078  0.00  0.00    +0.000 S 
ATOM     24  C   UNL     1      45.797   6.933  12.040  0.00  0.00    +0.000 A 
ATOM     25  N   UNL     1      44.873   7.571  11.268  0.00  0.00    +0.000 NA
ATOM     26  C   UNL     1      43.695   7.042  11.302  0.00  0.00    +0.000 A 
ATOM     27  N   UNL     1      43.353   5.941  12.042  0.00  0.00    +0.000 N 
ATOM     28  C   UNL     1      44.241   5.287  12.863  0.00  0.00    +0.000 A 
ATOM     29  O   UNL     1      43.891   4.336  13.554  0.00  0.00    +0.000 OA
ATOM     30  C   UNL     1      45.586   5.831  12.848  0.00  0.00    +0.000 A 
ATOM     31  H   UNL     1      42.408   5.584  12.033  0.00  0.00    +0.000 HD
ENDBRANCH  18  21
ENDBRANCH   1  19
TORSDOF 6
ENDMDL
MODEL 5
REMARK VINA RESULT:    -6.991      3.743      8.906
REMARK INTER + INTRA:         -10.213
REMARK INTER:                  -9.309
REMARK INTRA:                  -0.904
REMARK UNBOUND:                -0.975
REMARK  Name = 
REMARK  6 active torsions:
REMARK  status: ('A' for Active; 'I' for Inactive)
REMARK    1  A    between atoms: C_2  and  C_18
REMARK    2  A    between atoms: N_3  and  C_4
REMARK    3  A    between atoms: C_4  and  C_5
REMARK    4  A    between atoms: C_8  and  C_9
REMARK    5  A    between atoms: C_9  and  O_10
REMARK    6  A    between atoms: C_9  and  C_11
REMARK                            x       y       z     vdW  Elec       q    Type
REMARK                         _______ _______ _______ _____ _____    ______ ____
ROOT
ATOM      1  C   UNL     1      47.164   3.425  16.920  0.00  0.00    +0.000 C 
ENDROOT
BRANCH   1   2
ATOM      2  C   UNL     1      48.636   3.291  17.169  0.00  0.00    +0.000 A 
ATOM      3  C   UNL     1      49.323   2.113  16.882  0.00  0.00    +0.000 A 
ATOM      4  C   UNL     1      50.693   2.035  17.125  0.00  0.00    +0.000 A 
ATOM      5  C   UNL     1      51.355   3.140  17.661  0.00  0.00    +0.000 A 
ATOM      6  N   UNL     1      50.708   4.311  17.900  0.00  0.00    +0.000 NA
ATOM      7  C   UNL     1      49.379   4.359  17.650  0.00  0.00    +0.000 A 
BRANCH   5   8
ATOM      8  C   UNL     1      52.847   3.071  17.968  0.00  0.00    +0.000 C 
BRANCH   8   9
ATOM      9  C   UNL     1      53.540   4.456  17.910  0.00  0.00    +0.000 C 
ATOM     10  C   UNL     1      55.051   4.377  17.719  0.00  0.00    +0.000 C 
ATOM     11  C   UNL     1      55.506   5.770  18.119  0.00  0.00    +0.000 C 
ATOM     12  C   UNL     1      54.492   6.221  19.160  0.00  0.00    +0.000 C 
ATOM     13  N   UNL     1      53.458   5.183  19.203  0.00  0.00    +0.000 NA
ATOM     14  H   UNL     1      52.531   5.611  19.270  0.00  0.00    +0.000 HD
ENDBRANCH   8   9
BRANCH   8  15
ATOM     15  O   UNL     1      53.052   2.508  19.276  0.00  0.00    +0.000 OA
ATOM     16  H   UNL     1      53.780   3.050  19.646  0.00  0.00    +0.000 HD
ENDBRANCH   8  15
ENDBRANCH   5   8
ENDBRANCH   1   2
BRANCH   1  19
ATOM     17  O   UNL     1      47.248   3.001  14.179  0.00  0.00    +0.000 OA
ATOM     18  C   UNL     1      46.902   4.107  14.585  0.00  0.00    +0.000 C 
ATOM     19  N   UNL     1      46.899   4.423  15.919  0.00  0.00    +0.000 N 
ATOM     20  H   UNL     1      46.420   5.267  16.224  0.00  0.00    +0.000 HD
BRANCH  18  21
ATOM     21  C   UNL     1      46.516   5.179  13.661  0.00  0.00    +0.000 A 
ATOM     22  C   UNL     1      47.427   6.173  13.335  0.00  0.00    +0.000 A 
ATOM     23  S   UNL     1      46.802   7.352  12.273  0.00  0.00    +0.000 S 
ATOM     24  C   UNL     1      45.305   6.549  12.178  0.00  0.00    +0.000 A 
ATOM     25  N   UNL     1      44.301   7.031  11.394  0.00  0.00    +0.000 NA
ATOM     26  C   UNL     1      43.237   6.299  11.383  0.00  0.00    +0.000 A 
ATOM     27  N   UNL     1      43.080   5.135  12.089  0.00  0.00    +0.000 N 
ATOM     28  C   UNL     1      44.052   4.630  12.921  0.00  0.00    +0.000 A 
ATOM     29  O   UNL     1      43.862   3.613  13.580  0.00  0.00    +0.000 OA
ATOM     30  C   UNL     1      45.276   5.406  12.956  0.00  0.00    +0.000 A 
ATOM     31  H   UNL     1      42.215   4.615  12.046  0.00  0.00    +0.000 HD
ENDBRANCH  18  21
ENDBRANCH   1  19
TORSDOF 6
ENDMDL
MODEL 6
REMARK VINA RESULT:    -6.800      3.490      8.025
REMARK INTER + INTRA:          -9.960
REMARK INTER:                  -9.113
REMARK INTRA:                  -0.848
REMARK UNBOUND:                -0.975
REMARK  Name = 
REMARK  6 active torsions:
REMARK  status: ('A' for Active; 'I' for Inactive)
REMARK    1  A    between atoms: C_2  and  C_18
REMARK    2  A    between atoms: N_3  and  C_4
REMARK    3  A    between atoms: C_4  and  C_5
REMARK    4  A    between atoms: C_8  and  C_9
REMARK    5  A    between atoms: C_9  and  O_10
REMARK    6  A    between atoms: C_9  and  C_11
REMARK                            x       y       z     vdW  Elec       q    Type
REMARK                         _______ _______ _______ _____ _____    ______ ____
ROOT
ATOM      1  C   UNL     1      49.124   7.849  15.098  0.00  0.00    +0.000 C 
ENDROOT
BRANCH   1   2
ATOM      2  C   UNL     1      49.553   6.731  15.999  0.00  0.00    +0.000 A 
ATOM      3  C   UNL     1      48.641   5.802  16.497  0.00  0.00    +0.000 A 
ATOM      4  C   UNL     1      49.085   4.776  17.329  0.00  0.00    +0.000 A 
ATOM      5  C   UNL     1      50.440   4.700  17.655  0.00  0.00    +0.000 A 
ATOM      6  N   UNL     1      51.347   5.568  17.138  0.00  0.00    +0.000 NA
ATOM      7  C   UNL     1      50.888   6.552  16.330  0.00  0.00    +0.000 A 
BRANCH   5   8
ATOM      8  C   UNL     1      50.947   3.606  18.590  0.00  0.00    +0.000 C 
BRANCH   8   9
ATOM      9  C   UNL     1      52.117   2.790  17.985  0.00  0.00    +0.000 C 
ATOM     10  C   UNL     1      51.705   1.413  17.475  0.00  0.00    +0.000 C 
ATOM     11  C   UNL     1      53.038   0.696  17.349  0.00  0.00    +0.000 C 
ATOM     12  C   UNL     1      53.912   1.319  18.429  0.00  0.00    +0.000 C 
ATOM     13  N   UNL     1      53.135   2.420  19.002  0.00  0.00    +0.000 NA
ATOM     14  H   UNL     1      53.737   3.233  19.160  0.00  0.00    +0.000 HD
ENDBRANCH   8   9
BRANCH   8  15
ATOM     15  O   UNL     1      51.385   4.187  19.831  0.00  0.00    +0.000 OA
ATOM     16  H   UNL     1      50.661   4.805  20.063  0.00  0.00    +0.000 HD
ENDBRANCH   8  15
ENDBRANCH   5   8
ENDBRANCH   1   2
BRANCH   1  19
ATOM     17  O   UNL     1      48.980   6.446  12.708  0.00  0.00    +0.000 OA
ATOM     18  C   UNL     1      47.929   6.764  13.259  0.00  0.00    +0.000 C 
ATOM     19  N   UNL     1      47.909   7.516  14.405  0.00  0.00    +0.000 N 
ATOM     20  H   UNL     1      47.043   7.584  14.933  0.00  0.00    +0.000 HD
BRANCH  18  21
ATOM     21  C   UNL     1      46.625   6.398  12.697  0.00  0.00    +0.000 A 
ATOM     22  C   UNL     1      45.844   7.362  12.076  0.00  0.00    +0.000 A 
ATOM     23  S   UNL     1      44.350   6.768  11.507  0.00  0.00    +0.000 S 
ATOM     24  C   UNL     1      44.715   5.192  12.032  0.00  0.00    +0.000 A 
ATOM     25  N   UNL     1      43.844   4.166  11.826  0.00  0.00    +0.000 NA
ATOM     26  C   UNL     1      44.268   3.017  12.236  0.00  0.00    +0.000 A 
ATOM     27  N   UNL     1      45.478   2.800  12.842  0.00  0.00    +0.000 N 
ATOM     28  C   UNL     1      46.374   3.811  13.104  0.00  0.00    +0.000 A 
ATOM     29  O   UNL     1      47.426   3.593  13.694  0.00  0.00    +0.000 OA
ATOM     30  C   UNL     1      45.953   5.121  12.645  0.00  0.00    +0.000 A 
ATOM     31  H   UNL     1      45.745   1.876  13.151  0.00  0.00    +0.000 HD
ENDBRANCH  18  21
ENDBRANCH   1  19
TORSDOF 6
ENDMDL
MODEL 7
REMARK VINA RESULT:    -6.596      2.779      3.568
REMARK INTER + INTRA:          -9.691
REMARK INTER:                  -9.355
REMARK INTRA:                  -0.336
REMARK UNBOUND:                -0.975
REMARK  Name = 
REMARK  6 active torsions:
REMARK  status: ('A' for Active; 'I' for Inactive)
REMARK    1  A    between atoms: C_2  and  C_18
REMARK    2  A    between atoms: N_3  and  C_4
REMARK    3  A    between atoms: C_4  and  C_5
REMARK    4  A    between atoms: C_8  and  C_9
REMARK    5  A    between atoms: C_9  and  O_10
REMARK    6  A    between atoms: C_9  and  C_11
REMARK                            x       y       z     vdW  Elec       q    Type
REMARK                         _______ _______ _______ _____ _____    ______ ____
ROOT
ATOM      1  C   UNL     1      44.779   6.515  13.014  0.00  0.00    +0.000 C 
ENDROOT
BRANCH   1   2
ATOM      2  C   UNL     1      44.751   5.498  11.913  0.00  0.00    +0.000 A 
ATOM      3  C   UNL     1      44.046   4.303  12.038  0.00  0.00    +0.000 A 
ATOM      4  C   UNL     1      44.044   3.389  10.986  0.00  0.00    +0.000 A 
ATOM      5  C   UNL     1      44.758   3.683   9.825  0.00  0.00    +0.000 A 
ATOM      6  N   UNL     1      45.410   4.865   9.670  0.00  0.00    +0.000 NA
ATOM      7  C   UNL     1      45.391   5.736  10.705  0.00  0.00    +0.000 A 
BRANCH   5   8
ATOM      8  C   UNL     1      44.800   2.685   8.672  0.00  0.00    +0.000 C 
BRANCH   8   9
ATOM      9  C   UNL     1      46.164   2.672   7.935  0.00  0.00    +0.000 C 
ATOM     10  C   UNL     1      46.085   3.158   6.492  0.00  0.00    +0.000 C 
ATOM     11  C   UNL     1      47.392   2.654   5.904  0.00  0.00    +0.000 C 
ATOM     12  C   UNL     1      47.699   1.383   6.683  0.00  0.00    +0.000 C 
ATOM     13  N   UNL     1      46.688   1.296   7.740  0.00  0.00    +0.000 NA
ATOM     14  H   UNL     1      47.119   0.991   8.618  0.00  0.00    +0.000 HD
ENDBRANCH   8   9
BRANCH   8  15
ATOM     15  O   UNL     1      44.530   1.359   9.162  0.00  0.00    +0.000 OA
ATOM     16  H   UNL     1      45.398   0.909   9.094  0.00  0.00    +0.000 HD
ENDBRANCH   8  15
ENDBRANCH   5   8
ENDBRANCH   1   2
BRANCH   1  19
ATOM     17  O   UNL     1      45.062   9.267  12.807  0.00  0.00    +0.000 OA
ATOM     18  C   UNL     1      46.072   8.591  12.986  0.00  0.00    +0.000 C 
ATOM     19  N   UNL     1      46.031   7.222  13.032  0.00  0.00    +0.000 N 
ATOM     20  H   UNL     1      46.842   6.717  13.380  0.00  0.00    +0.000 HD
BRANCH  18  21
ATOM     21  C   UNL     1      47.397   9.208  13.117  0.00  0.00    +0.000 A 
ATOM     22  C   UNL     1      47.595  10.515  12.696  0.00  0.00    +0.000 A 
ATOM     23  S   UNL     1      49.198  11.061  12.894  0.00  0.00    +0.000 S 
ATOM     24  C   UNL     1      49.672   9.583  13.591  0.00  0.00    +0.000 A 
ATOM     25  N   UNL     1      50.950   9.389  14.019  0.00  0.00    +0.000 NA
ATOM     26  C   UNL     1      51.159   8.238  14.566  0.00  0.00    +0.000 A 
ATOM     27  N   UNL     1      50.211   7.259  14.715  0.00  0.00    +0.000 N 
ATOM     28  C   UNL     1      48.919   7.396  14.264  0.00  0.00    +0.000 A 
ATOM     29  O   UNL     1      48.108   6.482  14.366  0.00  0.00    +0.000 OA
ATOM     30  C   UNL     1      48.627   8.680  13.658  0.00  0.00    +0.000 A 
ATOM     31  H   UNL     1      50.444   6.373  15.141  0.00  0.00    +0.000 HD
ENDBRANCH  18  21
ENDBRANCH   1  19
TORSDOF 6
ENDMDL
MODEL 8
REMARK VINA RESULT:    -6.524      1.569      2.455
REMARK INTER + INTRA:          -9.596
REMARK INTER:                  -8.890
REMARK INTRA:                  -0.706
REMARK UNBOUND:                -0.975
REMARK  Name = 
REMARK  6 active torsions:
REMARK  status: ('A' for Active; 'I' for Inactive)
REMARK    1  A    between atoms: C_2  and  C_18
REMARK    2  A    between atoms: N_3  and  C_4
REMARK    3  A    between atoms: C_4  and  C_5
REMARK    4  A    between atoms: C_8  and  C_9
REMARK    5  A    between atoms: C_9  and  O_10
REMARK    6  A    between atoms: C_9  and  C_11
REMARK                            x       y       z     vdW  Elec       q    Type
REMARK                         _______ _______ _______ _____ _____    ______ ____
ROOT
ATOM      1  C   UNL     1      46.543   7.441  12.895  0.00  0.00    +0.000 C 
ENDROOT
BRANCH   1   2
ATOM      2  C   UNL     1      46.091   6.325  12.002  0.00  0.00    +0.000 A 
ATOM      3  C   UNL     1      45.467   5.188  12.511  0.00  0.00    +0.000 A 
ATOM      4  C   UNL     1      45.059   4.177  11.642  0.00  0.00    +0.000 A 
ATOM      5  C   UNL     1      45.289   4.319  10.274  0.00  0.00    +0.000 A 
ATOM      6  N   UNL     1      45.852   5.443   9.759  0.00  0.00    +0.000 NA
ATOM      7  C   UNL     1      46.234   6.410  10.625  0.00  0.00    +0.000 A 
BRANCH   5   8
ATOM      8  C   UNL     1      44.882   3.213   9.305  0.00  0.00    +0.000 C 
BRANCH   8   9
ATOM      9  C   UNL     1      46.074   2.669   8.476  0.00  0.00    +0.000 C 
ATOM     10  C   UNL     1      46.023   3.060   7.003  0.00  0.00    +0.000 C 
ATOM     11  C   UNL     1      47.006   2.088   6.371  0.00  0.00    +0.000 C 
ATOM     12  C   UNL     1      46.928   0.843   7.243  0.00  0.00    +0.000 C 
ATOM     13  N   UNL     1      46.063   1.187   8.374  0.00  0.00    +0.000 NA
ATOM     14  H   UNL     1      46.447   0.805   9.243  0.00  0.00    +0.000 HD
ENDBRANCH   8   9
BRANCH   8  15
ATOM     15  O   UNL     1      44.290   2.120  10.031  0.00  0.00    +0.000 OA
ATOM     16  H   UNL     1      44.144   2.493  10.925  0.00  0.00    +0.000 HD
ENDBRANCH   8  15
ENDBRANCH   5   8
ENDBRANCH   1   2
BRANCH   1  19
ATOM     17  O   UNL     1      49.129   6.631  13.491  0.00  0.00    +0.000 OA
ATOM     18  C   UNL     1      48.294   6.619  14.392  0.00  0.00    +0.000 C 
ATOM     19  N   UNL     1      46.980   6.937  14.170  0.00  0.00    +0.000 N 
ATOM     20  H   UNL     1      46.373   7.111  14.967  0.00  0.00    +0.000 HD
BRANCH  18  21
ATOM     21  C   UNL     1      48.644   6.215  15.758  0.00  0.00    +0.000 A 
ATOM     22  C   UNL     1      48.128   5.040  16.286  0.00  0.00    +0.000 A 
ATOM     23  S   UNL     1      48.615   4.741  17.892  0.00  0.00    +0.000 S 
ATOM     24  C   UNL     1      49.568   6.149  17.923  0.00  0.00    +0.000 A 
ATOM     25  N   UNL     1      50.292   6.481  19.028  0.00  0.00    +0.000 NA
ATOM     26  C   UNL     1      51.003   7.552  18.896  0.00  0.00    +0.000 A 
ATOM     27  N   UNL     1      51.050   8.326  17.766  0.00  0.00    +0.000 N 
ATOM     28  C   UNL     1      50.309   8.051  16.641  0.00  0.00    +0.000 A 
ATOM     29  O   UNL     1      50.333   8.792  15.664  0.00  0.00    +0.000 OA
ATOM     30  C   UNL     1      49.506   6.847  16.730  0.00  0.00    +0.000 A 
ATOM     31  H   UNL     1      51.619   9.160  17.733  0.00  0.00    +0.000 HD
ENDBRANCH  18  21
ENDBRANCH   1  19
TORSDOF 6
ENDMDL
MODEL 9
REMARK VINA RESULT:    -6.327      3.972      8.797
REMARK INTER + INTRA:          -9.336
REMARK INTER:                  -7.946
REMARK INTRA:                  -1.390
REMARK UNBOUND:                -0.975
REMARK  Name = 
REMARK  6 active torsions:
REMARK  status: ('A' for Active; 'I' for Inactive)
REMARK    1  A    between atoms: C_2  and  C_18
REMARK    2  A    between atoms: N_3  and  C_4
REMARK    3  A    between atoms: C_4  and  C_5
REMARK    4  A    between atoms: C_8  and  C_9
REMARK    5  A    between atoms: C_9  and  O_10
REMARK    6  A    between atoms: C_9  and  C_11
REMARK                            x       y       z     vdW  Elec       q    Type
REMARK                         _______ _______ _______ _____ _____    ______ ____
ROOT
ATOM      1  C   UNL     1      47.245   3.709  16.954  0.00  0.00    +0.000 C 
ENDROOT
BRANCH   1   2
ATOM      2  C   UNL     1      48.680   3.599  17.374  0.00  0.00    +0.000 A 
ATOM      3  C   UNL     1      49.474   2.520  16.993  0.00  0.00    +0.000 A 
ATOM      4  C   UNL     1      50.804   2.462  17.403  0.00  0.00    +0.000 A 
ATOM      5  C   UNL     1      51.319   3.486  18.198  0.00  0.00    +0.000 A 
ATOM      6  N   UNL     1      50.571   4.569  18.537  0.00  0.00    +0.000 NA
ATOM      7  C   UNL     1      49.284   4.601  18.121  0.00  0.00    +0.000 A 
BRANCH   5   8
ATOM      8  C   UNL     1      52.762   3.430  18.688  0.00  0.00    +0.000 C 
BRANCH   8   9
ATOM      9  C   UNL     1      53.657   4.525  18.054  0.00  0.00    +0.000 C 
ATOM     10  C   UNL     1      54.078   5.616  19.034  0.00  0.00    +0.000 C 
ATOM     11  C   UNL     1      54.547   6.726  18.109  0.00  0.00    +0.000 C 
ATOM     12  C   UNL     1      53.706   6.559  16.851  0.00  0.00    +0.000 C 
ATOM     13  N   UNL     1      52.934   5.327  17.034  0.00  0.00    +0.000 NA
ATOM     14  H   UNL     1      52.913   4.791  16.163  0.00  0.00    +0.000 HD
ENDBRANCH   8   9
BRANCH   8  15
ATOM     15  O   UNL     1      52.799   3.579  20.119  0.00  0.00    +0.000 OA
ATOM     16  H   UNL     1      53.283   2.781  20.419  0.00  0.00    +0.000 HD
ENDBRANCH   8  15
ENDBRANCH   5   8
ENDBRANCH   1   2
BRANCH   1  19
ATOM     17  O   UNL     1      47.276   3.161  14.234  0.00  0.00    +0.000 OA
ATOM     18  C   UNL     1      47.053   4.315  14.592  0.00  0.00    +0.000 C 
ATOM     19  N   UNL     1      47.087   4.686  15.910  0.00  0.00    +0.000 N 
ATOM     20  H   UNL     1      46.703   5.589  16.178  0.00  0.00    +0.000 HD
BRANCH  18  21
ATOM     21  C   UNL     1      46.782   5.381  13.621  0.00  0.00    +0.000 A 
ATOM     22  C   UNL     1      45.645   5.322  12.829  0.00  0.00    +0.000 A 
ATOM     23  S   UNL     1      45.503   6.626  11.739  0.00  0.00    +0.000 S 
ATOM     24  C   UNL     1      46.934   7.338  12.321  0.00  0.00    +0.000 A 
ATOM     25  N   UNL     1      47.382   8.521  11.817  0.00  0.00    +0.000 NA
ATOM     26  C   UNL     1      48.456   8.966  12.380  0.00  0.00    +0.000 A 
ATOM     27  N   UNL     1      49.128   8.334  13.393  0.00  0.00    +0.000 N 
ATOM     28  C   UNL     1      48.734   7.121  13.908  0.00  0.00    +0.000 A 
ATOM     29  O   UNL     1      49.386   6.556  14.779  0.00  0.00    +0.000 OA
ATOM     30  C   UNL     1      47.521   6.585  13.322  0.00  0.00    +0.000 A 
ATOM     31  H   UNL     1      49.972   8.732  13.783  0.00  0.00    +0.000 HD
ENDBRANCH  18  21
ENDBRANCH   1  19
TORSDOF 6
ENDMDL
