MODEL 1
REMARK VINA RESULT:    -8.914      0.000      0.000
REMARK INTER + INTRA:         -11.349
REMARK INTER:                 -10.998
REMARK INTRA:                  -0.351
REMARK UNBOUND:                -0.351
REMARK  Name = 
REMARK  5 active torsions:
REMARK  status: ('A' for Active; 'I' for Inactive)
REMARK    1  A    between atoms: C_1  and  C_2
REMARK    2  A    between atoms: C_4  and  C_5
REMARK    3  A    between atoms: N_10  and  C_11
REMARK    4  A    between atoms: C_11  and  C_12
REMARK    5  A    between atoms: C_17  and  C_18
REMARK                            x       y       z     vdW  Elec       q    Type
REMARK                         _______ _______ _______ _____ _____    ______ ____
ROOT
ATOM      1  C   UNL     1      44.615   6.922  11.497  0.00  0.00    +0.000 C 
ENDROOT
BRANCH   1   8
ATOM      2  C   UNL     1      50.004   8.400  13.664  0.00  0.00    +0.000 C 
ATOM      3  C   UNL     1      48.812   7.495  13.584  0.00  0.00    +0.000 A 
ATOM      4  C   UNL     1      48.660   6.438  14.446  0.00  0.00    +0.000 A 
ATOM      5  C   UNL     1      47.529   5.682  14.248  0.00  0.00    +0.000 A 
ATOM      6  N   UNL     1      46.601   5.918  13.285  0.00  0.00    +0.000 NA
ATOM      7  C   UNL     1      46.842   6.964  12.490  0.00  0.00    +0.000 A 
ATOM      8  N   UNL     1      46.014   7.271  11.433  0.00  0.00    +0.000 N 
ATOM      9  N   UNL     1      47.911   7.763  12.615  0.00  0.00    +0.000 NA
ATOM     10  H   UNL     1      46.231   8.214  11.134  0.00  0.00    +0.000 HD
BRANCH   5  11
ATOM     11  C   UNL     1      47.283   4.507  15.142  0.00  0.00    +0.000 C 
ATOM     12  N   UNL     1      47.077   4.799  16.462  0.00  0.00    +0.000 N 
ATOM     13  O   UNL     1      47.267   3.358  14.727  0.00  0.00    +0.000 OA
ATOM     14  H   UNL     1      47.048   5.764  16.769  0.00  0.00    +0.000 HD
ATOM     15  H   UNL     1      46.879   4.049  17.110  0.00  0.00    +0.000 HD
ENDBRANCH   5  11
ENDBRANCH   1   8
BRANCH   1  16
ATOM     16  C   UNL     1      44.383   5.476  11.117  0.00  0.00    +0.000 A 
ATOM     17  C   UNL     1      43.451   4.685  11.801  0.00  0.00    +0.000 A 
ATOM     18  C   UNL     1      43.257   3.357  11.430  0.00  0.00    +0.000 A 
ATOM     19  C   UNL     1      43.995   2.813  10.381  0.00  0.00    +0.000 A 
ATOM     20  F   UNL     1      43.781   1.520  10.091  0.00  0.00    +0.000 F 
ATOM     21  C   UNL     1      44.933   3.568   9.654  0.00  0.00    +0.000 A 
ATOM     22  C   UNL     1      45.112   4.907  10.057  0.00  0.00    +0.000 A 
BRANCH  21  23
ATOM     23  C   UNL     1      45.695   2.997   8.519  0.00  0.00    +0.000 A 
ATOM     24  C   UNL     1      46.103   3.800   7.434  0.00  0.00    +0.000 A 
ATOM     25  C   UNL     1      46.789   3.268   6.338  0.00  0.00    +0.000 A 
ATOM     26  C   UNL     1      47.107   1.916   6.314  0.00  0.00    +0.000 A 
ATOM     27  C   UNL     1      46.738   1.114   7.384  0.00  0.00    +0.000 A 
ATOM     28  F   UNL     1      47.050  -0.188   7.369  0.00  0.00    +0.000 F 
ATOM     29  C   UNL     1      46.041   1.636   8.473  0.00  0.00    +0.000 A 
ENDBRANCH  21  23
ENDBRANCH   1  16
TORSDOF 4
ENDMDL
MODEL 2
REMARK VINA RESULT:    -8.400      2.719      4.809
REMARK INTER + INTRA:         -10.715
REMARK INTER:                  -9.816
REMARK INTRA:                  -0.899
REMARK UNBOUND:                -0.351
REMARK  Name = 
REMARK  5 active torsions:
REMARK  status: ('A' for Active; 'I' for Inactive)
REMARK    1  A    between atoms: C_1  and  C_2
REMARK    2  A    between atoms: C_4  and  C_5
REMARK    3  A    between atoms: N_10  and  C_11
REMARK    4  A    between atoms: C_11  and  C_12
REMARK    5  A    between atoms: C_17  and  C_18
REMARK                            x       y       z     vdW  Elec       q    Type
REMARK                         _______ _______ _______ _____ _____    ______ ____
ROOT
ATOM      1  C   UNL     1      49.051   6.933  14.308  0.00  0.00    +0.000 C 
ENDROOT
BRANCH   1   8
ATOM      2  C   UNL     1      47.274   5.950  19.947  0.00  0.00    +0.000 C 
ATOM      3  C   UNL     1      47.980   5.539  18.691  0.00  0.00    +0.000 A 
ATOM      4  C   UNL     1      48.474   4.269  18.535  0.00  0.00    +0.000 A 
ATOM      5  C   UNL     1      49.113   4.034  17.340  0.00  0.00    +0.000 A 
ATOM      6  N   UNL     1      49.273   4.956  16.356  0.00  0.00    +0.000 NA
ATOM      7  C   UNL     1      48.766   6.166  16.606  0.00  0.00    +0.000 A 
ATOM      8  N   UNL     1      48.920   7.209  15.719  0.00  0.00    +0.000 N 
ATOM      9  N   UNL     1      48.118   6.483  17.736  0.00  0.00    +0.000 NA
ATOM     10  H   UNL     1      48.262   7.934  15.978  0.00  0.00    +0.000 HD
BRANCH   5  11
ATOM     11  C   UNL     1      49.685   2.675  17.084  0.00  0.00    +0.000 C 
ATOM     12  N   UNL     1      50.705   2.295  17.913  0.00  0.00    +0.000 N 
ATOM     13  O   UNL     1      49.274   1.946  16.194  0.00  0.00    +0.000 OA
ATOM     14  H   UNL     1      50.992   2.900  18.672  0.00  0.00    +0.000 HD
ATOM     15  H   UNL     1      51.113   1.377  17.806  0.00  0.00    +0.000 HD
ENDBRANCH   5  11
ENDBRANCH   1   8
BRANCH   1  16
ATOM     16  C   UNL     1      47.761   7.203  13.565  0.00  0.00    +0.000 A 
ATOM     17  C   UNL     1      47.106   8.436  13.671  0.00  0.00    +0.000 A 
ATOM     18  C   UNL     1      45.920   8.657  12.975  0.00  0.00    +0.000 A 
ATOM     19  C   UNL     1      45.383   7.649  12.176  0.00  0.00    +0.000 A 
ATOM     20  F   UNL     1      44.224   7.916  11.555  0.00  0.00    +0.000 F 
ATOM     21  C   UNL     1      46.010   6.400  12.026  0.00  0.00    +0.000 A 
ATOM     22  C   UNL     1      47.204   6.202  12.747  0.00  0.00    +0.000 A 
BRANCH  21  23
ATOM     23  C   UNL     1      45.454   5.339  11.152  0.00  0.00    +0.000 A 
ATOM     24  C   UNL     1      45.704   5.328   9.765  0.00  0.00    +0.000 A 
ATOM     25  C   UNL     1      45.155   4.356   8.923  0.00  0.00    +0.000 A 
ATOM     26  C   UNL     1      44.358   3.351   9.457  0.00  0.00    +0.000 A 
ATOM     27  C   UNL     1      44.122   3.329  10.824  0.00  0.00    +0.000 A 
ATOM     28  F   UNL     1      43.361   2.358  11.345  0.00  0.00    +0.000 F 
ATOM     29  C   UNL     1      44.655   4.304  11.666  0.00  0.00    +0.000 A 
ENDBRANCH  21  23
ENDBRANCH   1  16
TORSDOF 4
ENDMDL
MODEL 3
REMARK VINA RESULT:    -8.289      2.552      4.557
REMARK INTER + INTRA:         -10.578
REMARK INTER:                  -9.595
REMARK INTRA:                  -0.983
REMARK UNBOUND:                -0.351
REMARK  Name = 
REMARK  5 active torsions:
REMARK  status: ('A' for Active; 'I' for Inactive)
REMARK    1  A    between atoms: C_1  and  C_2
REMARK    2  A    between atoms: C_4  and  C_5
REMARK    3  A    between atoms: N_10  and  C_11
REMARK    4  A    between atoms: C_11  and  C_12
REMARK    5  A    between atoms: C_17  and  C_18
REMARK                            x       y       z     vdW  Elec       q    Type
REMARK                         _______ _______ _______ _____ _____    ______ ____
ROOT
ATOM      1  C   UNL     1      49.393   7.094  13.786  0.00  0.00    +0.000 C 
ENDROOT
BRANCH   1   8
ATOM      2  C   UNL     1      47.607   7.349  19.501  0.00  0.00    +0.000 C 
ATOM      3  C   UNL     1      47.957   6.591  18.256  0.00  0.00    +0.000 A 
ATOM      4  C   UNL     1      47.741   5.240  18.160  0.00  0.00    +0.000 A 
ATOM      5  C   UNL     1      48.124   4.673  16.967  0.00  0.00    +0.000 A 
ATOM      6  N   UNL     1      48.682   5.352  15.932  0.00  0.00    +0.000 NA
ATOM      7  C   UNL     1      48.861   6.661  16.127  0.00  0.00    +0.000 A 
ATOM      8  N   UNL     1      49.478   7.451  15.182  0.00  0.00    +0.000 N 
ATOM      9  N   UNL     1      48.508   7.302  17.250  0.00  0.00    +0.000 NA
ATOM     10  H   UNL     1      49.284   8.418  15.414  0.00  0.00    +0.000 HD
BRANCH   5  11
ATOM     11  C   UNL     1      47.927   3.202  16.774  0.00  0.00    +0.000 C 
ATOM     12  N   UNL     1      47.025   2.609  17.615  0.00  0.00    +0.000 N 
ATOM     13  O   UNL     1      48.529   2.564  15.924  0.00  0.00    +0.000 OA
ATOM     14  H   UNL     1      46.506   3.171  18.278  0.00  0.00    +0.000 HD
ATOM     15  H   UNL     1      46.830   1.622  17.515  0.00  0.00    +0.000 HD
ENDBRANCH   5  11
ENDBRANCH   1   8
BRANCH   1  16
ATOM     16  C   UNL     1      47.999   7.314  13.239  0.00  0.00    +0.000 A 
ATOM     17  C   UNL     1      47.322   8.524  13.439  0.00  0.00    +0.000 A 
ATOM     18  C   UNL     1      46.040   8.699  12.924  0.00  0.00    +0.000 A 
ATOM     19  C   UNL     1      45.430   7.669  12.212  0.00  0.00    +0.000 A 
ATOM     20  F   UNL     1      44.184   7.891  11.766  0.00  0.00    +0.000 F 
ATOM     21  C   UNL     1      46.072   6.441  11.972  0.00  0.00    +0.000 A 
ATOM     22  C   UNL     1      47.365   6.290  12.511  0.00  0.00    +0.000 A 
BRANCH  21  23
ATOM     23  C   UNL     1      45.433   5.356  11.189  0.00  0.00    +0.000 A 
ATOM     24  C   UNL     1      44.620   4.387  11.811  0.00  0.00    +0.000 A 
ATOM     25  C   UNL     1      44.042   3.337  11.092  0.00  0.00    +0.000 A 
ATOM     26  C   UNL     1      44.245   3.245   9.721  0.00  0.00    +0.000 A 
ATOM     27  C   UNL     1      45.021   4.204   9.086  0.00  0.00    +0.000 A 
ATOM     28  F   UNL     1      45.213   4.125   7.763  0.00  0.00    +0.000 F 
ATOM     29  C   UNL     1      45.611   5.246   9.800  0.00  0.00    +0.000 A 
ENDBRANCH  21  23
ENDBRANCH   1  16
TORSDOF 4
ENDMDL
MODEL 4
REMARK VINA RESULT:    -7.775      3.297      7.249
REMARK INTER + INTRA:          -9.943
REMARK INTER:                  -9.098
REMARK INTRA:                  -0.845
REMARK UNBOUND:                -0.351
REMARK  Name = 
REMARK  5 active torsions:
REMARK  status: ('A' for Active; 'I' for Inactive)
REMARK    1  A    between atoms: C_1  and  C_2
REMARK    2  A    between atoms: C_4  and  C_5
REMARK    3  A    between atoms: N_10  and  C_11
REMARK    4  A    between atoms: C_11  and  C_12
REMARK    5  A    between atoms: C_17  and  C_18
REMARK                            x       y       z     vdW  Elec       q    Type
REMARK                         _______ _______ _______ _____ _____    ______ ____
ROOT
ATOM      1  C   UNL     1      45.301   7.505  11.769  0.00  0.00    +0.000 C 
ENDROOT
BRANCH   1   8
ATOM      2  C   UNL     1      46.038   3.300   7.562  0.00  0.00    +0.000 C 
ATOM      3  C   UNL     1      45.450   3.798   8.847  0.00  0.00    +0.000 A 
ATOM      4  C   UNL     1      44.746   2.964   9.679  0.00  0.00    +0.000 A 
ATOM      5  C   UNL     1      44.250   3.558  10.816  0.00  0.00    +0.000 A 
ATOM      6  N   UNL     1      44.413   4.867  11.138  0.00  0.00    +0.000 NA
ATOM      7  C   UNL     1      45.104   5.598  10.260  0.00  0.00    +0.000 A 
ATOM      8  N   UNL     1      45.283   6.953  10.435  0.00  0.00    +0.000 N 
ATOM      9  N   UNL     1      45.634   5.104   9.133  0.00  0.00    +0.000 NA
ATOM     10  H   UNL     1      46.025   7.249   9.813  0.00  0.00    +0.000 HD
BRANCH   5  11
ATOM     11  C   UNL     1      43.467   2.723  11.780  0.00  0.00    +0.000 C 
ATOM     12  N   UNL     1      43.507   3.129  13.085  0.00  0.00    +0.000 N 
ATOM     13  O   UNL     1      42.831   1.739  11.432  0.00  0.00    +0.000 OA
ATOM     14  H   UNL     1      44.003   3.975  13.337  0.00  0.00    +0.000 HD
ATOM     15  H   UNL     1      42.976   2.620  13.778  0.00  0.00    +0.000 HD
ENDBRANCH   5  11
ENDBRANCH   1   8
BRANCH   1  16
ATOM     16  C   UNL     1      46.674   7.402  12.395  0.00  0.00    +0.000 A 
ATOM     17  C   UNL     1      47.796   7.980  11.788  0.00  0.00    +0.000 A 
ATOM     18  C   UNL     1      49.048   7.870  12.387  0.00  0.00    +0.000 A 
ATOM     19  C   UNL     1      49.186   7.180  13.590  0.00  0.00    +0.000 A 
ATOM     20  F   UNL     1      50.423   7.087  14.101  0.00  0.00    +0.000 F 
ATOM     21  C   UNL     1      48.089   6.594  14.247  0.00  0.00    +0.000 A 
ATOM     22  C   UNL     1      46.836   6.715  13.613  0.00  0.00    +0.000 A 
BRANCH  21  23
ATOM     23  C   UNL     1      48.232   5.887  15.542  0.00  0.00    +0.000 A 
ATOM     24  C   UNL     1      49.019   6.418  16.583  0.00  0.00    +0.000 A 
ATOM     25  C   UNL     1      49.194   5.744  17.795  0.00  0.00    +0.000 A 
ATOM     26  C   UNL     1      48.559   4.526  18.004  0.00  0.00    +0.000 A 
ATOM     27  C   UNL     1      47.759   3.998  17.001  0.00  0.00    +0.000 A 
ATOM     28  F   UNL     1      47.138   2.829  17.201  0.00  0.00    +0.000 F 
ATOM     29  C   UNL     1      47.592   4.660  15.786  0.00  0.00    +0.000 A 
ENDBRANCH  21  23
ENDBRANCH   1  16
TORSDOF 4
ENDMDL
MODEL 5
REMARK VINA RESULT:    -7.538      2.050      2.880
REMARK INTER + INTRA:          -9.652
REMARK INTER:                  -9.076
REMARK INTRA:                  -0.576
REMARK UNBOUND:                -0.351
REMARK  Name = 
REMARK  5 active torsions:
REMARK  status: ('A' for Active; 'I' for Inactive)
REMARK    1  A    between atoms: C_1  and  C_2
REMARK    2  A    between atoms: C_4  and  C_5
REMARK    3  A    between atoms: N_10  and  C_11
REMARK    4  A    between atoms: C_11  and  C_12
REMARK    5  A    between atoms: C_17  and  C_18
REMARK                            x       y       z     vdW  Elec       q    Type
REMARK                         _______ _______ _______ _____ _____    ______ ____
ROOT
ATOM      1  C   UNL     1      45.641   7.843  11.914  0.00  0.00    +0.000 C 
ENDROOT
BRANCH   1   8
ATOM      2  C   UNL     1      49.319   6.611  16.483  0.00  0.00    +0.000 C 
ATOM      3  C   UNL     1      49.051   7.127  15.102  0.00  0.00    +0.000 A 
ATOM      4  C   UNL     1      50.076   7.466  14.256  0.00  0.00    +0.000 A 
ATOM      5  C   UNL     1      49.685   7.940  13.026  0.00  0.00    +0.000 A 
ATOM      6  N   UNL     1      48.394   8.085  12.629  0.00  0.00    +0.000 NA
ATOM      7  C   UNL     1      47.468   7.737  13.527  0.00  0.00    +0.000 A 
ATOM      8  N   UNL     1      46.124   7.899  13.274  0.00  0.00    +0.000 N 
ATOM      9  N   UNL     1      47.755   7.255  14.744  0.00  0.00    +0.000 NA
ATOM     10  H   UNL     1      45.613   7.353  13.957  0.00  0.00    +0.000 HD
BRANCH   5  11
ATOM     11  C   UNL     1      50.738   8.335  12.039  0.00  0.00    +0.000 C 
ATOM     12  N   UNL     1      50.679   7.709  10.825  0.00  0.00    +0.000 N 
ATOM     13  O   UNL     1      51.600   9.163  12.295  0.00  0.00    +0.000 OA
ATOM     14  H   UNL     1      49.926   7.063  10.625  0.00  0.00    +0.000 HD
ATOM     15  H   UNL     1      51.348   7.955  10.108  0.00  0.00    +0.000 HD
ENDBRANCH   5  11
ENDBRANCH   1   8
BRANCH   1  16
ATOM     16  C   UNL     1      45.028   6.498  11.595  0.00  0.00    +0.000 A 
ATOM     17  C   UNL     1      43.936   6.006  12.321  0.00  0.00    +0.000 A 
ATOM     18  C   UNL     1      43.391   4.764  12.005  0.00  0.00    +0.000 A 
ATOM     19  C   UNL     1      43.936   4.008  10.969  0.00  0.00    +0.000 A 
ATOM     20  F   UNL     1      43.383   2.808  10.734  0.00  0.00    +0.000 F 
ATOM     21  C   UNL     1      45.023   4.462  10.202  0.00  0.00    +0.000 A 
ATOM     22  C   UNL     1      45.558   5.719  10.549  0.00  0.00    +0.000 A 
BRANCH  21  23
ATOM     23  C   UNL     1      45.583   3.671   9.081  0.00  0.00    +0.000 A 
ATOM     24  C   UNL     1      46.127   4.299   7.942  0.00  0.00    +0.000 A 
ATOM     25  C   UNL     1      46.624   3.565   6.860  0.00  0.00    +0.000 A 
ATOM     26  C   UNL     1      46.611   2.177   6.905  0.00  0.00    +0.000 A 
ATOM     27  C   UNL     1      46.104   1.540   8.028  0.00  0.00    +0.000 A 
ATOM     28  F   UNL     1      46.097   0.202   8.079  0.00  0.00    +0.000 F 
ATOM     29  C   UNL     1      45.594   2.266   9.103  0.00  0.00    +0.000 A 
ENDBRANCH  21  23
ENDBRANCH   1  16
TORSDOF 4
ENDMDL
MODEL 6
REMARK VINA RESULT:    -7.526      5.323      8.693
REMARK INTER + INTRA:          -9.636
REMARK INTER:                  -9.133
REMARK INTRA:                  -0.503
REMARK UNBOUND:                -0.351
REMARK  Name = 
REMARK  5 active torsions:
REMARK  status: ('A' for Active; 'I' for Inactive)
REMARK    1  A    between atoms: C_1  and  C_2
REMARK    2  A    between atoms: C_4  and  C_5
REMARK    3  A    between atoms: N_10  and  C_11
REMARK    4  A    between atoms: C_11  and  C_12
REMARK    5  A    between atoms: C_17  and  C_18
REMARK                            x       y       z     vdW  Elec       q    Type
REMARK                         _______ _______ _______ _____ _____    ______ ____
ROOT
ATOM      1  C   UNL     1      47.096   3.704  15.141  0.00  0.00    +0.000 C 
ENDROOT
BRANCH   1   8
ATOM      2  C   UNL     1      44.783   7.793  11.418  0.00  0.00    +0.000 C 
ATOM      3  C   UNL     1      44.925   6.387  11.917  0.00  0.00    +0.000 A 
ATOM      4  C   UNL     1      44.369   5.331  11.241  0.00  0.00    +0.000 A 
ATOM      5  C   UNL     1      44.563   4.099  11.820  0.00  0.00    +0.000 A 
ATOM      6  N   UNL     1      45.244   3.888  12.976  0.00  0.00    +0.000 NA
ATOM      7  C   UNL     1      45.740   4.980  13.565  0.00  0.00    +0.000 A 
ATOM      8  N   UNL     1      46.392   4.911  14.776  0.00  0.00    +0.000 N 
ATOM      9  N   UNL     1      45.610   6.218  13.068  0.00  0.00    +0.000 NA
ATOM     10  H   UNL     1      46.892   5.782  14.908  0.00  0.00    +0.000 HD
BRANCH   5  11
ATOM     11  C   UNL     1      43.989   2.890  11.151  0.00  0.00    +0.000 C 
ATOM     12  N   UNL     1      44.715   2.389  10.106  0.00  0.00    +0.000 N 
ATOM     13  O   UNL     1      42.938   2.379  11.508  0.00  0.00    +0.000 OA
ATOM     14  H   UNL     1      45.606   2.805   9.863  0.00  0.00    +0.000 HD
ATOM     15  H   UNL     1      44.391   1.557   9.632  0.00  0.00    +0.000 HD
ENDBRANCH   5  11
ENDBRANCH   1   8
BRANCH   1  16
ATOM     16  C   UNL     1      47.876   3.880  16.425  0.00  0.00    +0.000 A 
ATOM     17  C   UNL     1      47.355   4.614  17.498  0.00  0.00    +0.000 A 
ATOM     18  C   UNL     1      48.095   4.760  18.668  0.00  0.00    +0.000 A 
ATOM     19  C   UNL     1      49.357   4.178  18.770  0.00  0.00    +0.000 A 
ATOM     20  F   UNL     1      50.030   4.379  19.914  0.00  0.00    +0.000 F 
ATOM     21  C   UNL     1      49.920   3.421  17.727  0.00  0.00    +0.000 A 
ATOM     22  C   UNL     1      49.151   3.297  16.553  0.00  0.00    +0.000 A 
BRANCH  21  23
ATOM     23  C   UNL     1      51.250   2.778  17.848  0.00  0.00    +0.000 A 
ATOM     24  C   UNL     1      51.440   1.422  17.512  0.00  0.00    +0.000 A 
ATOM     25  C   UNL     1      52.680   0.792  17.657  0.00  0.00    +0.000 A 
ATOM     26  C   UNL     1      53.771   1.516  18.120  0.00  0.00    +0.000 A 
ATOM     27  C   UNL     1      53.611   2.858  18.431  0.00  0.00    +0.000 A 
ATOM     28  F   UNL     1      54.661   3.563  18.870  0.00  0.00    +0.000 F 
ATOM     29  C   UNL     1      52.374   3.488  18.302  0.00  0.00    +0.000 A 
ENDBRANCH  21  23
ENDBRANCH   1  16
TORSDOF 4
ENDMDL
MODEL 7
REMARK VINA RESULT:    -7.272      3.170      4.681
REMARK INTER + INTRA:          -9.323
REMARK INTER:                  -8.571
REMARK INTRA:                  -0.752
REMARK UNBOUND:                -0.351
REMARK  Name = 
REMARK  5 active torsions:
REMARK  status: ('A' for Active; 'I' for Inactive)
REMARK    1  A    between atoms: C_1  and  C_2
REMARK    2  A    between atoms: C_4  and  C_5
REMARK    3  A    between atoms: N_10  and  C_11
REMARK    4  A    between atoms: C_11  and  C_12
REMARK    5  A    between atoms: C_17  and  C_18
REMARK                            x       y       z     vdW  Elec       q    Type
REMARK                         _______ _______ _______ _____ _____    ______ ____
ROOT
ATOM      1  C   UNL     1      48.583   6.973  14.126  0.00  0.00    +0.000 C 
ENDROOT
BRANCH   1   8
ATOM      2  C   UNL     1      47.831   7.507  20.048  0.00  0.00    +0.000 C 
ATOM      3  C   UNL     1      48.522   6.934  18.848  0.00  0.00    +0.000 A 
ATOM      4  C   UNL     1      49.441   5.923  18.970  0.00  0.00    +0.000 A 
ATOM      5  C   UNL     1      50.008   5.506  17.788  0.00  0.00    +0.000 A 
ATOM      6  N   UNL     1      49.719   6.024  16.567  0.00  0.00    +0.000 NA
ATOM      7  C   UNL     1      48.819   7.011  16.554  0.00  0.00    +0.000 A 
ATOM      8  N   UNL     1      48.487   7.667  15.389  0.00  0.00    +0.000 N 
ATOM      9  N   UNL     1      48.207   7.475  17.652  0.00  0.00    +0.000 NA
ATOM     10  H   UNL     1      47.632   8.182  15.557  0.00  0.00    +0.000 HD
BRANCH   5  11
ATOM     11  C   UNL     1      51.023   4.407  17.827  0.00  0.00    +0.000 C 
ATOM     12  N   UNL     1      50.695   3.322  18.594  0.00  0.00    +0.000 N 
ATOM     13  O   UNL     1      52.080   4.467  17.217  0.00  0.00    +0.000 OA
ATOM     14  H   UNL     1      49.792   3.279  19.049  0.00  0.00    +0.000 HD
ATOM     15  H   UNL     1      51.330   2.537  18.637  0.00  0.00    +0.000 HD
ENDBRANCH   5  11
ENDBRANCH   1   8
BRANCH   1  16
ATOM     16  C   UNL     1      47.332   7.155  13.295  0.00  0.00    +0.000 A 
ATOM     17  C   UNL     1      46.620   8.361  13.307  0.00  0.00    +0.000 A 
ATOM     18  C   UNL     1      45.472   8.501  12.531  0.00  0.00    +0.000 A 
ATOM     19  C   UNL     1      45.030   7.439  11.744  0.00  0.00    +0.000 A 
ATOM     20  F   UNL     1      43.903   7.629  11.042  0.00  0.00    +0.000 F 
ATOM     21  C   UNL     1      45.716   6.213  11.686  0.00  0.00    +0.000 A 
ATOM     22  C   UNL     1      46.870   6.098  12.488  0.00  0.00    +0.000 A 
BRANCH  21  23
ATOM     23  C   UNL     1      45.262   5.094  10.827  0.00  0.00    +0.000 A 
ATOM     24  C   UNL     1      44.447   4.064  11.338  0.00  0.00    +0.000 A 
ATOM     25  C   UNL     1      44.042   2.982  10.550  0.00  0.00    +0.000 A 
ATOM     26  C   UNL     1      44.425   2.920   9.216  0.00  0.00    +0.000 A 
ATOM     27  C   UNL     1      45.205   3.938   8.687  0.00  0.00    +0.000 A 
ATOM     28  F   UNL     1      45.570   3.887   7.400  0.00  0.00    +0.000 F 
ATOM     29  C   UNL     1      45.623   5.011   9.472  0.00  0.00    +0.000 A 
ENDBRANCH  21  23
ENDBRANCH   1  16
TORSDOF 4
ENDMDL
MODEL 8
REMARK VINA RESULT:    -7.244      4.200      6.194
REMARK INTER + INTRA:          -9.289
REMARK INTER:                  -9.060
REMARK INTRA:                  -0.229
REMARK UNBOUND:                -0.351
REMARK  Name = 
REMARK  5 active torsions:
REMARK  status: ('A' for Active; 'I' for Inactive)
REMARK    1  A    between atoms: C_1  and  C_2
REMARK    2  A    between atoms: C_4  and  C_5
REMARK    3  A    between atoms: N_10  and  C_11
REMARK    4  A    between atoms: C_11  and  C_12
REMARK    5  A    between atoms: C_17  and  C_18
REMARK                            x       y       z     vdW  Elec       q    Type
REMARK                         _______ _______ _______ _____ _____    ______ ____
ROOT
ATOM      1  C   UNL     1      46.898   4.441  14.270  0.00  0.00    +0.000 C 
ENDROOT
BRANCH   1   8
ATOM      2  C   UNL     1      47.952   5.526  20.070  0.00  0.00    +0.000 C 
ATOM      3  C   UNL     1      48.273   4.854  18.769  0.00  0.00    +0.000 A 
ATOM      4  C   UNL     1      49.232   3.876  18.690  0.00  0.00    +0.000 A 
ATOM      5  C   UNL     1      49.433   3.358  17.432  0.00  0.00    +0.000 A 
ATOM      6  N   UNL     1      48.764   3.751  16.318  0.00  0.00    +0.000 NA
ATOM      7  C   UNL     1      47.857   4.715  16.496  0.00  0.00    +0.000 A 
ATOM      8  N   UNL     1      47.157   5.250  15.437  0.00  0.00    +0.000 N 
ATOM      9  N   UNL     1      47.585   5.271  17.685  0.00  0.00    +0.000 NA
ATOM     10  H   UNL     1      46.370   5.763  15.814  0.00  0.00    +0.000 HD
BRANCH   5  11
ATOM     11  C   UNL     1      50.463   2.287  17.252  0.00  0.00    +0.000 C 
ATOM     12  N   UNL     1      51.515   2.323  18.125  0.00  0.00    +0.000 N 
ATOM     13  O   UNL     1      50.377   1.433  16.382  0.00  0.00    +0.000 OA
ATOM     14  H   UNL     1      51.535   3.013  18.865  0.00  0.00    +0.000 HD
ATOM     15  H   UNL     1      52.228   1.609  18.070  0.00  0.00    +0.000 HD
ENDBRANCH   5  11
ENDBRANCH   1   8
BRANCH   1  16
ATOM     16  C   UNL     1      45.821   5.047  13.399  0.00  0.00    +0.000 A 
ATOM     17  C   UNL     1      44.711   4.298  12.986  0.00  0.00    +0.000 A 
ATOM     18  C   UNL     1      43.734   4.882  12.185  0.00  0.00    +0.000 A 
ATOM     19  C   UNL     1      43.862   6.212  11.789  0.00  0.00    +0.000 A 
ATOM     20  F   UNL     1      42.901   6.707  10.994  0.00  0.00    +0.000 F 
ATOM     21  C   UNL     1      44.949   7.011  12.187  0.00  0.00    +0.000 A 
ATOM     22  C   UNL     1      45.926   6.390  12.992  0.00  0.00    +0.000 A 
BRANCH  21  23
ATOM     23  C   UNL     1      45.069   8.434  11.790  0.00  0.00    +0.000 A 
ATOM     24  C   UNL     1      46.176   9.212  12.186  0.00  0.00    +0.000 A 
ATOM     25  C   UNL     1      46.284  10.566  11.851  0.00  0.00    +0.000 A 
ATOM     26  C   UNL     1      45.293  11.168  11.087  0.00  0.00    +0.000 A 
ATOM     27  C   UNL     1      44.209  10.412  10.665  0.00  0.00    +0.000 A 
ATOM     28  F   UNL     1      43.255  10.987   9.921  0.00  0.00    +0.000 F 
ATOM     29  C   UNL     1      44.089   9.066  11.008  0.00  0.00    +0.000 A 
ENDBRANCH  21  23
ENDBRANCH   1  16
TORSDOF 4
ENDMDL
MODEL 9
REMARK VINA RESULT:    -7.220      5.191      9.105
REMARK INTER + INTRA:          -9.259
REMARK INTER:                  -8.401
REMARK INTRA:                  -0.857
REMARK UNBOUND:                -0.351
REMARK  Name = 
REMARK  5 active torsions:
REMARK  status: ('A' for Active; 'I' for Inactive)
REMARK    1  A    between atoms: C_1  and  C_2
REMARK    2  A    between atoms: C_4  and  C_5
REMARK    3  A    between atoms: N_10  and  C_11
REMARK    4  A    between atoms: C_11  and  C_12
REMARK    5  A    between atoms: C_17  and  C_18
REMARK                            x       y       z     vdW  Elec       q    Type
REMARK                         _______ _______ _______ _____ _____    ______ ____
ROOT
ATOM      1  C   UNL     1      47.254   3.815  16.551  0.00  0.00    +0.000 C 
ENDROOT
BRANCH   1   8
ATOM      2  C   UNL     1      47.471   7.351  11.716  0.00  0.00    +0.000 C 
ATOM      3  C   UNL     1      46.919   6.186  12.480  0.00  0.00    +0.000 A 
ATOM      4  C   UNL     1      46.055   5.296  11.896  0.00  0.00    +0.000 A 
ATOM      5  C   UNL     1      45.615   4.285  12.718  0.00  0.00    +0.000 A 
ATOM      6  N   UNL     1      45.975   4.135  14.019  0.00  0.00    +0.000 NA
ATOM      7  C   UNL     1      46.812   5.059  14.499  0.00  0.00    +0.000 A 
ATOM      8  N   UNL     1      47.201   5.060  15.820  0.00  0.00    +0.000 N 
ATOM      9  N   UNL     1      47.302   6.071  13.770  0.00  0.00    +0.000 NA
ATOM     10  H   UNL     1      48.008   5.667  15.904  0.00  0.00    +0.000 HD
BRANCH   5  11
ATOM     11  C   UNL     1      44.667   3.268  12.164  0.00  0.00    +0.000 C 
ATOM     12  N   UNL     1      44.909   2.870  10.878  0.00  0.00    +0.000 N 
ATOM     13  O   UNL     1      43.734   2.818  12.811  0.00  0.00    +0.000 OA
ATOM     14  H   UNL     1      45.718   3.224  10.382  0.00  0.00    +0.000 HD
ATOM     15  H   UNL     1      44.319   2.165  10.459  0.00  0.00    +0.000 HD
ENDBRANCH   5  11
ENDBRANCH   1   8
BRANCH   1  16
ATOM     16  C   UNL     1      48.676   3.430  16.893  0.00  0.00    +0.000 A 
ATOM     17  C   UNL     1      49.143   2.124  16.697  0.00  0.00    +0.000 A 
ATOM     18  C   UNL     1      50.457   1.797  17.021  0.00  0.00    +0.000 A 
ATOM     19  C   UNL     1      51.307   2.769  17.545  0.00  0.00    +0.000 A 
ATOM     20  F   UNL     1      52.553   2.383  17.862  0.00  0.00    +0.000 F 
ATOM     21  C   UNL     1      50.891   4.097  17.748  0.00  0.00    +0.000 A 
ATOM     22  C   UNL     1      49.554   4.396  17.418  0.00  0.00    +0.000 A 
BRANCH  21  23
ATOM     23  C   UNL     1      51.805   5.137  18.278  0.00  0.00    +0.000 A 
ATOM     24  C   UNL     1      51.905   5.386  19.662  0.00  0.00    +0.000 A 
ATOM     25  C   UNL     1      52.734   6.390  20.173  0.00  0.00    +0.000 A 
ATOM     26  C   UNL     1      53.504   7.156  19.307  0.00  0.00    +0.000 A 
ATOM     27  C   UNL     1      53.440   6.908  17.944  0.00  0.00    +0.000 A 
ATOM     28  F   UNL     1      54.187   7.638  17.106  0.00  0.00    +0.000 F 
ATOM     29  C   UNL     1      52.605   5.918  17.427  0.00  0.00    +0.000 A 
ENDBRANCH  21  23
ENDBRANCH   1  16
TORSDOF 4
ENDMDL
