MODEL 1
REMARK VINA RESULT:    -8.032      0.000      0.000
REMARK INTER + INTRA:         -11.578
REMARK INTER:                 -10.849
REMARK INTRA:                  -0.729
REMARK UNBOUND:                -0.729
REMARK  Name = 
REMARK  7 active torsions:
REMARK  status: ('A' for Active; 'I' for Inactive)
REMARK    1  A    between atoms: C_1  and  C_2
REMARK    2  A    between atoms: C_2  and  C_3
REMARK    3  A    between atoms: C_2  and  C_17
REMARK    4  A    between atoms: C_3  and  N_4
REMARK    5  A    between atoms: N_4  and  C_5
REMARK    6  A    between atoms: C_8  and  C_9
REMARK    7  A    between atoms: C_13  and  N_14
REMARK                            x       y       z     vdW  Elec       q    Type
REMARK                         _______ _______ _______ _____ _____    ______ ____
ROOT
ATOM      1  C   UNL     1      44.787   5.160  11.075  0.00  0.00    +0.000 A 
ATOM      2  N   UNL     1      45.798   5.913  10.570  0.00  0.00    +0.000 NA
ATOM      3  C   UNL     1      46.702   6.475  11.412  0.00  0.00    +0.000 A 
ATOM      4  C   UNL     1      46.670   6.330  12.784  0.00  0.00    +0.000 A 
ATOM      5  C   UNL     1      45.622   5.578  13.318  0.00  0.00    +0.000 A 
ATOM      6  C   UNL     1      44.668   4.999  12.462  0.00  0.00    +0.000 A 
ENDROOT
BRANCH   4   7
ATOM      7  C   UNL     1      47.685   6.900  13.701  0.00  0.00    +0.000 C 
ATOM      8  N   UNL     1      47.466   8.121  14.266  0.00  0.00    +0.000 N 
ATOM      9  O   UNL     1      48.721   6.290  13.940  0.00  0.00    +0.000 OA
ATOM     10  H   UNL     1      46.666   8.717  14.128  0.00  0.00    +0.000 HD
ATOM     11  H   UNL     1      48.207   8.474  14.866  0.00  0.00    +0.000 HD
ENDBRANCH   4   7
BRANCH   6  12
ATOM     12  N   UNL     1      43.624   4.164  13.062  0.00  0.00    +0.000 N 
ATOM     13  O   UNL     1      42.679   4.718  13.641  0.00  0.00    +0.000 OA
ATOM     14  O   UNL     1      43.720   2.936  12.919  0.00  0.00    +0.000 OA
ENDBRANCH   6  12
BRANCH   1  15
ATOM     15  N   UNL     1      43.846   4.683  10.155  0.00  0.00    +0.000 N 
ATOM     16  H   UNL     1      43.397   3.826  10.490  0.00  0.00    +0.000 HD
BRANCH  15  17
ATOM     17  C   UNL     1      44.354   4.505   8.799  0.00  0.00    +0.000 C 
BRANCH  17  19
ATOM     18  C   UNL     1      44.231   2.098   9.682  0.00  0.00    +0.000 C 
ATOM     19  C   UNL     1      44.748   3.066   8.662  0.00  0.00    +0.000 C 
BRANCH  19  20
ATOM     20  C   UNL     1      45.825   2.661   7.744  0.00  0.00    +0.000 A 
ATOM     21  C   UNL     1      46.549   1.478   7.940  0.00  0.00    +0.000 A 
ATOM     22  C   UNL     1      47.577   1.118   7.062  0.00  0.00    +0.000 A 
ATOM     23  C   UNL     1      47.885   1.931   5.975  0.00  0.00    +0.000 A 
ATOM     24  C   UNL     1      47.169   3.106   5.763  0.00  0.00    +0.000 A 
ATOM     25  C   UNL     1      46.149   3.469   6.645  0.00  0.00    +0.000 A 
ENDBRANCH  19  20
ENDBRANCH  17  19
ENDBRANCH  15  17
ENDBRANCH   1  15
TORSDOF 6
ENDMDL
MODEL 2
REMARK VINA RESULT:    -7.851      1.462      2.015
REMARK INTER + INTRA:         -11.335
REMARK INTER:                 -10.524
REMARK INTRA:                  -0.811
REMARK UNBOUND:                -0.729
REMARK  Name = 
REMARK  7 active torsions:
REMARK  status: ('A' for Active; 'I' for Inactive)
REMARK    1  A    between atoms: C_1  and  C_2
REMARK    2  A    between atoms: C_2  and  C_3
REMARK    3  A    between atoms: C_2  and  C_17
REMARK    4  A    between atoms: C_3  and  N_4
REMARK    5  A    between atoms: N_4  and  C_5
REMARK    6  A    between atoms: C_8  and  C_9
REMARK    7  A    between atoms: C_13  and  N_14
REMARK                            x       y       z     vdW  Elec       q    Type
REMARK                         _______ _______ _______ _____ _____    ______ ____
ROOT
ATOM      1  C   UNL     1      45.709   5.750  11.770  0.00  0.00    +0.000 A 
ATOM      2  N   UNL     1      45.711   7.066  11.432  0.00  0.00    +0.000 NA
ATOM      3  C   UNL     1      46.404   7.953  12.191  0.00  0.00    +0.000 A 
ATOM      4  C   UNL     1      47.130   7.606  13.312  0.00  0.00    +0.000 A 
ATOM      5  C   UNL     1      47.116   6.261  13.684  0.00  0.00    +0.000 A 
ATOM      6  C   UNL     1      46.394   5.328  12.918  0.00  0.00    +0.000 A 
ENDROOT
BRANCH   4   7
ATOM      7  C   UNL     1      47.928   8.565  14.111  0.00  0.00    +0.000 C 
ATOM      8  N   UNL     1      47.458   8.983  15.320  0.00  0.00    +0.000 N 
ATOM      9  O   UNL     1      48.995   8.993  13.686  0.00  0.00    +0.000 OA
ATOM     10  H   UNL     1      46.590   8.714  15.758  0.00  0.00    +0.000 HD
ATOM     11  H   UNL     1      48.033   9.660  15.813  0.00  0.00    +0.000 HD
ENDBRANCH   4   7
BRANCH   6  12
ATOM     12  N   UNL     1      46.461   3.917  13.309  0.00  0.00    +0.000 N 
ATOM     13  O   UNL     1      45.463   3.204  13.137  0.00  0.00    +0.000 OA
ATOM     14  O   UNL     1      47.538   3.499  13.758  0.00  0.00    +0.000 OA
ENDBRANCH   6  12
BRANCH   1  15
ATOM     15  N   UNL     1      44.906   4.908  10.992  0.00  0.00    +0.000 N 
ATOM     16  H   UNL     1      44.857   3.966  11.390  0.00  0.00    +0.000 HD
BRANCH  15  17
ATOM     17  C   UNL     1      45.267   4.854   9.580  0.00  0.00    +0.000 C 
BRANCH  17  19
ATOM     18  C   UNL     1      44.194   2.556   9.970  0.00  0.00    +0.000 C 
ATOM     19  C   UNL     1      45.056   3.442   9.125  0.00  0.00    +0.000 C 
BRANCH  19  20
ATOM     20  C   UNL     1      45.884   2.860   8.056  0.00  0.00    +0.000 A 
ATOM     21  C   UNL     1      46.231   3.595   6.916  0.00  0.00    +0.000 A 
ATOM     22  C   UNL     1      47.009   3.019   5.906  0.00  0.00    +0.000 A 
ATOM     23  C   UNL     1      47.455   1.707   6.029  0.00  0.00    +0.000 A 
ATOM     24  C   UNL     1      47.123   0.966   7.160  0.00  0.00    +0.000 A 
ATOM     25  C   UNL     1      46.340   1.539   8.163  0.00  0.00    +0.000 A 
ENDBRANCH  19  20
ENDBRANCH  17  19
ENDBRANCH  15  17
ENDBRANCH   1  15
TORSDOF 6
ENDMDL
MODEL 3
REMARK VINA RESULT:    -7.836      1.600      2.066
REMARK INTER + INTRA:         -11.314
REMARK INTER:                 -10.444
REMARK INTRA:                  -0.870
REMARK UNBOUND:                -0.729
REMARK  Name = 
REMARK  7 active torsions:
REMARK  status: ('A' for Active; 'I' for Inactive)
REMARK    1  A    between atoms: C_1  and  C_2
REMARK    2  A    between atoms: C_2  and  C_3
REMARK    3  A    between atoms: C_2  and  C_17
REMARK    4  A    between atoms: C_3  and  N_4
REMARK    5  A    between atoms: N_4  and  C_5
REMARK    6  A    between atoms: C_8  and  C_9
REMARK    7  A    between atoms: C_13  and  N_14
REMARK                            x       y       z     vdW  Elec       q    Type
REMARK                         _______ _______ _______ _____ _____    ______ ____
ROOT
ATOM      1  C   UNL     1      44.607   3.709  12.075  0.00  0.00    +0.000 A 
ATOM      2  N   UNL     1      45.580   2.906  12.577  0.00  0.00    +0.000 NA
ATOM      3  C   UNL     1      46.509   3.423  13.420  0.00  0.00    +0.000 A 
ATOM      4  C   UNL     1      46.537   4.744  13.820  0.00  0.00    +0.000 A 
ATOM      5  C   UNL     1      45.557   5.586  13.292  0.00  0.00    +0.000 A 
ATOM      6  C   UNL     1      44.593   5.071  12.406  0.00  0.00    +0.000 A 
ENDROOT
BRANCH   4   7
ATOM      7  C   UNL     1      47.519   5.298  14.780  0.00  0.00    +0.000 C 
ATOM      8  N   UNL     1      47.386   5.021  16.108  0.00  0.00    +0.000 N 
ATOM      9  O   UNL     1      48.435   6.014  14.392  0.00  0.00    +0.000 OA
ATOM     10  H   UNL     1      46.666   4.464  16.541  0.00  0.00    +0.000 HD
ATOM     11  H   UNL     1      48.073   5.448  16.724  0.00  0.00    +0.000 HD
ENDBRANCH   4   7
BRANCH   6  12
ATOM     12  N   UNL     1      43.544   5.977  11.928  0.00  0.00    +0.000 N 
ATOM     13  O   UNL     1      43.878   7.036  11.379  0.00  0.00    +0.000 OA
ATOM     14  O   UNL     1      42.368   5.612  12.064  0.00  0.00    +0.000 OA
ENDBRANCH   6  12
BRANCH   1  15
ATOM     15  N   UNL     1      43.736   3.127  11.147  0.00  0.00    +0.000 N 
ATOM     16  H   UNL     1      42.979   2.618  11.613  0.00  0.00    +0.000 HD
BRANCH  15  17
ATOM     17  C   UNL     1      44.383   2.287  10.145  0.00  0.00    +0.000 C 
BRANCH  17  19
ATOM     18  C   UNL     1      44.055   4.446   8.797  0.00  0.00    +0.000 C 
ATOM     19  C   UNL     1      44.835   3.191   9.039  0.00  0.00    +0.000 C 
BRANCH  19  20
ATOM     20  C   UNL     1      45.821   2.735   8.046  0.00  0.00    +0.000 A 
ATOM     21  C   UNL     1      46.347   1.437   8.078  0.00  0.00    +0.000 A 
ATOM     22  C   UNL     1      47.293   1.028   7.132  0.00  0.00    +0.000 A 
ATOM     23  C   UNL     1      47.716   1.907   6.140  0.00  0.00    +0.000 A 
ATOM     24  C   UNL     1      47.197   3.198   6.091  0.00  0.00    +0.000 A 
ATOM     25  C   UNL     1      46.260   3.609   7.041  0.00  0.00    +0.000 A 
ENDBRANCH  19  20
ENDBRANCH  17  19
ENDBRANCH  15  17
ENDBRANCH   1  15
TORSDOF 6
ENDMDL
MODEL 4
REMARK VINA RESULT:    -7.602      1.950      2.785
REMARK INTER + INTRA:         -10.998
REMARK INTER:                  -9.831
REMARK INTRA:                  -1.167
REMARK UNBOUND:                -0.729
REMARK  Name = 
REMARK  7 active torsions:
REMARK  status: ('A' for Active; 'I' for Inactive)
REMARK    1  A    between atoms: C_1  and  C_2
REMARK    2  A    between atoms: C_2  and  C_3
REMARK    3  A    between atoms: C_2  and  C_17
REMARK    4  A    between atoms: C_3  and  N_4
REMARK    5  A    between atoms: N_4  and  C_5
REMARK    6  A    between atoms: C_8  and  C_9
REMARK    7  A    between atoms: C_13  and  N_14
REMARK                            x       y       z     vdW  Elec       q    Type
REMARK                         _______ _______ _______ _____ _____    ______ ____
ROOT
ATOM      1  C   UNL     1      45.400   5.922  12.560  0.00  0.00    +0.000 A 
ATOM      2  N   UNL     1      45.508   7.109  11.908  0.00  0.00    +0.000 NA
ATOM      3  C   UNL     1      46.702   7.754  11.883  0.00  0.00    +0.000 A 
ATOM      4  C   UNL     1      47.849   7.278  12.486  0.00  0.00    +0.000 A 
ATOM      5  C   UNL     1      47.745   6.072  13.180  0.00  0.00    +0.000 A 
ATOM      6  C   UNL     1      46.514   5.394  13.228  0.00  0.00    +0.000 A 
ENDROOT
BRANCH   4   7
ATOM      7  C   UNL     1      49.164   7.956  12.416  0.00  0.00    +0.000 C 
ATOM      8  N   UNL     1      50.278   7.301  12.848  0.00  0.00    +0.000 N 
ATOM      9  O   UNL     1      49.252   9.102  11.988  0.00  0.00    +0.000 OA
ATOM     10  H   UNL     1      50.322   6.372  13.235  0.00  0.00    +0.000 HD
ATOM     11  H   UNL     1      51.149   7.823  12.801  0.00  0.00    +0.000 HD
ENDBRANCH   4   7
BRANCH   6  12
ATOM     12  N   UNL     1      46.468   4.099  13.913  0.00  0.00    +0.000 N 
ATOM     13  O   UNL     1      46.295   3.075  13.238  0.00  0.00    +0.000 OA
ATOM     14  O   UNL     1      46.648   4.094  15.139  0.00  0.00    +0.000 OA
ENDBRANCH   6  12
BRANCH   1  15
ATOM     15  N   UNL     1      44.122   5.356  12.616  0.00  0.00    +0.000 N 
ATOM     16  H   UNL     1      44.127   4.472  13.132  0.00  0.00    +0.000 HD
BRANCH  15  17
ATOM     17  C   UNL     1      43.468   5.196  11.322  0.00  0.00    +0.000 C 
BRANCH  17  19
ATOM     18  C   UNL     1      43.291   2.673  11.755  0.00  0.00    +0.000 C 
ATOM     19  C   UNL     1      43.732   3.794  10.865  0.00  0.00    +0.000 C 
BRANCH  19  20
ATOM     20  C   UNL     1      44.638   3.524   9.737  0.00  0.00    +0.000 A 
ATOM     21  C   UNL     1      45.242   4.563   9.018  0.00  0.00    +0.000 A 
ATOM     22  C   UNL     1      46.090   4.285   7.941  0.00  0.00    +0.000 A 
ATOM     23  C   UNL     1      46.350   2.967   7.578  0.00  0.00    +0.000 A 
ATOM     24  C   UNL     1      45.762   1.924   8.287  0.00  0.00    +0.000 A 
ATOM     25  C   UNL     1      44.909   2.202   9.356  0.00  0.00    +0.000 A 
ENDBRANCH  19  20
ENDBRANCH  17  19
ENDBRANCH  15  17
ENDBRANCH   1  15
TORSDOF 6
ENDMDL
MODEL 5
REMARK VINA RESULT:    -7.163      2.320      6.071
REMARK INTER + INTRA:         -10.404
REMARK INTER:                  -9.693
REMARK INTRA:                  -0.712
REMARK UNBOUND:                -0.729
REMARK  Name = 
REMARK  7 active torsions:
REMARK  status: ('A' for Active; 'I' for Inactive)
REMARK    1  A    between atoms: C_1  and  C_2
REMARK    2  A    between atoms: C_2  and  C_3
REMARK    3  A    between atoms: C_2  and  C_17
REMARK    4  A    between atoms: C_3  and  N_4
REMARK    5  A    between atoms: N_4  and  C_5
REMARK    6  A    between atoms: C_8  and  C_9
REMARK    7  A    between atoms: C_13  and  N_14
REMARK                            x       y       z     vdW  Elec       q    Type
REMARK                         _______ _______ _______ _____ _____    ______ ____
ROOT
ATOM      1  C   UNL     1      44.808   4.533   9.849  0.00  0.00    +0.000 A 
ATOM      2  N   UNL     1      45.484   4.825   8.707  0.00  0.00    +0.000 NA
ATOM      3  C   UNL     1      46.058   3.824   7.993  0.00  0.00    +0.000 A 
ATOM      4  C   UNL     1      46.002   2.492   8.349  0.00  0.00    +0.000 A 
ATOM      5  C   UNL     1      45.331   2.181   9.532  0.00  0.00    +0.000 A 
ATOM      6  C   UNL     1      44.740   3.206  10.294  0.00  0.00    +0.000 A 
ENDROOT
BRANCH   4   7
ATOM      7  C   UNL     1      46.584   1.394   7.543  0.00  0.00    +0.000 C 
ATOM      8  N   UNL     1      47.100   1.669   6.312  0.00  0.00    +0.000 N 
ATOM      9  O   UNL     1      46.589   0.244   7.968  0.00  0.00    +0.000 OA
ATOM     10  H   UNL     1      47.132   2.566   5.855  0.00  0.00    +0.000 HD
ATOM     11  H   UNL     1      47.462   0.874   5.793  0.00  0.00    +0.000 HD
ENDBRANCH   4   7
BRANCH   6  12
ATOM     12  N   UNL     1      43.991   2.825  11.495  0.00  0.00    +0.000 N 
ATOM     13  O   UNL     1      42.829   2.415  11.366  0.00  0.00    +0.000 OA
ATOM     14  O   UNL     1      44.580   2.896  12.583  0.00  0.00    +0.000 OA
ENDBRANCH   6  12
BRANCH   1  15
ATOM     15  N   UNL     1      44.315   5.622  10.577  0.00  0.00    +0.000 N 
ATOM     16  H   UNL     1      43.474   6.011  10.143  0.00  0.00    +0.000 HD
BRANCH  15  17
ATOM     17  C   UNL     1      45.293   6.671  10.843  0.00  0.00    +0.000 C 
BRANCH  17  19
ATOM     18  C   UNL     1      45.019   5.861  13.262  0.00  0.00    +0.000 C 
ATOM     19  C   UNL     1      45.913   6.369  12.173  0.00  0.00    +0.000 C 
BRANCH  19  20
ATOM     20  C   UNL     1      47.277   6.820  12.492  0.00  0.00    +0.000 A 
ATOM     21  C   UNL     1      47.801   6.713  13.786  0.00  0.00    +0.000 A 
ATOM     22  C   UNL     1      49.096   7.159  14.070  0.00  0.00    +0.000 A 
ATOM     23  C   UNL     1      49.883   7.708  13.062  0.00  0.00    +0.000 A 
ATOM     24  C   UNL     1      49.378   7.815  11.769  0.00  0.00    +0.000 A 
ATOM     25  C   UNL     1      48.083   7.378  11.489  0.00  0.00    +0.000 A 
ENDBRANCH  19  20
ENDBRANCH  17  19
ENDBRANCH  15  17
ENDBRANCH   1  15
TORSDOF 6
ENDMDL
MODEL 6
REMARK VINA RESULT:    -6.916      2.178      2.917
REMARK INTER + INTRA:         -10.071
REMARK INTER:                  -9.297
REMARK INTRA:                  -0.774
REMARK UNBOUND:                -0.729
REMARK  Name = 
REMARK  7 active torsions:
REMARK  status: ('A' for Active; 'I' for Inactive)
REMARK    1  A    between atoms: C_1  and  C_2
REMARK    2  A    between atoms: C_2  and  C_3
REMARK    3  A    between atoms: C_2  and  C_17
REMARK    4  A    between atoms: C_3  and  N_4
REMARK    5  A    between atoms: N_4  and  C_5
REMARK    6  A    between atoms: C_8  and  C_9
REMARK    7  A    between atoms: C_13  and  N_14
REMARK                            x       y       z     vdW  Elec       q    Type
REMARK                         _______ _______ _______ _____ _____    ______ ____
ROOT
ATOM      1  C   UNL     1      45.868   6.321  11.791  0.00  0.00    +0.000 A 
ATOM      2  N   UNL     1      46.487   5.234  12.320  0.00  0.00    +0.000 NA
ATOM      3  C   UNL     1      47.392   5.397  13.319  0.00  0.00    +0.000 A 
ATOM      4  C   UNL     1      47.737   6.622  13.853  0.00  0.00    +0.000 A 
ATOM      5  C   UNL     1      47.126   7.749  13.301  0.00  0.00    +0.000 A 
ATOM      6  C   UNL     1      46.195   7.601  12.257  0.00  0.00    +0.000 A 
ENDROOT
BRANCH   4   7
ATOM      7  C   UNL     1      48.686   6.797  14.978  0.00  0.00    +0.000 C 
ATOM      8  N   UNL     1      48.207   6.862  16.253  0.00  0.00    +0.000 N 
ATOM      9  O   UNL     1      49.889   6.898  14.768  0.00  0.00    +0.000 OA
ATOM     10  H   UNL     1      47.243   6.811  16.541  0.00  0.00    +0.000 HD
ATOM     11  H   UNL     1      48.900   7.008  16.982  0.00  0.00    +0.000 HD
ENDBRANCH   4   7
BRANCH   6  12
ATOM     12  N   UNL     1      45.531   8.807  11.753  0.00  0.00    +0.000 N 
ATOM     13  O   UNL     1      44.363   8.718  11.351  0.00  0.00    +0.000 OA
ATOM     14  O   UNL     1      46.167   9.870  11.794  0.00  0.00    +0.000 OA
ENDBRANCH   6  12
BRANCH   1  15
ATOM     15  N   UNL     1      45.012   6.085  10.709  0.00  0.00    +0.000 N 
ATOM     16  H   UNL     1      44.238   5.468  10.973  0.00  0.00    +0.000 HD
BRANCH  15  17
ATOM     17  C   UNL     1      45.672   5.598   9.503  0.00  0.00    +0.000 C 
BRANCH  17  19
ATOM     18  C   UNL     1      43.876   3.824   9.964  0.00  0.00    +0.000 C 
ATOM     19  C   UNL     1      45.079   4.259   9.186  0.00  0.00    +0.000 C 
BRANCH  19  20
ATOM     20  C   UNL     1      45.808   3.288   8.354  0.00  0.00    +0.000 A 
ATOM     21  C   UNL     1      46.571   3.693   7.252  0.00  0.00    +0.000 A 
ATOM     22  C   UNL     1      47.246   2.752   6.468  0.00  0.00    +0.000 A 
ATOM     23  C   UNL     1      47.172   1.398   6.781  0.00  0.00    +0.000 A 
ATOM     24  C   UNL     1      46.423   0.981   7.877  0.00  0.00    +0.000 A 
ATOM     25  C   UNL     1      45.742   1.919   8.654  0.00  0.00    +0.000 A 
ENDBRANCH  19  20
ENDBRANCH  17  19
ENDBRANCH  15  17
ENDBRANCH   1  15
TORSDOF 6
ENDMDL
MODEL 7
REMARK VINA RESULT:    -6.797      2.364      3.152
REMARK INTER + INTRA:          -9.910
REMARK INTER:                  -9.459
REMARK INTRA:                  -0.451
REMARK UNBOUND:                -0.729
REMARK  Name = 
REMARK  7 active torsions:
REMARK  status: ('A' for Active; 'I' for Inactive)
REMARK    1  A    between atoms: C_1  and  C_2
REMARK    2  A    between atoms: C_2  and  C_3
REMARK    3  A    between atoms: C_2  and  C_17
REMARK    4  A    between atoms: C_3  and  N_4
REMARK    5  A    between atoms: N_4  and  C_5
REMARK    6  A    between atoms: C_8  and  C_9
REMARK    7  A    between atoms: C_13  and  N_14
REMARK                            x       y       z     vdW  Elec       q    Type
REMARK                         _______ _______ _______ _____ _____    ______ ____
ROOT
ATOM      1  C   UNL     1      45.064   6.274  12.761  0.00  0.00    +0.000 A 
ATOM      2  N   UNL     1      45.867   5.274  13.207  0.00  0.00    +0.000 NA
ATOM      3  C   UNL     1      47.200   5.492  13.340  0.00  0.00    +0.000 A 
ATOM      4  C   UNL     1      47.817   6.693  13.051  0.00  0.00    +0.000 A 
ATOM      5  C   UNL     1      47.006   7.722  12.570  0.00  0.00    +0.000 A 
ATOM      6  C   UNL     1      45.624   7.511  12.413  0.00  0.00    +0.000 A 
ENDROOT
BRANCH   4   7
ATOM      7  C   UNL     1      49.263   6.949  13.245  0.00  0.00    +0.000 C 
ATOM      8  N   UNL     1      50.047   7.216  12.162  0.00  0.00    +0.000 N 
ATOM      9  O   UNL     1      49.759   6.905  14.365  0.00  0.00    +0.000 OA
ATOM     10  H   UNL     1      49.754   7.258  11.199  0.00  0.00    +0.000 HD
ATOM     11  H   UNL     1      51.035   7.359  12.351  0.00  0.00    +0.000 HD
ENDBRANCH   4   7
BRANCH   6  12
ATOM     12  N   UNL     1      44.803   8.639  11.966  0.00  0.00    +0.000 N 
ATOM     13  O   UNL     1      44.004   8.462  11.036  0.00  0.00    +0.000 OA
ATOM     14  O   UNL     1      44.923   9.711  12.577  0.00  0.00    +0.000 OA
ENDBRANCH   6  12
BRANCH   1  15
ATOM     15  N   UNL     1      43.716   5.952  12.569  0.00  0.00    +0.000 N 
ATOM     16  H   UNL     1      43.407   5.230  13.226  0.00  0.00    +0.000 HD
BRANCH  15  17
ATOM     17  C   UNL     1      43.364   5.589  11.200  0.00  0.00    +0.000 C 
BRANCH  17  19
ATOM     18  C   UNL     1      43.312   3.220  12.184  0.00  0.00    +0.000 C 
ATOM     19  C   UNL     1      43.655   4.127  11.043  0.00  0.00    +0.000 C 
BRANCH  19  20
ATOM     20  C   UNL     1      44.500   3.638   9.942  0.00  0.00    +0.000 A 
ATOM     21  C   UNL     1      44.622   2.271   9.664  0.00  0.00    +0.000 A 
ATOM     22  C   UNL     1      45.440   1.827   8.620  0.00  0.00    +0.000 A 
ATOM     23  C   UNL     1      46.138   2.744   7.839  0.00  0.00    +0.000 A 
ATOM     24  C   UNL     1      46.021   4.106   8.100  0.00  0.00    +0.000 A 
ATOM     25  C   UNL     1      45.211   4.548   9.147  0.00  0.00    +0.000 A 
ENDBRANCH  19  20
ENDBRANCH  17  19
ENDBRANCH  15  17
ENDBRANCH   1  15
TORSDOF 6
ENDMDL
MODEL 8
REMARK VINA RESULT:    -6.642      3.130      5.049
REMARK INTER + INTRA:          -9.701
REMARK INTER:                  -8.794
REMARK INTRA:                  -0.907
REMARK UNBOUND:                -0.729
REMARK  Name = 
REMARK  7 active torsions:
REMARK  status: ('A' for Active; 'I' for Inactive)
REMARK    1  A    between atoms: C_1  and  C_2
REMARK    2  A    between atoms: C_2  and  C_3
REMARK    3  A    between atoms: C_2  and  C_17
REMARK    4  A    between atoms: C_3  and  N_4
REMARK    5  A    between atoms: N_4  and  C_5
REMARK    6  A    between atoms: C_8  and  C_9
REMARK    7  A    between atoms: C_13  and  N_14
REMARK                            x       y       z     vdW  Elec       q    Type
REMARK                         _______ _______ _______ _____ _____    ______ ____
ROOT
ATOM      1  C   UNL     1      47.182   4.737  14.789  0.00  0.00    +0.000 A 
ATOM      2  N   UNL     1      46.806   3.744  15.636  0.00  0.00    +0.000 NA
ATOM      3  C   UNL     1      47.283   3.731  16.907  0.00  0.00    +0.000 A 
ATOM      4  C   UNL     1      48.143   4.682  17.418  0.00  0.00    +0.000 A 
ATOM      5  C   UNL     1      48.555   5.694  16.551  0.00  0.00    +0.000 A 
ATOM      6  C   UNL     1      48.083   5.718  15.226  0.00  0.00    +0.000 A 
ENDROOT
BRANCH   4   7
ATOM      7  C   UNL     1      48.622   4.697  18.820  0.00  0.00    +0.000 C 
ATOM      8  N   UNL     1      48.467   3.584  19.592  0.00  0.00    +0.000 N 
ATOM      9  O   UNL     1      49.139   5.704  19.290  0.00  0.00    +0.000 OA
ATOM     10  H   UNL     1      48.042   2.713  19.319  0.00  0.00    +0.000 HD
ATOM     11  H   UNL     1      48.791   3.659  20.552  0.00  0.00    +0.000 HD
ENDBRANCH   4   7
BRANCH   6  12
ATOM     12  N   UNL     1      48.491   6.836  14.370  0.00  0.00    +0.000 N 
ATOM     13  O   UNL     1      49.689   6.953  14.076  0.00  0.00    +0.000 OA
ATOM     14  O   UNL     1      47.602   7.589  13.949  0.00  0.00    +0.000 OA
ENDBRANCH   6  12
BRANCH   1  15
ATOM     15  N   UNL     1      46.719   4.640  13.472  0.00  0.00    +0.000 N 
ATOM     16  H   UNL     1      47.312   5.172  12.828  0.00  0.00    +0.000 HD
BRANCH  15  17
ATOM     17  C   UNL     1      45.315   4.990  13.290  0.00  0.00    +0.000 C 
BRANCH  17  19
ATOM     18  C   UNL     1      44.810   6.987  11.761  0.00  0.00    +0.000 C 
ATOM     19  C   UNL     1      45.174   5.542  11.905  0.00  0.00    +0.000 C 
BRANCH  19  20
ATOM     20  C   UNL     1      45.109   4.647  10.738  0.00  0.00    +0.000 A 
ATOM     21  C   UNL     1      44.572   3.357  10.832  0.00  0.00    +0.000 A 
ATOM     22  C   UNL     1      44.531   2.519   9.713  0.00  0.00    +0.000 A 
ATOM     23  C   UNL     1      45.019   2.963   8.488  0.00  0.00    +0.000 A 
ATOM     24  C   UNL     1      45.550   4.245   8.377  0.00  0.00    +0.000 A 
ATOM     25  C   UNL     1      45.598   5.078   9.496  0.00  0.00    +0.000 A 
ENDBRANCH  19  20
ENDBRANCH  17  19
ENDBRANCH  15  17
ENDBRANCH   1  15
TORSDOF 6
ENDMDL
MODEL 9
REMARK VINA RESULT:    -6.619      3.981      7.802
REMARK INTER + INTRA:          -9.670
REMARK INTER:                  -8.897
REMARK INTRA:                  -0.773
REMARK UNBOUND:                -0.729
REMARK  Name = 
REMARK  7 active torsions:
REMARK  status: ('A' for Active; 'I' for Inactive)
REMARK    1  A    between atoms: C_1  and  C_2
REMARK    2  A    between atoms: C_2  and  C_3
REMARK    3  A    between atoms: C_2  and  C_17
REMARK    4  A    between atoms: C_3  and  N_4
REMARK    5  A    between atoms: N_4  and  C_5
REMARK    6  A    between atoms: C_8  and  C_9
REMARK    7  A    between atoms: C_13  and  N_14
REMARK                            x       y       z     vdW  Elec       q    Type
REMARK                         _______ _______ _______ _____ _____    ______ ____
ROOT
ATOM      1  C   UNL     1      46.590   4.902  13.912  0.00  0.00    +0.000 A 
ATOM      2  N   UNL     1      46.220   3.617  13.675  0.00  0.00    +0.000 NA
ATOM      3  C   UNL     1      45.504   3.319  12.561  0.00  0.00    +0.000 A 
ATOM      4  C   UNL     1      45.115   4.253  11.622  0.00  0.00    +0.000 A 
ATOM      5  C   UNL     1      45.469   5.581  11.866  0.00  0.00    +0.000 A 
ATOM      6  C   UNL     1      46.200   5.911  13.021  0.00  0.00    +0.000 A 
ENDROOT
BRANCH   4   7
ATOM      7  C   UNL     1      44.378   3.921  10.380  0.00  0.00    +0.000 C 
ATOM      8  N   UNL     1      44.441   4.773   9.318  0.00  0.00    +0.000 N 
ATOM      9  O   UNL     1      43.704   2.900  10.310  0.00  0.00    +0.000 OA
ATOM     10  H   UNL     1      44.945   5.644   9.269  0.00  0.00    +0.000 HD
ATOM     11  H   UNL     1      43.896   4.508   8.502  0.00  0.00    +0.000 HD
ENDBRANCH   4   7
BRANCH   6  12
ATOM     12  N   UNL     1      46.604   7.308  13.202  0.00  0.00    +0.000 N 
ATOM     13  O   UNL     1      47.803   7.561  13.387  0.00  0.00    +0.000 OA
ATOM     14  O   UNL     1      45.722   8.175  13.120  0.00  0.00    +0.000 OA
ENDBRANCH   6  12
BRANCH   1  15
ATOM     15  N   UNL     1      47.253   5.147  15.120  0.00  0.00    +0.000 N 
ATOM     16  H   UNL     1      48.179   5.553  14.962  0.00  0.00    +0.000 HD
BRANCH  15  17
ATOM     17  C   UNL     1      47.337   3.997  16.014  0.00  0.00    +0.000 C 
BRANCH  17  19
ATOM     18  C   UNL     1      47.920   5.646  17.892  0.00  0.00    +0.000 C 
ATOM     19  C   UNL     1      48.237   4.386  17.147  0.00  0.00    +0.000 C 
BRANCH  19  20
ATOM     20  C   UNL     1      49.537   3.724  17.342  0.00  0.00    +0.000 A 
ATOM     21  C   UNL     1      50.666   4.436  17.764  0.00  0.00    +0.000 A 
ATOM     22  C   UNL     1      51.895   3.789  17.931  0.00  0.00    +0.000 A 
ATOM     23  C   UNL     1      52.006   2.423  17.686  0.00  0.00    +0.000 A 
ATOM     24  C   UNL     1      50.890   1.701  17.273  0.00  0.00    +0.000 A 
ATOM     25  C   UNL     1      49.666   2.349  17.098  0.00  0.00    +0.000 A 
ENDBRANCH  19  20
ENDBRANCH  17  19
ENDBRANCH  15  17
ENDBRANCH   1  15
TORSDOF 6
ENDMDL
