MODEL 1
REMARK VINA RESULT:    -9.566      0.000      0.000
REMARK INTER + INTRA:         -14.262
REMARK INTER:                 -12.921
REMARK INTRA:                  -1.341
REMARK UNBOUND:                -1.341
REMARK  Name = 
REMARK  8 active torsions:
REMARK  status: ('A' for Active; 'I' for Inactive)
REMARK    1  A    between atoms: C_1  and  C_2
REMARK    2  A    between atoms: C_2  and  C_3
REMARK    3  A    between atoms: C_2  and  C_4
REMARK    4  A    between atoms: C_2  and  C_15
REMARK    5  A    between atoms: C_4  and  N_5
REMARK    6  A    between atoms: C_9  and  C_10
REMARK    7  A    between atoms: C_19  and  C_20
REMARK    8  A    between atoms: C_23  and  C_24
REMARK                            x       y       z     vdW  Elec       q    Type
REMARK                         _______ _______ _______ _____ _____    ______ ____
ROOT
ATOM      1  C   UNL     1      42.690   6.506  11.392  0.00  0.00    +0.000 C 
ATOM      2  C   UNL     1      43.550   5.330  11.909  0.00  0.00    +0.000 C 
ATOM      3  C   UNL     1      42.955   4.854  13.256  0.00  0.00    +0.000 C 
ENDROOT
BRANCH   2   4
ATOM      4  C   UNL     1      45.008   5.755  12.168  0.00  0.00    +0.000 A 
ATOM      5  C   UNL     1      45.701   6.581  11.273  0.00  0.00    +0.000 A 
ATOM      6  C   UNL     1      47.000   7.012  11.553  0.00  0.00    +0.000 A 
ATOM      7  C   UNL     1      47.641   6.608  12.725  0.00  0.00    +0.000 A 
ATOM      8  C   UNL     1      46.992   5.786  13.651  0.00  0.00    +0.000 A 
ATOM      9  C   UNL     1      45.678   5.394  13.351  0.00  0.00    +0.000 A 
BRANCH   8  10
ATOM     10  C   UNL     1      47.610   5.369  14.926  0.00  0.00    +0.000 A 
ATOM     11  C   UNL     1      48.593   6.155  15.565  0.00  0.00    +0.000 A 
ATOM     12  C   UNL     1      49.211   5.734  16.746  0.00  0.00    +0.000 A 
ATOM     13  C   UNL     1      48.850   4.517  17.331  0.00  0.00    +0.000 A 
ATOM     14  C   UNL     1      47.880   3.741  16.710  0.00  0.00    +0.000 A 
ATOM     15  F   UNL     1      47.510   2.571  17.246  0.00  0.00    +0.000 F 
ATOM     16  C   UNL     1      47.271   4.148  15.523  0.00  0.00    +0.000 A 
BRANCH  13  17
ATOM     17  C   UNL     1      49.473   4.029  18.601  0.00  0.00    +0.000 C 
ATOM     18  F   UNL     1      50.199   2.885  18.430  0.00  0.00    +0.000 F 
ATOM     19  F   UNL     1      50.335   4.929  19.147  0.00  0.00    +0.000 F 
ATOM     20  F   UNL     1      48.558   3.739  19.565  0.00  0.00    +0.000 F 
ENDBRANCH  13  17
ENDBRANCH   8  10
ENDBRANCH   2   4
BRANCH   2  21
ATOM     21  C   UNL     1      43.405   4.146  10.894  0.00  0.00    +0.000 C 
BRANCH  21  22
ATOM     22  N   UNL     1      43.779   4.530   9.532  0.00  0.00    +0.000 N 
ATOM     23  C   UNL     1      44.819   3.889   8.893  0.00  0.00    +0.000 A 
ATOM     24  C   UNL     1      45.080   2.537   9.067  0.00  0.00    +0.000 A 
ATOM     25  C   UNL     1      46.072   1.926   8.308  0.00  0.00    +0.000 A 
ATOM     26  C   UNL     1      46.787   2.670   7.371  0.00  0.00    +0.000 A 
ATOM     27  C   UNL     1      46.480   4.020   7.278  0.00  0.00    +0.000 A 
ATOM     28  N   UNL     1      45.524   4.640   8.022  0.00  0.00    +0.000 NA
ATOM     29  H   UNL     1      43.854   5.527   9.336  0.00  0.00    +0.000 HD
BRANCH  26  30
ATOM     30  C   UNL     1      47.794   1.981   6.542  0.00  0.00    +0.000 C 
ATOM     31  N   UNL     1      48.204   2.549   5.372  0.00  0.00    +0.000 N 
ATOM     32  O   UNL     1      48.266   0.897   6.890  0.00  0.00    +0.000 OA
ATOM     33  H   UNL     1      47.868   3.411   4.975  0.00  0.00    +0.000 HD
ATOM     34  H   UNL     1      48.881   2.021   4.831  0.00  0.00    +0.000 HD
ENDBRANCH  26  30
ENDBRANCH  21  22
ENDBRANCH   2  21
TORSDOF 6
ENDMDL
MODEL 2
REMARK VINA RESULT:    -7.684      5.447      8.523
REMARK INTER + INTRA:         -11.720
REMARK INTER:                 -10.071
REMARK INTRA:                  -1.649
REMARK UNBOUND:                -1.341
REMARK  Name = 
REMARK  8 active torsions:
REMARK  status: ('A' for Active; 'I' for Inactive)
REMARK    1  A    between atoms: C_1  and  C_2
REMARK    2  A    between atoms: C_2  and  C_3
REMARK    3  A    between atoms: C_2  and  C_4
REMARK    4  A    between atoms: C_2  and  C_15
REMARK    5  A    between atoms: C_4  and  N_5
REMARK    6  A    between atoms: C_9  and  C_10
REMARK    7  A    between atoms: C_19  and  C_20
REMARK    8  A    between atoms: C_23  and  C_24
REMARK                            x       y       z     vdW  Elec       q    Type
REMARK                         _______ _______ _______ _____ _____    ______ ____
ROOT
ATOM      1  C   UNL     1      49.605  10.106  12.238  0.00  0.00    +0.000 C 
ATOM      2  C   UNL     1      49.161   8.757  12.850  0.00  0.00    +0.000 C 
ATOM      3  C   UNL     1      49.996   7.633  12.193  0.00  0.00    +0.000 C 
ENDROOT
BRANCH   2   4
ATOM      4  C   UNL     1      47.675   8.460  12.569  0.00  0.00    +0.000 A 
ATOM      5  C   UNL     1      46.673   9.394  12.862  0.00  0.00    +0.000 A 
ATOM      6  C   UNL     1      45.338   9.137  12.542  0.00  0.00    +0.000 A 
ATOM      7  C   UNL     1      44.975   7.931  11.939  0.00  0.00    +0.000 A 
ATOM      8  C   UNL     1      45.938   6.968  11.624  0.00  0.00    +0.000 A 
ATOM      9  C   UNL     1      47.273   7.270  11.935  0.00  0.00    +0.000 A 
BRANCH   8  10
ATOM     10  C   UNL     1      45.612   5.698  10.945  0.00  0.00    +0.000 A 
ATOM     11  C   UNL     1      45.085   4.595  11.652  0.00  0.00    +0.000 A 
ATOM     12  C   UNL     1      44.823   3.378  11.017  0.00  0.00    +0.000 A 
ATOM     13  C   UNL     1      45.067   3.235   9.648  0.00  0.00    +0.000 A 
ATOM     14  C   UNL     1      45.581   4.318   8.946  0.00  0.00    +0.000 A 
ATOM     15  F   UNL     1      45.824   4.213   7.633  0.00  0.00    +0.000 F 
ATOM     16  C   UNL     1      45.859   5.529   9.577  0.00  0.00    +0.000 A 
BRANCH  13  17
ATOM     17  C   UNL     1      44.791   1.957   8.920  0.00  0.00    +0.000 C 
ATOM     18  F   UNL     1      45.927   1.266   8.611  0.00  0.00    +0.000 F 
ATOM     19  F   UNL     1      44.024   1.093   9.640  0.00  0.00    +0.000 F 
ATOM     20  F   UNL     1      44.147   2.147   7.736  0.00  0.00    +0.000 F 
ENDBRANCH  13  17
ENDBRANCH   8  10
ENDBRANCH   2   4
BRANCH   2  21
ATOM     21  C   UNL     1      49.526   8.777  14.373  0.00  0.00    +0.000 C 
BRANCH  21  22
ATOM     22  N   UNL     1      50.217   7.559  14.796  0.00  0.00    +0.000 N 
ATOM     23  C   UNL     1      49.564   6.631  15.582  0.00  0.00    +0.000 A 
ATOM     24  C   UNL     1      48.211   6.357  15.441  0.00  0.00    +0.000 A 
ATOM     25  C   UNL     1      47.638   5.332  16.186  0.00  0.00    +0.000 A 
ATOM     26  C   UNL     1      48.426   4.580  17.056  0.00  0.00    +0.000 A 
ATOM     27  C   UNL     1      49.764   4.936  17.155  0.00  0.00    +0.000 A 
ATOM     28  N   UNL     1      50.340   5.946  16.446  0.00  0.00    +0.000 NA
ATOM     29  H   UNL     1      51.165   7.664  15.153  0.00  0.00    +0.000 HD
BRANCH  26  30
ATOM     30  C   UNL     1      47.801   3.463  17.789  0.00  0.00    +0.000 C 
ATOM     31  N   UNL     1      48.422   2.951  18.890  0.00  0.00    +0.000 N 
ATOM     32  O   UNL     1      46.727   2.985  17.419  0.00  0.00    +0.000 OA
ATOM     33  H   UNL     1      49.310   3.240  19.265  0.00  0.00    +0.000 HD
ATOM     34  H   UNL     1      47.958   2.169  19.342  0.00  0.00    +0.000 HD
ENDBRANCH  26  30
ENDBRANCH  21  22
ENDBRANCH   2  21
TORSDOF 6
ENDMDL
MODEL 3
REMARK VINA RESULT:    -7.455      5.327      8.436
REMARK INTER + INTRA:         -11.410
REMARK INTER:                  -9.429
REMARK INTRA:                  -1.981
REMARK UNBOUND:                -1.341
REMARK  Name = 
REMARK  8 active torsions:
REMARK  status: ('A' for Active; 'I' for Inactive)
REMARK    1  A    between atoms: C_1  and  C_2
REMARK    2  A    between atoms: C_2  and  C_3
REMARK    3  A    between atoms: C_2  and  C_4
REMARK    4  A    between atoms: C_2  and  C_15
REMARK    5  A    between atoms: C_4  and  N_5
REMARK    6  A    between atoms: C_9  and  C_10
REMARK    7  A    between atoms: C_19  and  C_20
REMARK    8  A    between atoms: C_23  and  C_24
REMARK                            x       y       z     vdW  Elec       q    Type
REMARK                         _______ _______ _______ _____ _____    ______ ____
ROOT
ATOM      1  C   UNL     1      47.865   9.341  17.746  0.00  0.00    +0.000 C 
ATOM      2  C   UNL     1      49.359   9.294  17.350  0.00  0.00    +0.000 C 
ATOM      3  C   UNL     1      49.905  10.742  17.362  0.00  0.00    +0.000 C 
ENDROOT
BRANCH   2   4
ATOM      4  C   UNL     1      49.560   8.731  15.930  0.00  0.00    +0.000 A 
ATOM      5  C   UNL     1      50.740   8.964  15.210  0.00  0.00    +0.000 A 
ATOM      6  C   UNL     1      50.935   8.393  13.950  0.00  0.00    +0.000 A 
ATOM      7  C   UNL     1      49.947   7.593  13.375  0.00  0.00    +0.000 A 
ATOM      8  C   UNL     1      48.753   7.329  14.055  0.00  0.00    +0.000 A 
ATOM      9  C   UNL     1      48.601   7.896  15.329  0.00  0.00    +0.000 A 
BRANCH   8  10
ATOM     10  C   UNL     1      47.696   6.453  13.510  0.00  0.00    +0.000 A 
ATOM     11  C   UNL     1      47.261   5.300  14.198  0.00  0.00    +0.000 A 
ATOM     12  C   UNL     1      46.296   4.446  13.657  0.00  0.00    +0.000 A 
ATOM     13  C   UNL     1      45.725   4.732  12.414  0.00  0.00    +0.000 A 
ATOM     14  C   UNL     1      46.145   5.868  11.734  0.00  0.00    +0.000 A 
ATOM     15  F   UNL     1      45.615   6.171  10.541  0.00  0.00    +0.000 F 
ATOM     16  C   UNL     1      47.119   6.714  12.260  0.00  0.00    +0.000 A 
BRANCH  13  17
ATOM     17  C   UNL     1      44.678   3.857  11.799  0.00  0.00    +0.000 C 
ATOM     18  F   UNL     1      45.091   3.275  10.635  0.00  0.00    +0.000 F 
ATOM     19  F   UNL     1      44.307   2.829  12.609  0.00  0.00    +0.000 F 
ATOM     20  F   UNL     1      43.539   4.531  11.485  0.00  0.00    +0.000 F 
ENDBRANCH  13  17
ENDBRANCH   8  10
ENDBRANCH   2   4
BRANCH   2  21
ATOM     21  C   UNL     1      50.125   8.500  18.462  0.00  0.00    +0.000 C 
BRANCH  21  22
ATOM     22  N   UNL     1      49.373   7.336  18.934  0.00  0.00    +0.000 N 
ATOM     23  C   UNL     1      49.576   6.100  18.355  0.00  0.00    +0.000 A 
ATOM     24  C   UNL     1      50.822   5.682  17.911  0.00  0.00    +0.000 A 
ATOM     25  C   UNL     1      50.982   4.383  17.441  0.00  0.00    +0.000 A 
ATOM     26  C   UNL     1      49.897   3.508  17.432  0.00  0.00    +0.000 A 
ATOM     27  C   UNL     1      48.682   4.015  17.871  0.00  0.00    +0.000 A 
ATOM     28  N   UNL     1      48.501   5.287  18.320  0.00  0.00    +0.000 NA
ATOM     29  H   UNL     1      48.372   7.458  19.077  0.00  0.00    +0.000 HD
BRANCH  26  30
ATOM     30  C   UNL     1      50.112   2.121  16.980  0.00  0.00    +0.000 C 
ATOM     31  N   UNL     1      50.950   1.307  17.686  0.00  0.00    +0.000 N 
ATOM     32  O   UNL     1      49.550   1.687  15.974  0.00  0.00    +0.000 OA
ATOM     33  H   UNL     1      51.483   1.560  18.502  0.00  0.00    +0.000 HD
ATOM     34  H   UNL     1      51.079   0.370  17.318  0.00  0.00    +0.000 HD
ENDBRANCH  26  30
ENDBRANCH  21  22
ENDBRANCH   2  21
TORSDOF 6
ENDMDL
MODEL 4
REMARK VINA RESULT:    -7.184      5.061      8.280
REMARK INTER + INTRA:         -11.045
REMARK INTER:                  -8.941
REMARK INTRA:                  -2.104
REMARK UNBOUND:                -1.341
REMARK  Name = 
REMARK  8 active torsions:
REMARK  status: ('A' for Active; 'I' for Inactive)
REMARK    1  A    between atoms: C_1  and  C_2
REMARK    2  A    between atoms: C_2  and  C_3
REMARK    3  A    between atoms: C_2  and  C_4
REMARK    4  A    between atoms: C_2  and  C_15
REMARK    5  A    between atoms: C_4  and  N_5
REMARK    6  A    between atoms: C_9  and  C_10
REMARK    7  A    between atoms: C_19  and  C_20
REMARK    8  A    between atoms: C_23  and  C_24
REMARK                            x       y       z     vdW  Elec       q    Type
REMARK                         _______ _______ _______ _____ _____    ______ ____
ROOT
ATOM      1  C   UNL     1      51.736  10.649  14.016  0.00  0.00    +0.000 C 
ATOM      2  C   UNL     1      50.892   9.353  13.993  0.00  0.00    +0.000 C 
ATOM      3  C   UNL     1      51.669   8.288  13.182  0.00  0.00    +0.000 C 
ENDROOT
BRANCH   2   4
ATOM      4  C   UNL     1      49.532   9.564  13.301  0.00  0.00    +0.000 A 
ATOM      5  C   UNL     1      49.207  10.778  12.681  0.00  0.00    +0.000 A 
ATOM      6  C   UNL     1      47.996  10.934  12.001  0.00  0.00    +0.000 A 
ATOM      7  C   UNL     1      47.077   9.885  11.945  0.00  0.00    +0.000 A 
ATOM      8  C   UNL     1      47.356   8.654  12.546  0.00  0.00    +0.000 A 
ATOM      9  C   UNL     1      48.592   8.523  13.198  0.00  0.00    +0.000 A 
BRANCH   8  10
ATOM     10  C   UNL     1      46.437   7.500  12.476  0.00  0.00    +0.000 A 
ATOM     11  C   UNL     1      45.254   7.540  11.707  0.00  0.00    +0.000 A 
ATOM     12  C   UNL     1      44.362   6.465  11.682  0.00  0.00    +0.000 A 
ATOM     13  C   UNL     1      44.637   5.307  12.416  0.00  0.00    +0.000 A 
ATOM     14  C   UNL     1      45.803   5.260  13.171  0.00  0.00    +0.000 A 
ATOM     15  F   UNL     1      46.096   4.165  13.884  0.00  0.00    +0.000 F 
ATOM     16  C   UNL     1      46.688   6.335  13.213  0.00  0.00    +0.000 A 
BRANCH  13  17
ATOM     17  C   UNL     1      43.721   4.125  12.411  0.00  0.00    +0.000 C 
ATOM     18  F   UNL     1      42.679   4.265  11.541  0.00  0.00    +0.000 F 
ATOM     19  F   UNL     1      44.346   2.972  12.048  0.00  0.00    +0.000 F 
ATOM     20  F   UNL     1      43.152   3.887  13.625  0.00  0.00    +0.000 F 
ENDBRANCH  13  17
ENDBRANCH   8  10
ENDBRANCH   2   4
BRANCH   2  21
ATOM     21  C   UNL     1      50.781   8.827  15.463  0.00  0.00    +0.000 C 
BRANCH  21  22
ATOM     22  N   UNL     1      51.123   7.408  15.576  0.00  0.00    +0.000 N 
ATOM     23  C   UNL     1      50.267   6.539  16.220  0.00  0.00    +0.000 A 
ATOM     24  C   UNL     1      48.887   6.665  16.151  0.00  0.00    +0.000 A 
ATOM     25  C   UNL     1      48.079   5.692  16.729  0.00  0.00    +0.000 A 
ATOM     26  C   UNL     1      48.659   4.592  17.359  0.00  0.00    +0.000 A 
ATOM     27  C   UNL     1      50.046   4.556  17.404  0.00  0.00    +0.000 A 
ATOM     28  N   UNL     1      50.853   5.506  16.859  0.00  0.00    +0.000 NA
ATOM     29  H   UNL     1      52.075   7.182  15.859  0.00  0.00    +0.000 HD
BRANCH  26  30
ATOM     30  C   UNL     1      47.775   3.549  17.913  0.00  0.00    +0.000 C 
ATOM     31  N   UNL     1      48.128   2.911  19.066  0.00  0.00    +0.000 N 
ATOM     32  O   UNL     1      46.725   3.243  17.346  0.00  0.00    +0.000 OA
ATOM     33  H   UNL     1      48.972   3.057  19.596  0.00  0.00    +0.000 HD
ATOM     34  H   UNL     1      47.495   2.187  19.389  0.00  0.00    +0.000 HD
ENDBRANCH  26  30
ENDBRANCH  21  22
ENDBRANCH   2  21
TORSDOF 6
ENDMDL
MODEL 5
REMARK VINA RESULT:    -6.973      5.042      8.215
REMARK INTER + INTRA:         -10.760
REMARK INTER:                  -8.748
REMARK INTRA:                  -2.011
REMARK UNBOUND:                -1.341
REMARK  Name = 
REMARK  8 active torsions:
REMARK  status: ('A' for Active; 'I' for Inactive)
REMARK    1  A    between atoms: C_1  and  C_2
REMARK    2  A    between atoms: C_2  and  C_3
REMARK    3  A    between atoms: C_2  and  C_4
REMARK    4  A    between atoms: C_2  and  C_15
REMARK    5  A    between atoms: C_4  and  N_5
REMARK    6  A    between atoms: C_9  and  C_10
REMARK    7  A    between atoms: C_19  and  C_20
REMARK    8  A    between atoms: C_23  and  C_24
REMARK                            x       y       z     vdW  Elec       q    Type
REMARK                         _______ _______ _______ _____ _____    ______ ____
ROOT
ATOM      1  C   UNL     1      47.908  10.884  17.699  0.00  0.00    +0.000 C 
ATOM      2  C   UNL     1      48.775   9.743  17.117  0.00  0.00    +0.000 C 
ATOM      3  C   UNL     1      50.260  10.079  17.394  0.00  0.00    +0.000 C 
ENDROOT
BRANCH   2   4
ATOM      4  C   UNL     1      48.603   9.611  15.591  0.00  0.00    +0.000 A 
ATOM      5  C   UNL     1      49.234  10.493  14.704  0.00  0.00    +0.000 A 
ATOM      6  C   UNL     1      49.122  10.322  13.322  0.00  0.00    +0.000 A 
ATOM      7  C   UNL     1      48.359   9.277  12.799  0.00  0.00    +0.000 A 
ATOM      8  C   UNL     1      47.713   8.369  13.643  0.00  0.00    +0.000 A 
ATOM      9  C   UNL     1      47.867   8.554  15.025  0.00  0.00    +0.000 A 
BRANCH   8  10
ATOM     10  C   UNL     1      46.932   7.221  13.139  0.00  0.00    +0.000 A 
ATOM     11  C   UNL     1      45.849   7.394  12.250  0.00  0.00    +0.000 A 
ATOM     12  C   UNL     1      45.082   6.310  11.813  0.00  0.00    +0.000 A 
ATOM     13  C   UNL     1      45.387   5.016  12.244  0.00  0.00    +0.000 A 
ATOM     14  C   UNL     1      46.454   4.839  13.115  0.00  0.00    +0.000 A 
ATOM     15  F   UNL     1      46.774   3.611  13.544  0.00  0.00    +0.000 F 
ATOM     16  C   UNL     1      47.213   5.917  13.567  0.00  0.00    +0.000 A 
BRANCH  13  17
ATOM     17  C   UNL     1      44.604   3.823  11.795  0.00  0.00    +0.000 C 
ATOM     18  F   UNL     1      45.365   2.912  11.121  0.00  0.00    +0.000 F 
ATOM     19  F   UNL     1      44.045   3.137  12.829  0.00  0.00    +0.000 F 
ATOM     20  F   UNL     1      43.585   4.142  10.950  0.00  0.00    +0.000 F 
ENDBRANCH  13  17
ENDBRANCH   8  10
ENDBRANCH   2   4
BRANCH   2  21
ATOM     21  C   UNL     1      48.440   8.434  17.909  0.00  0.00    +0.000 C 
BRANCH  21  22
ATOM     22  N   UNL     1      49.624   7.609  18.148  0.00  0.00    +0.000 N 
ATOM     23  C   UNL     1      49.588   6.255  17.884  0.00  0.00    +0.000 A 
ATOM     24  C   UNL     1      48.875   5.722  16.820  0.00  0.00    +0.000 A 
ATOM     25  C   UNL     1      48.971   4.363  16.541  0.00  0.00    +0.000 A 
ATOM     26  C   UNL     1      49.791   3.550  17.322  0.00  0.00    +0.000 A 
ATOM     27  C   UNL     1      50.450   4.158  18.381  0.00  0.00    +0.000 A 
ATOM     28  N   UNL     1      50.356   5.483  18.679  0.00  0.00    +0.000 NA
ATOM     29  H   UNL     1      50.114   7.746  19.030  0.00  0.00    +0.000 HD
BRANCH  26  30
ATOM     30  C   UNL     1      49.915   2.123  16.966  0.00  0.00    +0.000 C 
ATOM     31  N   UNL     1      50.804   1.338  17.640  0.00  0.00    +0.000 N 
ATOM     32  O   UNL     1      49.229   1.633  16.068  0.00  0.00    +0.000 OA
ATOM     33  H   UNL     1      51.434   1.635  18.367  0.00  0.00    +0.000 HD
ATOM     34  H   UNL     1      50.864   0.371  17.339  0.00  0.00    +0.000 HD
ENDBRANCH  26  30
ENDBRANCH  21  22
ENDBRANCH   2  21
TORSDOF 6
ENDMDL
MODEL 6
REMARK VINA RESULT:    -6.816      3.407      6.151
REMARK INTER + INTRA:         -10.547
REMARK INTER:                  -9.350
REMARK INTRA:                  -1.197
REMARK UNBOUND:                -1.341
REMARK  Name = 
REMARK  8 active torsions:
REMARK  status: ('A' for Active; 'I' for Inactive)
REMARK    1  A    between atoms: C_1  and  C_2
REMARK    2  A    between atoms: C_2  and  C_3
REMARK    3  A    between atoms: C_2  and  C_4
REMARK    4  A    between atoms: C_2  and  C_15
REMARK    5  A    between atoms: C_4  and  N_5
REMARK    6  A    between atoms: C_9  and  C_10
REMARK    7  A    between atoms: C_19  and  C_20
REMARK    8  A    between atoms: C_23  and  C_24
REMARK                            x       y       z     vdW  Elec       q    Type
REMARK                         _______ _______ _______ _____ _____    ______ ____
ROOT
ATOM      1  C   UNL     1      50.386   7.554  14.860  0.00  0.00    +0.000 C 
ATOM      2  C   UNL     1      49.041   7.512  15.622  0.00  0.00    +0.000 C 
ATOM      3  C   UNL     1      48.805   8.904  16.257  0.00  0.00    +0.000 C 
ENDROOT
BRANCH   2   4
ATOM      4  C   UNL     1      49.059   6.476  16.763  0.00  0.00    +0.000 A 
ATOM      5  C   UNL     1      48.052   6.443  17.737  0.00  0.00    +0.000 A 
ATOM      6  C   UNL     1      48.045   5.457  18.727  0.00  0.00    +0.000 A 
ATOM      7  C   UNL     1      49.057   4.496  18.775  0.00  0.00    +0.000 A 
ATOM      8  C   UNL     1      50.081   4.486  17.824  0.00  0.00    +0.000 A 
ATOM      9  C   UNL     1      50.043   5.474  16.828  0.00  0.00    +0.000 A 
BRANCH   8  10
ATOM     10  C   UNL     1      51.148   3.465  17.804  0.00  0.00    +0.000 A 
ATOM     11  C   UNL     1      50.893   2.134  17.408  0.00  0.00    +0.000 A 
ATOM     12  C   UNL     1      51.893   1.159  17.437  0.00  0.00    +0.000 A 
ATOM     13  C   UNL     1      53.186   1.492  17.850  0.00  0.00    +0.000 A 
ATOM     14  C   UNL     1      53.445   2.801  18.237  0.00  0.00    +0.000 A 
ATOM     15  F   UNL     1      54.674   3.153  18.636  0.00  0.00    +0.000 F 
ATOM     16  C   UNL     1      52.448   3.774  18.225  0.00  0.00    +0.000 A 
BRANCH  13  17
ATOM     17  C   UNL     1      54.294   0.487  17.886  0.00  0.00    +0.000 C 
ATOM     18  F   UNL     1      53.906  -0.746  17.446  0.00  0.00    +0.000 F 
ATOM     19  F   UNL     1      55.351   0.836  17.104  0.00  0.00    +0.000 F 
ATOM     20  F   UNL     1      54.791   0.287  19.137  0.00  0.00    +0.000 F 
ENDBRANCH  13  17
ENDBRANCH   8  10
ENDBRANCH   2   4
BRANCH   2  21
ATOM     21  C   UNL     1      47.902   7.282  14.573  0.00  0.00    +0.000 C 
BRANCH  21  22
ATOM     22  N   UNL     1      47.624   5.862  14.354  0.00  0.00    +0.000 N 
ATOM     23  C   UNL     1      46.683   5.477  13.422  0.00  0.00    +0.000 A 
ATOM     24  C   UNL     1      46.492   6.162  12.230  0.00  0.00    +0.000 A 
ATOM     25  C   UNL     1      45.607   5.658  11.283  0.00  0.00    +0.000 A 
ATOM     26  C   UNL     1      44.931   4.463  11.530  0.00  0.00    +0.000 A 
ATOM     27  C   UNL     1      45.162   3.856  12.756  0.00  0.00    +0.000 A 
ATOM     28  N   UNL     1      46.011   4.341  13.702  0.00  0.00    +0.000 NA
ATOM     29  H   UNL     1      47.506   5.280  15.182  0.00  0.00    +0.000 HD
BRANCH  26  30
ATOM     30  C   UNL     1      44.043   3.926  10.482  0.00  0.00    +0.000 C 
ATOM     31  N   UNL     1      43.995   4.538   9.264  0.00  0.00    +0.000 N 
ATOM     32  O   UNL     1      43.342   2.935  10.693  0.00  0.00    +0.000 OA
ATOM     33  H   UNL     1      44.497   5.366   8.990  0.00  0.00    +0.000 HD
ATOM     34  H   UNL     1      43.350   4.140   8.589  0.00  0.00    +0.000 HD
ENDBRANCH  26  30
ENDBRANCH  21  22
ENDBRANCH   2  21
TORSDOF 6
ENDMDL
MODEL 7
REMARK VINA RESULT:    -6.792      2.751      5.041
REMARK INTER + INTRA:         -10.515
REMARK INTER:                  -9.518
REMARK INTRA:                  -0.997
REMARK UNBOUND:                -1.341
REMARK  Name = 
REMARK  8 active torsions:
REMARK  status: ('A' for Active; 'I' for Inactive)
REMARK    1  A    between atoms: C_1  and  C_2
REMARK    2  A    between atoms: C_2  and  C_3
REMARK    3  A    between atoms: C_2  and  C_4
REMARK    4  A    between atoms: C_2  and  C_15
REMARK    5  A    between atoms: C_4  and  N_5
REMARK    6  A    between atoms: C_9  and  C_10
REMARK    7  A    between atoms: C_19  and  C_20
REMARK    8  A    between atoms: C_23  and  C_24
REMARK                            x       y       z     vdW  Elec       q    Type
REMARK                         _______ _______ _______ _____ _____    ______ ____
ROOT
ATOM      1  C   UNL     1      49.390   7.672  12.876  0.00  0.00    +0.000 C 
ATOM      2  C   UNL     1      48.506   8.492  13.844  0.00  0.00    +0.000 C 
ATOM      3  C   UNL     1      48.814   9.992  13.621  0.00  0.00    +0.000 C 
ENDROOT
BRANCH   2   4
ATOM      4  C   UNL     1      48.813   8.167  15.318  0.00  0.00    +0.000 A 
ATOM      5  C   UNL     1      48.310   8.955  16.362  0.00  0.00    +0.000 A 
ATOM      6  C   UNL     1      48.542   8.611  17.696  0.00  0.00    +0.000 A 
ATOM      7  C   UNL     1      49.298   7.482  18.014  0.00  0.00    +0.000 A 
ATOM      8  C   UNL     1      49.819   6.662  17.008  0.00  0.00    +0.000 A 
ATOM      9  C   UNL     1      49.545   7.022  15.680  0.00  0.00    +0.000 A 
BRANCH   8  10
ATOM     10  C   UNL     1      50.586   5.432  17.292  0.00  0.00    +0.000 A 
ATOM     11  C   UNL     1      51.967   5.471  17.584  0.00  0.00    +0.000 A 
ATOM     12  C   UNL     1      52.701   4.302  17.804  0.00  0.00    +0.000 A 
ATOM     13  C   UNL     1      52.068   3.057  17.754  0.00  0.00    +0.000 A 
ATOM     14  C   UNL     1      50.709   3.012  17.472  0.00  0.00    +0.000 A 
ATOM     15  F   UNL     1      50.072   1.835  17.418  0.00  0.00    +0.000 F 
ATOM     16  C   UNL     1      49.975   4.173  17.235  0.00  0.00    +0.000 A 
BRANCH  13  17
ATOM     17  C   UNL     1      52.807   1.779  17.995  0.00  0.00    +0.000 C 
ATOM     18  F   UNL     1      53.559   1.808  19.134  0.00  0.00    +0.000 F 
ATOM     19  F   UNL     1      51.979   0.707  18.132  0.00  0.00    +0.000 F 
ATOM     20  F   UNL     1      53.675   1.469  16.994  0.00  0.00    +0.000 F 
ENDBRANCH  13  17
ENDBRANCH   8  10
ENDBRANCH   2   4
BRANCH   2  21
ATOM     21  C   UNL     1      47.011   8.261  13.441  0.00  0.00    +0.000 C 
BRANCH  21  22
ATOM     22  N   UNL     1      46.583   6.878  13.656  0.00  0.00    +0.000 N 
ATOM     23  C   UNL     1      45.968   6.178  12.639  0.00  0.00    +0.000 A 
ATOM     24  C   UNL     1      46.321   6.338  11.306  0.00  0.00    +0.000 A 
ATOM     25  C   UNL     1      45.742   5.521  10.340  0.00  0.00    +0.000 A 
ATOM     26  C   UNL     1      44.826   4.541  10.718  0.00  0.00    +0.000 A 
ATOM     27  C   UNL     1      44.511   4.464  12.067  0.00  0.00    +0.000 A 
ATOM     28  N   UNL     1      45.054   5.264  13.025  0.00  0.00    +0.000 NA
ATOM     29  H   UNL     1      46.087   6.676  14.523  0.00  0.00    +0.000 HD
BRANCH  26  30
ATOM     30  C   UNL     1      44.273   3.653   9.677  0.00  0.00    +0.000 C 
ATOM     31  N   UNL     1      44.218   4.087   8.385  0.00  0.00    +0.000 N 
ATOM     32  O   UNL     1      43.858   2.528   9.959  0.00  0.00    +0.000 OA
ATOM     33  H   UNL     1      44.499   4.992   8.045  0.00  0.00    +0.000 HD
ATOM     34  H   UNL     1      43.808   3.445   7.714  0.00  0.00    +0.000 HD
ENDBRANCH  26  30
ENDBRANCH  21  22
ENDBRANCH   2  21
TORSDOF 6
ENDMDL
MODEL 8
REMARK VINA RESULT:    -6.742      5.736      7.999
REMARK INTER + INTRA:         -10.447
REMARK INTER:                  -8.631
REMARK INTRA:                  -1.816
REMARK UNBOUND:                -1.341
REMARK  Name = 
REMARK  8 active torsions:
REMARK  status: ('A' for Active; 'I' for Inactive)
REMARK    1  A    between atoms: C_1  and  C_2
REMARK    2  A    between atoms: C_2  and  C_3
REMARK    3  A    between atoms: C_2  and  C_4
REMARK    4  A    between atoms: C_2  and  C_15
REMARK    5  A    between atoms: C_4  and  N_5
REMARK    6  A    between atoms: C_9  and  C_10
REMARK    7  A    between atoms: C_19  and  C_20
REMARK    8  A    between atoms: C_23  and  C_24
REMARK                            x       y       z     vdW  Elec       q    Type
REMARK                         _______ _______ _______ _____ _____    ______ ____
ROOT
ATOM      1  C   UNL     1      45.286   4.916  10.719  0.00  0.00    +0.000 C 
ATOM      2  C   UNL     1      45.522   5.379  12.176  0.00  0.00    +0.000 C 
ATOM      3  C   UNL     1      44.158   5.384  12.906  0.00  0.00    +0.000 C 
ENDROOT
BRANCH   2   4
ATOM      4  C   UNL     1      46.090   6.810  12.239  0.00  0.00    +0.000 A 
ATOM      5  C   UNL     1      45.335   7.875  12.747  0.00  0.00    +0.000 A 
ATOM      6  C   UNL     1      45.886   9.155  12.859  0.00  0.00    +0.000 A 
ATOM      7  C   UNL     1      47.197   9.399  12.447  0.00  0.00    +0.000 A 
ATOM      8  C   UNL     1      47.992   8.367  11.936  0.00  0.00    +0.000 A 
ATOM      9  C   UNL     1      47.416   7.090  11.862  0.00  0.00    +0.000 A 
BRANCH   8  10
ATOM     10  C   UNL     1      49.398   8.564  11.529  0.00  0.00    +0.000 A 
ATOM     11  C   UNL     1      49.981   9.848  11.475  0.00  0.00    +0.000 A 
ATOM     12  C   UNL     1      51.297  10.036  11.043  0.00  0.00    +0.000 A 
ATOM     13  C   UNL     1      52.074   8.937  10.665  0.00  0.00    +0.000 A 
ATOM     14  C   UNL     1      51.508   7.670  10.721  0.00  0.00    +0.000 A 
ATOM     15  F   UNL     1      52.227   6.597  10.368  0.00  0.00    +0.000 F 
ATOM     16  C   UNL     1      50.191   7.478  11.136  0.00  0.00    +0.000 A 
BRANCH  13  17
ATOM     17  C   UNL     1      53.491   9.085  10.208  0.00  0.00    +0.000 C 
ATOM     18  F   UNL     1      53.729   8.474   9.011  0.00  0.00    +0.000 F 
ATOM     19  F   UNL     1      53.858  10.384  10.033  0.00  0.00    +0.000 F 
ATOM     20  F   UNL     1      54.390   8.546  11.077  0.00  0.00    +0.000 F 
ENDBRANCH  13  17
ENDBRANCH   8  10
ENDBRANCH   2   4
BRANCH   2  21
ATOM     21  C   UNL     1      46.421   4.308  12.879  0.00  0.00    +0.000 C 
BRANCH  21  22
ATOM     22  N   UNL     1      46.061   4.113  14.284  0.00  0.00    +0.000 N 
ATOM     23  C   UNL     1      46.975   4.391  15.279  0.00  0.00    +0.000 A 
ATOM     24  C   UNL     1      47.878   5.442  15.187  0.00  0.00    +0.000 A 
ATOM     25  C   UNL     1      48.697   5.739  16.271  0.00  0.00    +0.000 A 
ATOM     26  C   UNL     1      48.596   4.992  17.444  0.00  0.00    +0.000 A 
ATOM     27  C   UNL     1      47.686   3.945  17.442  0.00  0.00    +0.000 A 
ATOM     28  N   UNL     1      46.887   3.628  16.387  0.00  0.00    +0.000 NA
ATOM     29  H   UNL     1      45.588   3.243  14.525  0.00  0.00    +0.000 HD
BRANCH  26  30
ATOM     30  C   UNL     1      49.439   5.369  18.594  0.00  0.00    +0.000 C 
ATOM     31  N   UNL     1      50.066   4.395  19.315  0.00  0.00    +0.000 N 
ATOM     32  O   UNL     1      49.581   6.550  18.916  0.00  0.00    +0.000 OA
ATOM     33  H   UNL     1      49.999   3.402  19.164  0.00  0.00    +0.000 HD
ATOM     34  H   UNL     1      50.614   4.709  20.109  0.00  0.00    +0.000 HD
ENDBRANCH  26  30
ENDBRANCH  21  22
ENDBRANCH   2  21
TORSDOF 6
ENDMDL
MODEL 9
REMARK VINA RESULT:    -6.675      3.948      5.161
REMARK INTER + INTRA:         -10.358
REMARK INTER:                  -8.916
REMARK INTRA:                  -1.441
REMARK UNBOUND:                -1.341
REMARK  Name = 
REMARK  8 active torsions:
REMARK  status: ('A' for Active; 'I' for Inactive)
REMARK    1  A    between atoms: C_1  and  C_2
REMARK    2  A    between atoms: C_2  and  C_3
REMARK    3  A    between atoms: C_2  and  C_4
REMARK    4  A    between atoms: C_2  and  C_15
REMARK    5  A    between atoms: C_4  and  N_5
REMARK    6  A    between atoms: C_9  and  C_10
REMARK    7  A    between atoms: C_19  and  C_20
REMARK    8  A    between atoms: C_23  and  C_24
REMARK                            x       y       z     vdW  Elec       q    Type
REMARK                         _______ _______ _______ _____ _____    ______ ____
ROOT
ATOM      1  C   UNL     1      42.924   5.907  12.739  0.00  0.00    +0.000 C 
ATOM      2  C   UNL     1      43.906   4.723  12.581  0.00  0.00    +0.000 C 
ATOM      3  C   UNL     1      43.299   3.496  13.304  0.00  0.00    +0.000 C 
ENDROOT
BRANCH   2   4
ATOM      4  C   UNL     1      45.272   5.018  13.231  0.00  0.00    +0.000 A 
ATOM      5  C   UNL     1      45.780   4.218  14.263  0.00  0.00    +0.000 A 
ATOM      6  C   UNL     1      47.048   4.458  14.798  0.00  0.00    +0.000 A 
ATOM      7  C   UNL     1      47.826   5.516  14.324  0.00  0.00    +0.000 A 
ATOM      8  C   UNL     1      47.364   6.341  13.294  0.00  0.00    +0.000 A 
ATOM      9  C   UNL     1      46.098   6.055  12.762  0.00  0.00    +0.000 A 
BRANCH   8  10
ATOM     10  C   UNL     1      48.167   7.444  12.727  0.00  0.00    +0.000 A 
ATOM     11  C   UNL     1      47.562   8.557  12.106  0.00  0.00    +0.000 A 
ATOM     12  C   UNL     1      48.324   9.575  11.527  0.00  0.00    +0.000 A 
ATOM     13  C   UNL     1      49.720   9.516  11.569  0.00  0.00    +0.000 A 
ATOM     14  C   UNL     1      50.322   8.425  12.184  0.00  0.00    +0.000 A 
ATOM     15  F   UNL     1      51.657   8.340  12.242  0.00  0.00    +0.000 F 
ATOM     16  C   UNL     1      49.567   7.399  12.748  0.00  0.00    +0.000 A 
BRANCH  13  17
ATOM     17  C   UNL     1      50.580  10.587  10.976  0.00  0.00    +0.000 C 
ATOM     18  F   UNL     1      51.501  10.100  10.094  0.00  0.00    +0.000 F 
ATOM     19  F   UNL     1      49.866  11.515  10.282  0.00  0.00    +0.000 F 
ATOM     20  F   UNL     1      51.296  11.272  11.909  0.00  0.00    +0.000 F 
ENDBRANCH  13  17
ENDBRANCH   8  10
ENDBRANCH   2   4
BRANCH   2  21
ATOM     21  C   UNL     1      43.991   4.369  11.058  0.00  0.00    +0.000 C 
BRANCH  21  22
ATOM     22  N   UNL     1      44.886   3.241  10.797  0.00  0.00    +0.000 N 
ATOM     23  C   UNL     1      45.446   3.078   9.547  0.00  0.00    +0.000 A 
ATOM     24  C   UNL     1      45.833   4.153   8.758  0.00  0.00    +0.000 A 
ATOM     25  C   UNL     1      46.494   3.919   7.557  0.00  0.00    +0.000 A 
ATOM     26  C   UNL     1      46.776   2.613   7.161  0.00  0.00    +0.000 A 
ATOM     27  C   UNL     1      46.333   1.597   7.996  0.00  0.00    +0.000 A 
ATOM     28  N   UNL     1      45.671   1.804   9.167  0.00  0.00    +0.000 NA
ATOM     29  H   UNL     1      44.589   2.326  11.132  0.00  0.00    +0.000 HD
BRANCH  26  30
ATOM     30  C   UNL     1      47.528   2.401   5.910  0.00  0.00    +0.000 C 
ATOM     31  N   UNL     1      47.664   3.431   5.026  0.00  0.00    +0.000 N 
ATOM     32  O   UNL     1      48.033   1.307   5.651  0.00  0.00    +0.000 OA
ATOM     33  H   UNL     1      47.273   4.354   5.118  0.00  0.00    +0.000 HD
ATOM     34  H   UNL     1      48.172   3.224   4.172  0.00  0.00    +0.000 HD
ENDBRANCH  26  30
ENDBRANCH  21  22
ENDBRANCH   2  21
TORSDOF 6
ENDMDL
