MODEL 1
REMARK VINA RESULT:    -7.208      0.000      0.000
REMARK INTER + INTRA:          -9.382
REMARK INTER:                  -8.894
REMARK INTRA:                  -0.488
REMARK UNBOUND:                -0.488
REMARK  Name = 
REMARK  4 active torsions:
REMARK  status: ('A' for Active; 'I' for Inactive)
REMARK    1  A    between atoms: C_2  and  C_3
REMARK    2  A    between atoms: C_6  and  N_7
REMARK    3  A    between atoms: N_7  and  C_8
REMARK    4  A    between atoms: C_8  and  C_9
REMARK                            x       y       z     vdW  Elec       q    Type
REMARK                         _______ _______ _______ _____ _____    ______ ____
ROOT
ATOM      1  N   UNL     1      43.788   4.040  10.324  0.00  0.00    +0.000 N 
ATOM      2  H   UNL     1      43.570   3.392  11.080  0.00  0.00    +0.000 HD
ENDROOT
BRANCH   1   6
ATOM      3  C   UNL     1      46.555   2.471   7.553  0.00  0.00    +0.000 A 
ATOM      4  C   UNL     1      45.876   1.596   8.407  0.00  0.00    +0.000 A 
ATOM      5  C   UNL     1      44.943   2.093   9.329  0.00  0.00    +0.000 A 
ATOM      6  C   UNL     1      44.693   3.465   9.425  0.00  0.00    +0.000 A 
ATOM      7  C   UNL     1      45.328   4.319   8.515  0.00  0.00    +0.000 A 
ATOM      8  C   UNL     1      46.268   3.834   7.601  0.00  0.00    +0.000 A 
BRANCH   3  10
ATOM      9  N   UNL     1      48.342   1.576   5.898  0.00  0.00    +0.000 NA
ATOM     10  C   UNL     1      47.543   1.973   6.638  0.00  0.00    +0.000 C 
ENDBRANCH   3  10
ENDBRANCH   1   6
BRANCH   1  11
ATOM     11  C   UNL     1      44.066   5.381  10.829  0.00  0.00    +0.000 C 
BRANCH  11  12
ATOM     12  C   UNL     1      45.118   5.347  11.909  0.00  0.00    +0.000 A 
ATOM     13  C   UNL     1      46.315   6.071  11.838  0.00  0.00    +0.000 A 
ATOM     14  C   UNL     1      47.270   5.940  12.844  0.00  0.00    +0.000 A 
ATOM     15  C   UNL     1      47.007   5.070  13.888  0.00  0.00    +0.000 A 
ATOM     16  N   UNL     1      45.879   4.336  13.984  0.00  0.00    +0.000 NA
ATOM     17  C   UNL     1      44.969   4.487  12.993  0.00  0.00    +0.000 A 
ENDBRANCH  11  12
ENDBRANCH   1  11
TORSDOF 4
ENDMDL
MODEL 2
REMARK VINA RESULT:    -6.894      1.322      5.893
REMARK INTER + INTRA:          -8.995
REMARK INTER:                  -8.636
REMARK INTRA:                  -0.359
REMARK UNBOUND:                -0.488
REMARK  Name = 
REMARK  4 active torsions:
REMARK  status: ('A' for Active; 'I' for Inactive)
REMARK    1  A    between atoms: C_2  and  C_3
REMARK    2  A    between atoms: C_6  and  N_7
REMARK    3  A    between atoms: N_7  and  C_8
REMARK    4  A    between atoms: C_8  and  C_9
REMARK                            x       y       z     vdW  Elec       q    Type
REMARK                         _______ _______ _______ _____ _____    ______ ____
ROOT
ATOM      1  N   UNL     1      44.937   5.160   9.459  0.00  0.00    +0.000 N 
ATOM      2  H   UNL     1      45.626   5.632   8.875  0.00  0.00    +0.000 HD
ENDROOT
BRANCH   1   6
ATOM      3  C   UNL     1      46.254   4.641  13.433  0.00  0.00    +0.000 A 
ATOM      4  C   UNL     1      46.644   5.786  12.731  0.00  0.00    +0.000 A 
ATOM      5  C   UNL     1      46.208   5.987  11.412  0.00  0.00    +0.000 A 
ATOM      6  C   UNL     1      45.402   5.041  10.773  0.00  0.00    +0.000 A 
ATOM      7  C   UNL     1      44.964   3.936  11.514  0.00  0.00    +0.000 A 
ATOM      8  C   UNL     1      45.401   3.722  12.824  0.00  0.00    +0.000 A 
BRANCH   3  10
ATOM      9  N   UNL     1      47.111   4.220  15.846  0.00  0.00    +0.000 NA
ATOM     10  C   UNL     1      46.730   4.411  14.768  0.00  0.00    +0.000 C 
ENDBRANCH   3  10
ENDBRANCH   1   6
BRANCH   1  11
ATOM     11  C   UNL     1      44.398   3.974   8.801  0.00  0.00    +0.000 C 
BRANCH  11  12
ATOM     12  C   UNL     1      45.502   3.121   8.229  0.00  0.00    +0.000 A 
ATOM     13  C   UNL     1      46.418   3.589   7.279  0.00  0.00    +0.000 A 
ATOM     14  C   UNL     1      47.373   2.725   6.747  0.00  0.00    +0.000 A 
ATOM     15  C   UNL     1      47.371   1.407   7.167  0.00  0.00    +0.000 A 
ATOM     16  N   UNL     1      46.492   0.908   8.061  0.00  0.00    +0.000 NA
ATOM     17  C   UNL     1      45.578   1.772   8.562  0.00  0.00    +0.000 A 
ENDBRANCH  11  12
ENDBRANCH   1  11
TORSDOF 4
ENDMDL
MODEL 3
REMARK VINA RESULT:    -6.602      1.348      5.808
REMARK INTER + INTRA:          -8.633
REMARK INTER:                  -8.283
REMARK INTRA:                  -0.351
REMARK UNBOUND:                -0.488
REMARK  Name = 
REMARK  4 active torsions:
REMARK  status: ('A' for Active; 'I' for Inactive)
REMARK    1  A    between atoms: C_2  and  C_3
REMARK    2  A    between atoms: C_6  and  N_7
REMARK    3  A    between atoms: N_7  and  C_8
REMARK    4  A    between atoms: C_8  and  C_9
REMARK                            x       y       z     vdW  Elec       q    Type
REMARK                         _______ _______ _______ _____ _____    ______ ____
ROOT
ATOM      1  N   UNL     1      44.852   5.174   9.828  0.00  0.00    +0.000 N 
ATOM      2  H   UNL     1      45.497   5.696   9.235  0.00  0.00    +0.000 HD
ENDROOT
BRANCH   1   6
ATOM      3  C   UNL     1      46.577   4.742  13.654  0.00  0.00    +0.000 A 
ATOM      4  C   UNL     1      45.828   3.687  13.121  0.00  0.00    +0.000 A 
ATOM      5  C   UNL     1      45.255   3.803  11.846  0.00  0.00    +0.000 A 
ATOM      6  C   UNL     1      45.401   4.976  11.099  0.00  0.00    +0.000 A 
ATOM      7  C   UNL     1      46.212   5.993  11.617  0.00  0.00    +0.000 A 
ATOM      8  C   UNL     1      46.777   5.892  12.892  0.00  0.00    +0.000 A 
BRANCH   3  10
ATOM      9  N   UNL     1      47.579   4.573  16.041  0.00  0.00    +0.000 NA
ATOM     10  C   UNL     1      47.130   4.645  14.975  0.00  0.00    +0.000 C 
ENDBRANCH   3  10
ENDBRANCH   1   6
BRANCH   1  11
ATOM     11  C   UNL     1      44.287   4.025   9.127  0.00  0.00    +0.000 C 
BRANCH  11  12
ATOM     12  C   UNL     1      45.367   3.212   8.460  0.00  0.00    +0.000 A 
ATOM     13  C   UNL     1      46.224   3.730   7.481  0.00  0.00    +0.000 A 
ATOM     14  C   UNL     1      47.157   2.901   6.861  0.00  0.00    +0.000 A 
ATOM     15  C   UNL     1      47.194   1.567   7.227  0.00  0.00    +0.000 A 
ATOM     16  N   UNL     1      46.372   1.021   8.147  0.00  0.00    +0.000 NA
ATOM     17  C   UNL     1      45.479   1.852   8.733  0.00  0.00    +0.000 A 
ENDBRANCH  11  12
ENDBRANCH   1  11
TORSDOF 4
ENDMDL
MODEL 4
REMARK VINA RESULT:    -6.462      1.375      6.034
REMARK INTER + INTRA:          -8.461
REMARK INTER:                  -8.123
REMARK INTRA:                  -0.339
REMARK UNBOUND:                -0.488
REMARK  Name = 
REMARK  4 active torsions:
REMARK  status: ('A' for Active; 'I' for Inactive)
REMARK    1  A    between atoms: C_2  and  C_3
REMARK    2  A    between atoms: C_6  and  N_7
REMARK    3  A    between atoms: N_7  and  C_8
REMARK    4  A    between atoms: C_8  and  C_9
REMARK                            x       y       z     vdW  Elec       q    Type
REMARK                         _______ _______ _______ _____ _____    ______ ____
ROOT
ATOM      1  N   UNL     1      44.309   2.869   9.238  0.00  0.00    +0.000 N 
ATOM      2  H   UNL     1      43.927   3.326   8.411  0.00  0.00    +0.000 HD
ENDROOT
BRANCH   1   6
ATOM      3  C   UNL     1      46.005   5.589  11.982  0.00  0.00    +0.000 A 
ATOM      4  C   UNL     1      45.868   5.969  10.643  0.00  0.00    +0.000 A 
ATOM      5  C   UNL     1      45.296   5.086   9.714  0.00  0.00    +0.000 A 
ATOM      6  C   UNL     1      44.877   3.811  10.103  0.00  0.00    +0.000 A 
ATOM      7  C   UNL     1      44.956   3.473  11.460  0.00  0.00    +0.000 A 
ATOM      8  C   UNL     1      45.535   4.342  12.390  0.00  0.00    +0.000 A 
BRANCH   3  10
ATOM      9  N   UNL     1      47.135   7.179  13.693  0.00  0.00    +0.000 NA
ATOM     10  C   UNL     1      46.628   6.471  12.927  0.00  0.00    +0.000 C 
ENDBRANCH   3  10
ENDBRANCH   1   6
BRANCH   1  11
ATOM     11  C   UNL     1      45.091   1.687   8.887  0.00  0.00    +0.000 C 
BRANCH  11  12
ATOM     12  C   UNL     1      46.064   1.990   7.775  0.00  0.00    +0.000 A 
ATOM     13  C   UNL     1      45.909   3.067   6.893  0.00  0.00    +0.000 A 
ATOM     14  C   UNL     1      46.814   3.248   5.848  0.00  0.00    +0.000 A 
ATOM     15  C   UNL     1      47.841   2.331   5.705  0.00  0.00    +0.000 A 
ATOM     16  N   UNL     1      48.013   1.267   6.517  0.00  0.00    +0.000 NA
ATOM     17  C   UNL     1      47.120   1.120   7.523  0.00  0.00    +0.000 A 
ENDBRANCH  11  12
ENDBRANCH   1  11
TORSDOF 4
ENDMDL
MODEL 5
REMARK VINA RESULT:    -5.593      1.796      2.121
REMARK INTER + INTRA:          -7.389
REMARK INTER:                  -7.024
REMARK INTRA:                  -0.365
REMARK UNBOUND:                -0.488
REMARK  Name = 
REMARK  4 active torsions:
REMARK  status: ('A' for Active; 'I' for Inactive)
REMARK    1  A    between atoms: C_2  and  C_3
REMARK    2  A    between atoms: C_6  and  N_7
REMARK    3  A    between atoms: N_7  and  C_8
REMARK    4  A    between atoms: C_8  and  C_9
REMARK                            x       y       z     vdW  Elec       q    Type
REMARK                         _______ _______ _______ _____ _____    ______ ____
ROOT
ATOM      1  N   UNL     1      45.145   5.510   9.451  0.00  0.00    +0.000 N 
ATOM      2  H   UNL     1      44.621   6.010   8.733  0.00  0.00    +0.000 HD
ENDROOT
BRANCH   1   6
ATOM      3  C   UNL     1      46.135   1.649   8.070  0.00  0.00    +0.000 A 
ATOM      4  C   UNL     1      45.220   1.783   9.119  0.00  0.00    +0.000 A 
ATOM      5  C   UNL     1      44.866   3.057   9.587  0.00  0.00    +0.000 A 
ATOM      6  C   UNL     1      45.435   4.207   9.034  0.00  0.00    +0.000 A 
ATOM      7  C   UNL     1      46.295   4.058   7.938  0.00  0.00    +0.000 A 
ATOM      8  C   UNL     1      46.662   2.792   7.472  0.00  0.00    +0.000 A 
BRANCH   3  10
ATOM      9  N   UNL     1      46.855  -0.703   7.242  0.00  0.00    +0.000 NA
ATOM     10  C   UNL     1      46.533   0.346   7.615  0.00  0.00    +0.000 C 
ENDBRANCH   3  10
ENDBRANCH   1   6
BRANCH   1  11
ATOM     11  C   UNL     1      44.560   5.702  10.775  0.00  0.00    +0.000 C 
BRANCH  11  12
ATOM     12  C   UNL     1      45.432   6.585  11.631  0.00  0.00    +0.000 A 
ATOM     13  C   UNL     1      46.666   6.174  12.149  0.00  0.00    +0.000 A 
ATOM     14  C   UNL     1      47.389   7.022  12.986  0.00  0.00    +0.000 A 
ATOM     15  C   UNL     1      46.844   8.255  13.298  0.00  0.00    +0.000 A 
ATOM     16  N   UNL     1      45.649   8.682  12.840  0.00  0.00    +0.000 NA
ATOM     17  C   UNL     1      44.973   7.837  12.027  0.00  0.00    +0.000 A 
ENDBRANCH  11  12
ENDBRANCH   1  11
TORSDOF 4
ENDMDL
MODEL 6
REMARK VINA RESULT:    -5.069      2.250      6.126
REMARK INTER + INTRA:          -6.742
REMARK INTER:                  -6.281
REMARK INTRA:                  -0.461
REMARK UNBOUND:                -0.488
REMARK  Name = 
REMARK  4 active torsions:
REMARK  status: ('A' for Active; 'I' for Inactive)
REMARK    1  A    between atoms: C_2  and  C_3
REMARK    2  A    between atoms: C_6  and  N_7
REMARK    3  A    between atoms: N_7  and  C_8
REMARK    4  A    between atoms: C_8  and  C_9
REMARK                            x       y       z     vdW  Elec       q    Type
REMARK                         _______ _______ _______ _____ _____    ______ ____
ROOT
ATOM      1  N   UNL     1      44.401   5.101  12.368  0.00  0.00    +0.000 N 
ATOM      2  H   UNL     1      43.662   5.106  13.071  0.00  0.00    +0.000 HD
ENDROOT
BRANCH   1   6
ATOM      3  C   UNL     1      47.417   7.847  13.446  0.00  0.00    +0.000 A 
ATOM      4  C   UNL     1      47.696   6.477  13.490  0.00  0.00    +0.000 A 
ATOM      5  C   UNL     1      46.713   5.545  13.125  0.00  0.00    +0.000 A 
ATOM      6  C   UNL     1      45.438   5.965  12.735  0.00  0.00    +0.000 A 
ATOM      7  C   UNL     1      45.199   7.341  12.629  0.00  0.00    +0.000 A 
ATOM      8  C   UNL     1      46.168   8.276  13.002  0.00  0.00    +0.000 A 
BRANCH   3  10
ATOM      9  N   UNL     1      49.208   9.569  14.195  0.00  0.00    +0.000 NA
ATOM     10  C   UNL     1      48.406   8.802  13.859  0.00  0.00    +0.000 C 
ENDBRANCH   3  10
ENDBRANCH   1   6
BRANCH   1  11
ATOM     11  C   UNL     1      43.857   5.202  11.017  0.00  0.00    +0.000 C 
BRANCH  11  12
ATOM     12  C   UNL     1      44.579   4.276  10.070  0.00  0.00    +0.000 A 
ATOM     13  C   UNL     1      45.393   4.730   9.025  0.00  0.00    +0.000 A 
ATOM     14  C   UNL     1      45.978   3.816   8.150  0.00  0.00    +0.000 A 
ATOM     15  C   UNL     1      45.715   2.470   8.336  0.00  0.00    +0.000 A 
ATOM     16  N   UNL     1      44.919   1.991   9.314  0.00  0.00    +0.000 NA
ATOM     17  C   UNL     1      44.368   2.903  10.150  0.00  0.00    +0.000 A 
ENDBRANCH  11  12
ENDBRANCH   1  11
TORSDOF 4
ENDMDL
MODEL 7
REMARK VINA RESULT:    -4.989      2.904      6.067
REMARK INTER + INTRA:          -6.644
REMARK INTER:                  -6.275
REMARK INTRA:                  -0.369
REMARK UNBOUND:                -0.488
REMARK  Name = 
REMARK  4 active torsions:
REMARK  status: ('A' for Active; 'I' for Inactive)
REMARK    1  A    between atoms: C_2  and  C_3
REMARK    2  A    between atoms: C_6  and  N_7
REMARK    3  A    between atoms: N_7  and  C_8
REMARK    4  A    between atoms: C_8  and  C_9
REMARK                            x       y       z     vdW  Elec       q    Type
REMARK                         _______ _______ _______ _____ _____    ______ ____
ROOT
ATOM      1  N   UNL     1      45.917   5.784  13.517  0.00  0.00    +0.000 N 
ATOM      2  H   UNL     1      45.954   5.767  14.535  0.00  0.00    +0.000 HD
ENDROOT
BRANCH   1   6
ATOM      3  C   UNL     1      48.248   8.940  11.968  0.00  0.00    +0.000 A 
ATOM      4  C   UNL     1      46.947   9.206  12.407  0.00  0.00    +0.000 A 
ATOM      5  C   UNL     1      46.157   8.176  12.937  0.00  0.00    +0.000 A 
ATOM      6  C   UNL     1      46.644   6.868  13.013  0.00  0.00    +0.000 A 
ATOM      7  C   UNL     1      47.972   6.633  12.636  0.00  0.00    +0.000 A 
ATOM      8  C   UNL     1      48.763   7.651  12.095  0.00  0.00    +0.000 A 
BRANCH   3  10
ATOM      9  N   UNL     1      49.686  10.828  10.917  0.00  0.00    +0.000 NA
ATOM     10  C   UNL     1      49.046   9.982  11.385  0.00  0.00    +0.000 C 
ENDBRANCH   3  10
ENDBRANCH   1   6
BRANCH   1  11
ATOM     11  C   UNL     1      44.558   5.570  13.026  0.00  0.00    +0.000 C 
BRANCH  11  12
ATOM     12  C   UNL     1      44.561   4.737  11.768  0.00  0.00    +0.000 A 
ATOM     13  C   UNL     1      45.154   5.157  10.572  0.00  0.00    +0.000 A 
ATOM     14  C   UNL     1      45.061   4.362   9.431  0.00  0.00    +0.000 A 
ATOM     15  C   UNL     1      44.358   3.174   9.516  0.00  0.00    +0.000 A 
ATOM     16  N   UNL     1      43.751   2.742  10.641  0.00  0.00    +0.000 NA
ATOM     17  C   UNL     1      43.861   3.535  11.733  0.00  0.00    +0.000 A 
ENDBRANCH  11  12
ENDBRANCH   1  11
TORSDOF 4
ENDMDL
MODEL 8
REMARK VINA RESULT:    -4.954      2.154      6.695
REMARK INTER + INTRA:          -6.600
REMARK INTER:                  -6.245
REMARK INTRA:                  -0.355
REMARK UNBOUND:                -0.488
REMARK  Name = 
REMARK  4 active torsions:
REMARK  status: ('A' for Active; 'I' for Inactive)
REMARK    1  A    between atoms: C_2  and  C_3
REMARK    2  A    between atoms: C_6  and  N_7
REMARK    3  A    between atoms: N_7  and  C_8
REMARK    4  A    between atoms: C_8  and  C_9
REMARK                            x       y       z     vdW  Elec       q    Type
REMARK                         _______ _______ _______ _____ _____    ______ ____
ROOT
ATOM      1  N   UNL     1      46.375   5.949  11.919  0.00  0.00    +0.000 N 
ATOM      2  H   UNL     1      47.055   5.705  11.200  0.00  0.00    +0.000 HD
ENDROOT
BRANCH   1   6
ATOM      3  C   UNL     1      47.924   5.099  15.751  0.00  0.00    +0.000 A 
ATOM      4  C   UNL     1      47.067   4.176  15.142  0.00  0.00    +0.000 A 
ATOM      5  C   UNL     1      46.550   4.430  13.863  0.00  0.00    +0.000 A 
ATOM      6  C   UNL     1      46.859   5.615  13.189  0.00  0.00    +0.000 A 
ATOM      7  C   UNL     1      47.772   6.495  13.782  0.00  0.00    +0.000 A 
ATOM      8  C   UNL     1      48.285   6.255  15.061  0.00  0.00    +0.000 A 
BRANCH   3  10
ATOM      9  N   UNL     1      48.826   4.679  18.147  0.00  0.00    +0.000 NA
ATOM     10  C   UNL     1      48.422   4.863  17.076  0.00  0.00    +0.000 C 
ENDBRANCH   3  10
ENDBRANCH   1   6
BRANCH   1  11
ATOM     11  C   UNL     1      45.028   5.520  11.553  0.00  0.00    +0.000 C 
BRANCH  11  12
ATOM     12  C   UNL     1      45.052   4.644  10.326  0.00  0.00    +0.000 A 
ATOM     13  C   UNL     1      44.577   3.327  10.315  0.00  0.00    +0.000 A 
ATOM     14  C   UNL     1      44.690   2.555   9.160  0.00  0.00    +0.000 A 
ATOM     15  C   UNL     1      45.295   3.120   8.051  0.00  0.00    +0.000 A 
ATOM     16  N   UNL     1      45.788   4.376   8.026  0.00  0.00    +0.000 NA
ATOM     17  C   UNL     1      45.661   5.101   9.162  0.00  0.00    +0.000 A 
ENDBRANCH  11  12
ENDBRANCH   1  11
TORSDOF 4
ENDMDL
MODEL 9
REMARK VINA RESULT:    -4.792      3.741      7.940
REMARK INTER + INTRA:          -6.401
REMARK INTER:                  -6.136
REMARK INTRA:                  -0.264
REMARK UNBOUND:                -0.488
REMARK  Name = 
REMARK  4 active torsions:
REMARK  status: ('A' for Active; 'I' for Inactive)
REMARK    1  A    between atoms: C_2  and  C_3
REMARK    2  A    between atoms: C_6  and  N_7
REMARK    3  A    between atoms: N_7  and  C_8
REMARK    4  A    between atoms: C_8  and  C_9
REMARK                            x       y       z     vdW  Elec       q    Type
REMARK                         _______ _______ _______ _____ _____    ______ ____
ROOT
ATOM      1  N   UNL     1      46.808   3.651  14.677  0.00  0.00    +0.000 N 
ATOM      2  H   UNL     1      45.965   3.123  14.900  0.00  0.00    +0.000 HD
ENDROOT
BRANCH   1   6
ATOM      3  C   UNL     1      49.112   4.478  18.113  0.00  0.00    +0.000 A 
ATOM      4  C   UNL     1      48.777   3.152  17.821  0.00  0.00    +0.000 A 
ATOM      5  C   UNL     1      48.022   2.851  16.677  0.00  0.00    +0.000 A 
ATOM      6  C   UNL     1      47.574   3.867  15.828  0.00  0.00    +0.000 A 
ATOM      7  C   UNL     1      47.978   5.180  16.097  0.00  0.00    +0.000 A 
ATOM      8  C   UNL     1      48.720   5.491  17.240  0.00  0.00    +0.000 A 
BRANCH   3  10
ATOM      9  N   UNL     1      50.443   5.058  20.264  0.00  0.00    +0.000 NA
ATOM     10  C   UNL     1      49.848   4.796  19.304  0.00  0.00    +0.000 C 
ENDBRANCH   3  10
ENDBRANCH   1   6
BRANCH   1  11
ATOM     11  C   UNL     1      46.515   4.791  13.813  0.00  0.00    +0.000 C 
BRANCH  11  12
ATOM     12  C   UNL     1      45.258   4.557  13.014  0.00  0.00    +0.000 A 
ATOM     13  C   UNL     1      45.067   3.437  12.195  0.00  0.00    +0.000 A 
ATOM     14  C   UNL     1      43.905   3.320  11.435  0.00  0.00    +0.000 A 
ATOM     15  C   UNL     1      42.972   4.340  11.501  0.00  0.00    +0.000 A 
ATOM     16  N   UNL     1      43.126   5.446  12.258  0.00  0.00    +0.000 NA
ATOM     17  C   UNL     1      44.264   5.530  12.987  0.00  0.00    +0.000 A 
ENDBRANCH  11  12
ENDBRANCH   1  11
TORSDOF 4
ENDMDL
