MODEL 1
REMARK VINA RESULT:    -8.569      0.000      0.000
REMARK INTER + INTRA:         -10.652
REMARK INTER:                 -10.072
REMARK INTRA:                  -0.580
REMARK UNBOUND:                -0.580
REMARK  Name = 
REMARK  5 active torsions:
REMARK  status: ('A' for Active; 'I' for Inactive)
REMARK    1  A    between atoms: C_1  and  C_2
REMARK    2  A    between atoms: N_6  and  C_7
REMARK    3  A    between atoms: C_7  and  C_8
REMARK    4  A    between atoms: C_13  and  C_14
REMARK    5  A    between atoms: C_18  and  C_19
REMARK                            x       y       z     vdW  Elec       q    Type
REMARK                         _______ _______ _______ _____ _____    ______ ____
ROOT
ATOM      1  C   UNL     1      44.782   4.116  11.441  0.00  0.00    +0.000 A 
ATOM      2  C   UNL     1      45.509   3.544  12.490  0.00  0.00    +0.000 A 
ATOM      3  C   UNL     1      46.240   4.357  13.346  0.00  0.00    +0.000 A 
ATOM      4  F   UNL     1      46.957   3.800  14.333  0.00  0.00    +0.000 F 
ATOM      5  C   UNL     1      46.255   5.742  13.196  0.00  0.00    +0.000 A 
ATOM      6  C   UNL     1      45.530   6.358  12.164  0.00  0.00    +0.000 A 
ATOM      7  C   UNL     1      44.795   5.518  11.299  0.00  0.00    +0.000 A 
ENDROOT
BRANCH   6   8
ATOM      8  C   UNL     1      45.546   7.826  11.976  0.00  0.00    +0.000 A 
ATOM      9  C   UNL     1      46.602   8.624  12.421  0.00  0.00    +0.000 A 
ATOM     10  N   UNL     1      46.671   9.974  12.305  0.00  0.00    +0.000 NA
ATOM     11  C   UNL     1      45.633  10.581  11.697  0.00  0.00    +0.000 A 
ATOM     12  C   UNL     1      44.528   9.907  11.197  0.00  0.00    +0.000 A 
ATOM     13  C   UNL     1      43.405  10.629  10.526  0.00  0.00    +0.000 C 
ATOM     14  C   UNL     1      44.496   8.515  11.348  0.00  0.00    +0.000 A 
ENDBRANCH   6   8
BRANCH   1  15
ATOM     15  C   UNL     1      43.992   3.255  10.476  0.00  0.00    +0.000 C 
BRANCH  15  21
ATOM     16  C   UNL     1      47.829   2.435   5.359  0.00  0.00    +0.000 C 
ATOM     17  C   UNL     1      46.958   2.361   6.565  0.00  0.00    +0.000 A 
ATOM     18  C   UNL     1      46.251   3.435   7.056  0.00  0.00    +0.000 A 
ATOM     19  N   UNL     1      45.512   3.399   8.186  0.00  0.00    +0.000 NA
ATOM     20  C   UNL     1      45.456   2.231   8.845  0.00  0.00    +0.000 A 
ATOM     21  N   UNL     1      44.789   2.132  10.049  0.00  0.00    +0.000 N 
ATOM     22  N   UNL     1      46.058   1.112   8.414  0.00  0.00    +0.000 NA
ATOM     23  C   UNL     1      46.813   1.207   7.303  0.00  0.00    +0.000 A 
ATOM     24  H   UNL     1      44.428   1.195  10.171  0.00  0.00    +0.000 HD
ENDBRANCH  15  21
ENDBRANCH   1  15
TORSDOF 3
ENDMDL
MODEL 2
REMARK VINA RESULT:    -8.266      2.394      4.279
REMARK INTER + INTRA:         -10.295
REMARK INTER:                  -9.805
REMARK INTRA:                  -0.491
REMARK UNBOUND:                -0.580
REMARK  Name = 
REMARK  5 active torsions:
REMARK  status: ('A' for Active; 'I' for Inactive)
REMARK    1  A    between atoms: C_1  and  C_2
REMARK    2  A    between atoms: N_6  and  C_7
REMARK    3  A    between atoms: C_7  and  C_8
REMARK    4  A    between atoms: C_13  and  C_14
REMARK    5  A    between atoms: C_18  and  C_19
REMARK                            x       y       z     vdW  Elec       q    Type
REMARK                         _______ _______ _______ _____ _____    ______ ____
ROOT
ATOM      1  C   UNL     1      44.568   4.625  11.508  0.00  0.00    +0.000 A 
ATOM      2  C   UNL     1      44.387   5.916  11.000  0.00  0.00    +0.000 A 
ATOM      3  C   UNL     1      45.045   6.986  11.590  0.00  0.00    +0.000 A 
ATOM      4  F   UNL     1      44.847   8.225  11.116  0.00  0.00    +0.000 F 
ATOM      5  C   UNL     1      45.901   6.805  12.674  0.00  0.00    +0.000 A 
ATOM      6  C   UNL     1      46.120   5.525  13.208  0.00  0.00    +0.000 A 
ATOM      7  C   UNL     1      45.440   4.446  12.600  0.00  0.00    +0.000 A 
ENDROOT
BRANCH   6   8
ATOM      8  C   UNL     1      47.012   5.312  14.370  0.00  0.00    +0.000 A 
ATOM      9  C   UNL     1      48.099   6.147  14.639  0.00  0.00    +0.000 A 
ATOM     10  N   UNL     1      48.969   5.996  15.669  0.00  0.00    +0.000 NA
ATOM     11  C   UNL     1      48.747   4.959  16.500  0.00  0.00    +0.000 A 
ATOM     12  C   UNL     1      47.698   4.064  16.355  0.00  0.00    +0.000 A 
ATOM     13  C   UNL     1      47.494   2.932  17.310  0.00  0.00    +0.000 C 
ATOM     14  C   UNL     1      46.830   4.252  15.272  0.00  0.00    +0.000 A 
ENDBRANCH   6   8
BRANCH   1  15
ATOM     15  C   UNL     1      43.847   3.438  10.901  0.00  0.00    +0.000 C 
BRANCH  15  21
ATOM     16  C   UNL     1      47.191   2.706   5.437  0.00  0.00    +0.000 C 
ATOM     17  C   UNL     1      46.488   2.625   6.748  0.00  0.00    +0.000 A 
ATOM     18  C   UNL     1      45.640   3.602   7.215  0.00  0.00    +0.000 A 
ATOM     19  N   UNL     1      45.049   3.571   8.429  0.00  0.00    +0.000 NA
ATOM     20  C   UNL     1      45.298   2.505   9.205  0.00  0.00    +0.000 A 
ATOM     21  N   UNL     1      44.800   2.436  10.490  0.00  0.00    +0.000 N 
ATOM     22  N   UNL     1      46.061   1.473   8.816  0.00  0.00    +0.000 NA
ATOM     23  C   UNL     1      46.656   1.565   7.612  0.00  0.00    +0.000 A 
ATOM     24  H   UNL     1      44.648   1.472  10.754  0.00  0.00    +0.000 HD
ENDBRANCH  15  21
ENDBRANCH   1  15
TORSDOF 3
ENDMDL
MODEL 3
REMARK VINA RESULT:    -8.064      3.516      7.488
REMARK INTER + INTRA:         -10.058
REMARK INTER:                  -9.600
REMARK INTRA:                  -0.458
REMARK UNBOUND:                -0.580
REMARK  Name = 
REMARK  5 active torsions:
REMARK  status: ('A' for Active; 'I' for Inactive)
REMARK    1  A    between atoms: C_1  and  C_2
REMARK    2  A    between atoms: N_6  and  C_7
REMARK    3  A    between atoms: C_7  and  C_8
REMARK    4  A    between atoms: C_13  and  C_14
REMARK    5  A    between atoms: C_18  and  C_19
REMARK                            x       y       z     vdW  Elec       q    Type
REMARK                         _______ _______ _______ _____ _____    ______ ____
ROOT
ATOM      1  C   UNL     1      45.139   5.032  12.714  0.00  0.00    +0.000 A 
ATOM      2  C   UNL     1      43.775   5.340  12.740  0.00  0.00    +0.000 A 
ATOM      3  C   UNL     1      42.996   5.111  11.613  0.00  0.00    +0.000 A 
ATOM      4  F   UNL     1      41.695   5.434  11.633  0.00  0.00    +0.000 F 
ATOM      5  C   UNL     1      43.540   4.563  10.453  0.00  0.00    +0.000 A 
ATOM      6  C   UNL     1      44.902   4.229  10.389  0.00  0.00    +0.000 A 
ATOM      7  C   UNL     1      45.682   4.471  11.542  0.00  0.00    +0.000 A 
ENDROOT
BRANCH   6   8
ATOM      8  C   UNL     1      45.504   3.661   9.162  0.00  0.00    +0.000 A 
ATOM      9  C   UNL     1      45.835   4.451   8.059  0.00  0.00    +0.000 A 
ATOM     10  N   UNL     1      46.364   3.995   6.896  0.00  0.00    +0.000 NA
ATOM     11  C   UNL     1      46.596   2.670   6.816  0.00  0.00    +0.000 A 
ATOM     12  C   UNL     1      46.326   1.776   7.842  0.00  0.00    +0.000 A 
ATOM     13  C   UNL     1      46.607   0.314   7.704  0.00  0.00    +0.000 C 
ATOM     14  C   UNL     1      45.771   2.290   9.021  0.00  0.00    +0.000 A 
ENDBRANCH   6   8
BRANCH   1  15
ATOM     15  C   UNL     1      46.022   5.290  13.919  0.00  0.00    +0.000 C 
BRANCH  15  21
ATOM     16  C   UNL     1      50.367   3.915  18.481  0.00  0.00    +0.000 C 
ATOM     17  C   UNL     1      49.364   3.972  17.380  0.00  0.00    +0.000 A 
ATOM     18  C   UNL     1      48.909   5.148  16.831  0.00  0.00    +0.000 A 
ATOM     19  N   UNL     1      47.952   5.216  15.880  0.00  0.00    +0.000 NA
ATOM     20  C   UNL     1      47.440   4.056  15.441  0.00  0.00    +0.000 A 
ATOM     21  N   UNL     1      46.403   4.041  14.532  0.00  0.00    +0.000 N 
ATOM     22  N   UNL     1      47.861   2.856  15.870  0.00  0.00    +0.000 NA
ATOM     23  C   UNL     1      48.791   2.840  16.843  0.00  0.00    +0.000 A 
ATOM     24  H   UNL     1      46.449   3.207  13.963  0.00  0.00    +0.000 HD
ENDBRANCH  15  21
ENDBRANCH   1  15
TORSDOF 3
ENDMDL
MODEL 4
REMARK VINA RESULT:    -7.817      1.712      2.533
REMARK INTER + INTRA:          -9.768
REMARK INTER:                  -9.169
REMARK INTRA:                  -0.599
REMARK UNBOUND:                -0.580
REMARK  Name = 
REMARK  5 active torsions:
REMARK  status: ('A' for Active; 'I' for Inactive)
REMARK    1  A    between atoms: C_1  and  C_2
REMARK    2  A    between atoms: N_6  and  C_7
REMARK    3  A    between atoms: C_7  and  C_8
REMARK    4  A    between atoms: C_13  and  C_14
REMARK    5  A    between atoms: C_18  and  C_19
REMARK                            x       y       z     vdW  Elec       q    Type
REMARK                         _______ _______ _______ _____ _____    ______ ____
ROOT
ATOM      1  C   UNL     1      45.328   4.989  11.709  0.00  0.00    +0.000 A 
ATOM      2  C   UNL     1      45.484   4.368  12.953  0.00  0.00    +0.000 A 
ATOM      3  C   UNL     1      46.363   4.903  13.885  0.00  0.00    +0.000 A 
ATOM      4  F   UNL     1      46.530   4.288  15.065  0.00  0.00    +0.000 F 
ATOM      5  C   UNL     1      47.089   6.061  13.616  0.00  0.00    +0.000 A 
ATOM      6  C   UNL     1      46.954   6.722  12.385  0.00  0.00    +0.000 A 
ATOM      7  C   UNL     1      46.058   6.164  11.446  0.00  0.00    +0.000 A 
ENDROOT
BRANCH   6   8
ATOM      8  C   UNL     1      47.728   7.945  12.073  0.00  0.00    +0.000 A 
ATOM      9  C   UNL     1      47.152   9.217  12.087  0.00  0.00    +0.000 A 
ATOM     10  N   UNL     1      47.794  10.374  11.789  0.00  0.00    +0.000 NA
ATOM     11  C   UNL     1      49.099  10.274  11.465  0.00  0.00    +0.000 A 
ATOM     12  C   UNL     1      49.796   9.076  11.426  0.00  0.00    +0.000 A 
ATOM     13  C   UNL     1      51.246   9.021  11.066  0.00  0.00    +0.000 C 
ATOM     14  C   UNL     1      49.089   7.905  11.732  0.00  0.00    +0.000 A 
ENDBRANCH   6   8
BRANCH   1  15
ATOM     15  C   UNL     1      44.392   4.417  10.662  0.00  0.00    +0.000 C 
BRANCH  15  21
ATOM     16  C   UNL     1      47.800   2.241   5.639  0.00  0.00    +0.000 C 
ATOM     17  C   UNL     1      46.947   2.490   6.836  0.00  0.00    +0.000 A 
ATOM     18  C   UNL     1      46.599   3.748   7.269  0.00  0.00    +0.000 A 
ATOM     19  N   UNL     1      45.883   3.989   8.389  0.00  0.00    +0.000 NA
ATOM     20  C   UNL     1      45.477   2.925   9.098  0.00  0.00    +0.000 A 
ATOM     21  N   UNL     1      44.812   3.087  10.296  0.00  0.00    +0.000 N 
ATOM     22  N   UNL     1      45.713   1.658   8.725  0.00  0.00    +0.000 NA
ATOM     23  C   UNL     1      46.460   1.468   7.622  0.00  0.00    +0.000 A 
ATOM     24  H   UNL     1      44.185   2.310  10.455  0.00  0.00    +0.000 HD
ENDBRANCH  15  21
ENDBRANCH   1  15
TORSDOF 3
ENDMDL
MODEL 5
REMARK VINA RESULT:    -7.498      2.538      6.745
REMARK INTER + INTRA:          -9.393
REMARK INTER:                  -9.130
REMARK INTRA:                  -0.263
REMARK UNBOUND:                -0.580
REMARK  Name = 
REMARK  5 active torsions:
REMARK  status: ('A' for Active; 'I' for Inactive)
REMARK    1  A    between atoms: C_1  and  C_2
REMARK    2  A    between atoms: N_6  and  C_7
REMARK    3  A    between atoms: C_7  and  C_8
REMARK    4  A    between atoms: C_13  and  C_14
REMARK    5  A    between atoms: C_18  and  C_19
REMARK                            x       y       z     vdW  Elec       q    Type
REMARK                         _______ _______ _______ _____ _____    ______ ____
ROOT
ATOM      1  C   UNL     1      45.080   4.840  12.787  0.00  0.00    +0.000 A 
ATOM      2  C   UNL     1      43.737   5.231  12.785  0.00  0.00    +0.000 A 
ATOM      3  C   UNL     1      42.984   5.105  11.625  0.00  0.00    +0.000 A 
ATOM      4  F   UNL     1      41.705   5.509  11.620  0.00  0.00    +0.000 F 
ATOM      5  C   UNL     1      43.533   4.579  10.457  0.00  0.00    +0.000 A 
ATOM      6  C   UNL     1      44.873   4.164  10.418  0.00  0.00    +0.000 A 
ATOM      7  C   UNL     1      45.627   4.302  11.605  0.00  0.00    +0.000 A 
ENDROOT
BRANCH   6   8
ATOM      8  C   UNL     1      45.480   3.618   9.184  0.00  0.00    +0.000 A 
ATOM      9  C   UNL     1      45.798   4.424   8.089  0.00  0.00    +0.000 A 
ATOM     10  N   UNL     1      46.331   3.989   6.920  0.00  0.00    +0.000 NA
ATOM     11  C   UNL     1      46.581   2.668   6.826  0.00  0.00    +0.000 A 
ATOM     12  C   UNL     1      46.326   1.759   7.842  0.00  0.00    +0.000 A 
ATOM     13  C   UNL     1      46.627   0.303   7.688  0.00  0.00    +0.000 C 
ATOM     14  C   UNL     1      45.766   2.253   9.028  0.00  0.00    +0.000 A 
ENDBRANCH   6   8
BRANCH   1  15
ATOM     15  C   UNL     1      45.935   4.985  14.030  0.00  0.00    +0.000 C 
BRANCH  15  21
ATOM     16  C   UNL     1      49.127  10.091  11.725  0.00  0.00    +0.000 C 
ATOM     17  C   UNL     1      48.601   8.774  12.180  0.00  0.00    +0.000 A 
ATOM     18  C   UNL     1      47.312   8.584  12.623  0.00  0.00    +0.000 A 
ATOM     19  N   UNL     1      46.844   7.410  13.100  0.00  0.00    +0.000 NA
ATOM     20  C   UNL     1      47.693   6.372  13.116  0.00  0.00    +0.000 A 
ATOM     21  N   UNL     1      47.318   5.162  13.662  0.00  0.00    +0.000 N 
ATOM     22  N   UNL     1      48.949   6.440  12.649  0.00  0.00    +0.000 NA
ATOM     23  C   UNL     1      49.382   7.639  12.216  0.00  0.00    +0.000 A 
ATOM     24  H   UNL     1      47.808   4.405  13.204  0.00  0.00    +0.000 HD
ENDBRANCH  15  21
ENDBRANCH   1  15
TORSDOF 3
ENDMDL
MODEL 6
REMARK VINA RESULT:    -7.220      3.940      7.629
REMARK INTER + INTRA:          -9.067
REMARK INTER:                  -8.600
REMARK INTRA:                  -0.466
REMARK UNBOUND:                -0.580
REMARK  Name = 
REMARK  5 active torsions:
REMARK  status: ('A' for Active; 'I' for Inactive)
REMARK    1  A    between atoms: C_1  and  C_2
REMARK    2  A    between atoms: N_6  and  C_7
REMARK    3  A    between atoms: C_7  and  C_8
REMARK    4  A    between atoms: C_13  and  C_14
REMARK    5  A    between atoms: C_18  and  C_19
REMARK                            x       y       z     vdW  Elec       q    Type
REMARK                         _______ _______ _______ _____ _____    ______ ____
ROOT
ATOM      1  C   UNL     1      46.880   7.237  13.181  0.00  0.00    +0.000 A 
ATOM      2  C   UNL     1      46.186   8.441  13.021  0.00  0.00    +0.000 A 
ATOM      3  C   UNL     1      45.182   8.535  12.067  0.00  0.00    +0.000 A 
ATOM      4  F   UNL     1      44.539   9.700  11.898  0.00  0.00    +0.000 F 
ATOM      5  C   UNL     1      44.833   7.447  11.270  0.00  0.00    +0.000 A 
ATOM      6  C   UNL     1      45.496   6.217  11.406  0.00  0.00    +0.000 A 
ATOM      7  C   UNL     1      46.518   6.138  12.378  0.00  0.00    +0.000 A 
ENDROOT
BRANCH   6   8
ATOM      8  C   UNL     1      45.152   5.054  10.558  0.00  0.00    +0.000 A 
ATOM      9  C   UNL     1      44.252   4.068  10.971  0.00  0.00    +0.000 A 
ATOM     10  N   UNL     1      43.911   2.967  10.257  0.00  0.00    +0.000 NA
ATOM     11  C   UNL     1      44.486   2.830   9.046  0.00  0.00    +0.000 A 
ATOM     12  C   UNL     1      45.385   3.740   8.511  0.00  0.00    +0.000 A 
ATOM     13  C   UNL     1      45.990   3.543   7.157  0.00  0.00    +0.000 C 
ATOM     14  C   UNL     1      45.715   4.859   9.287  0.00  0.00    +0.000 A 
ENDBRANCH   6   8
BRANCH   1  15
ATOM     15  C   UNL     1      47.997   7.107  14.198  0.00  0.00    +0.000 C 
BRANCH  15  21
ATOM     16  C   UNL     1      51.657   4.233  18.662  0.00  0.00    +0.000 C 
ATOM     17  C   UNL     1      50.655   4.685  17.655  0.00  0.00    +0.000 A 
ATOM     18  C   UNL     1      50.838   5.781  16.844  0.00  0.00    +0.000 A 
ATOM     19  N   UNL     1      49.911   6.240  15.975  0.00  0.00    +0.000 NA
ATOM     20  C   UNL     1      48.756   5.560  15.895  0.00  0.00    +0.000 A 
ATOM     21  N   UNL     1      47.727   6.010  15.093  0.00  0.00    +0.000 N 
ATOM     22  N   UNL     1      48.508   4.445  16.598  0.00  0.00    +0.000 NA
ATOM     23  C   UNL     1      49.447   4.047  17.476  0.00  0.00    +0.000 A 
ATOM     24  H   UNL     1      47.174   5.229  14.766  0.00  0.00    +0.000 HD
ENDBRANCH  15  21
ENDBRANCH   1  15
TORSDOF 3
ENDMDL
MODEL 7
REMARK VINA RESULT:    -6.823      3.121      5.216
REMARK INTER + INTRA:          -8.600
REMARK INTER:                  -7.994
REMARK INTRA:                  -0.605
REMARK UNBOUND:                -0.580
REMARK  Name = 
REMARK  5 active torsions:
REMARK  status: ('A' for Active; 'I' for Inactive)
REMARK    1  A    between atoms: C_1  and  C_2
REMARK    2  A    between atoms: N_6  and  C_7
REMARK    3  A    between atoms: C_7  and  C_8
REMARK    4  A    between atoms: C_13  and  C_14
REMARK    5  A    between atoms: C_18  and  C_19
REMARK                            x       y       z     vdW  Elec       q    Type
REMARK                         _______ _______ _______ _____ _____    ______ ____
ROOT
ATOM      1  C   UNL     1      45.819   6.091  12.141  0.00  0.00    +0.000 A 
ATOM      2  C   UNL     1      46.493   7.285  11.863  0.00  0.00    +0.000 A 
ATOM      3  C   UNL     1      47.495   7.725  12.718  0.00  0.00    +0.000 A 
ATOM      4  F   UNL     1      48.119   8.884  12.463  0.00  0.00    +0.000 F 
ATOM      5  C   UNL     1      47.860   6.993  13.847  0.00  0.00    +0.000 A 
ATOM      6  C   UNL     1      47.217   5.785  14.156  0.00  0.00    +0.000 A 
ATOM      7  C   UNL     1      46.198   5.352  13.279  0.00  0.00    +0.000 A 
ENDROOT
BRANCH   6   8
ATOM      8  C   UNL     1      47.579   5.001  15.358  0.00  0.00    +0.000 A 
ATOM      9  C   UNL     1      47.134   3.692  15.558  0.00  0.00    +0.000 A 
ATOM     10  N   UNL     1      47.405   2.927  16.645  0.00  0.00    +0.000 NA
ATOM     11  C   UNL     1      48.179   3.483  17.597  0.00  0.00    +0.000 A 
ATOM     12  C   UNL     1      48.698   4.767  17.518  0.00  0.00    +0.000 A 
ATOM     13  C   UNL     1      49.557   5.335  18.602  0.00  0.00    +0.000 C 
ATOM     14  C   UNL     1      48.384   5.525  16.382  0.00  0.00    +0.000 A 
ENDBRANCH   6   8
BRANCH   1  15
ATOM     15  C   UNL     1      44.706   5.594  11.240  0.00  0.00    +0.000 C 
BRANCH  15  21
ATOM     16  C   UNL     1      46.597   1.113   7.007  0.00  0.00    +0.000 C 
ATOM     17  C   UNL     1      46.260   2.321   7.811  0.00  0.00    +0.000 A 
ATOM     18  C   UNL     1      45.790   2.264   9.103  0.00  0.00    +0.000 A 
ATOM     19  N   UNL     1      45.418   3.347   9.819  0.00  0.00    +0.000 NA
ATOM     20  C   UNL     1      45.540   4.545   9.226  0.00  0.00    +0.000 A 
ATOM     21  N   UNL     1      45.106   5.692   9.858  0.00  0.00    +0.000 N 
ATOM     22  N   UNL     1      46.044   4.710   7.994  0.00  0.00    +0.000 NA
ATOM     23  C   UNL     1      46.369   3.599   7.307  0.00  0.00    +0.000 A 
ATOM     24  H   UNL     1      45.656   6.485   9.559  0.00  0.00    +0.000 HD
ENDBRANCH  15  21
ENDBRANCH   1  15
TORSDOF 3
ENDMDL
MODEL 8
REMARK VINA RESULT:    -6.688      5.307      7.864
REMARK INTER + INTRA:          -8.441
REMARK INTER:                  -7.919
REMARK INTRA:                  -0.522
REMARK UNBOUND:                -0.580
REMARK  Name = 
REMARK  5 active torsions:
REMARK  status: ('A' for Active; 'I' for Inactive)
REMARK    1  A    between atoms: C_1  and  C_2
REMARK    2  A    between atoms: N_6  and  C_7
REMARK    3  A    between atoms: C_7  and  C_8
REMARK    4  A    between atoms: C_13  and  C_14
REMARK    5  A    between atoms: C_18  and  C_19
REMARK                            x       y       z     vdW  Elec       q    Type
REMARK                         _______ _______ _______ _____ _____    ______ ____
ROOT
ATOM      1  C   UNL     1      47.930   4.840  16.289  0.00  0.00    +0.000 A 
ATOM      2  C   UNL     1      48.774   5.955  16.276  0.00  0.00    +0.000 A 
ATOM      3  C   UNL     1      48.800   6.787  15.165  0.00  0.00    +0.000 A 
ATOM      4  F   UNL     1      49.631   7.839  15.147  0.00  0.00    +0.000 F 
ATOM      5  C   UNL     1      47.987   6.546  14.059  0.00  0.00    +0.000 A 
ATOM      6  C   UNL     1      47.118   5.445  14.035  0.00  0.00    +0.000 A 
ATOM      7  C   UNL     1      47.106   4.605  15.171  0.00  0.00    +0.000 A 
ENDROOT
BRANCH   6   8
ATOM      8  C   UNL     1      46.259   5.161  12.863  0.00  0.00    +0.000 A 
ATOM      9  C   UNL     1      46.344   5.898  11.680  0.00  0.00    +0.000 A 
ATOM     10  N   UNL     1      45.573   5.709  10.580  0.00  0.00    +0.000 NA
ATOM     11  C   UNL     1      44.662   4.718  10.643  0.00  0.00    +0.000 A 
ATOM     12  C   UNL     1      44.483   3.904  11.751  0.00  0.00    +0.000 A 
ATOM     13  C   UNL     1      43.461   2.813  11.767  0.00  0.00    +0.000 C 
ATOM     14  C   UNL     1      45.295   4.141  12.868  0.00  0.00    +0.000 A 
ENDBRANCH   6   8
BRANCH   1  15
ATOM     15  C   UNL     1      47.895   3.899  17.477  0.00  0.00    +0.000 C 
BRANCH  15  21
ATOM     16  C   UNL     1      54.013   2.037  18.308  0.00  0.00    +0.000 C 
ATOM     17  C   UNL     1      52.583   2.260  17.953  0.00  0.00    +0.000 A 
ATOM     18  C   UNL     1      51.877   3.383  18.320  0.00  0.00    +0.000 A 
ATOM     19  N   UNL     1      50.564   3.566  18.061  0.00  0.00    +0.000 NA
ATOM     20  C   UNL     1      49.930   2.594  17.387  0.00  0.00    +0.000 A 
ATOM     21  N   UNL     1      48.572   2.667  17.154  0.00  0.00    +0.000 N 
ATOM     22  N   UNL     1      50.545   1.492  16.933  0.00  0.00    +0.000 NA
ATOM     23  C   UNL     1      51.845   1.337  17.245  0.00  0.00    +0.000 A 
ATOM     24  H   UNL     1      48.339   2.186  16.297  0.00  0.00    +0.000 HD
ENDBRANCH  15  21
ENDBRANCH   1  15
TORSDOF 3
ENDMDL
MODEL 9
REMARK VINA RESULT:    -6.578      3.964      6.589
REMARK INTER + INTRA:          -8.312
REMARK INTER:                  -7.624
REMARK INTRA:                  -0.688
REMARK UNBOUND:                -0.580
REMARK  Name = 
REMARK  5 active torsions:
REMARK  status: ('A' for Active; 'I' for Inactive)
REMARK    1  A    between atoms: C_1  and  C_2
REMARK    2  A    between atoms: N_6  and  C_7
REMARK    3  A    between atoms: C_7  and  C_8
REMARK    4  A    between atoms: C_13  and  C_14
REMARK    5  A    between atoms: C_18  and  C_19
REMARK                            x       y       z     vdW  Elec       q    Type
REMARK                         _______ _______ _______ _____ _____    ______ ____
ROOT
ATOM      1  C   UNL     1      46.154   4.398  13.142  0.00  0.00    +0.000 A 
ATOM      2  C   UNL     1      45.102   3.696  12.545  0.00  0.00    +0.000 A 
ATOM      3  C   UNL     1      44.178   4.376  11.761  0.00  0.00    +0.000 A 
ATOM      4  F   UNL     1      43.155   3.703  11.214  0.00  0.00    +0.000 F 
ATOM      5  C   UNL     1      44.283   5.747  11.540  0.00  0.00    +0.000 A 
ATOM      6  C   UNL     1      45.330   6.487  12.111  0.00  0.00    +0.000 A 
ATOM      7  C   UNL     1      46.260   5.783  12.908  0.00  0.00    +0.000 A 
ENDROOT
BRANCH   6   8
ATOM      8  C   UNL     1      45.450   7.948  11.902  0.00  0.00    +0.000 A 
ATOM      9  C   UNL     1      44.431   8.705  11.319  0.00  0.00    +0.000 A 
ATOM     10  N   UNL     1      44.483  10.038  11.076  0.00  0.00    +0.000 NA
ATOM     11  C   UNL     1      45.613  10.675  11.443  0.00  0.00    +0.000 A 
ATOM     12  C   UNL     1      46.694  10.047  12.043  0.00  0.00    +0.000 A 
ATOM     13  C   UNL     1      47.922  10.802  12.437  0.00  0.00    +0.000 C 
ATOM     14  C   UNL     1      46.599   8.667  12.267  0.00  0.00    +0.000 A 
ENDBRANCH   6   8
BRANCH   1  15
ATOM     15  C   UNL     1      47.166   3.690  14.021  0.00  0.00    +0.000 C 
BRANCH  15  21
ATOM     16  C   UNL     1      49.269   6.931  19.183  0.00  0.00    +0.000 C 
ATOM     17  C   UNL     1      48.655   6.032  18.166  0.00  0.00    +0.000 A 
ATOM     18  C   UNL     1      48.989   6.058  16.832  0.00  0.00    +0.000 A 
ATOM     19  N   UNL     1      48.393   5.295  15.890  0.00  0.00    +0.000 NA
ATOM     20  C   UNL     1      47.434   4.451  16.302  0.00  0.00    +0.000 A 
ATOM     21  N   UNL     1      46.721   3.696  15.392  0.00  0.00    +0.000 N 
ATOM     22  N   UNL     1      47.081   4.308  17.588  0.00  0.00    +0.000 NA
ATOM     23  C   UNL     1      47.678   5.115  18.485  0.00  0.00    +0.000 A 
ATOM     24  H   UNL     1      46.421   2.830  15.818  0.00  0.00    +0.000 HD
ENDBRANCH  15  21
ENDBRANCH   1  15
TORSDOF 3
ENDMDL
