MODEL 1
REMARK VINA RESULT:    -8.557      0.000      0.000
REMARK INTER + INTRA:         -12.554
REMARK INTER:                 -11.559
REMARK INTRA:                  -0.995
REMARK UNBOUND:                -0.995
REMARK  Name = 
REMARK  6 active torsions:
REMARK  status: ('A' for Active; 'I' for Inactive)
REMARK    1  A    between atoms: C_2  and  C_25
REMARK    2  A    between atoms: N_3  and  C_4
REMARK    3  A    between atoms: C_4  and  C_5
REMARK    4  A    between atoms: C_8  and  C_9
REMARK    5  A    between atoms: C_9  and  N_10
REMARK    6  A    between atoms: C_11  and  C_13
REMARK                            x       y       z     vdW  Elec       q    Type
REMARK                         _______ _______ _______ _____ _____    ______ ____
ROOT
ATOM      1  C   UNL     1      44.816   6.130  11.168  0.00  0.00    +0.000 A 
ATOM      2  C   UNL     1      44.502   7.464  11.438  0.00  0.00    +0.000 A 
ATOM      3  C   UNL     1      45.334   8.222  12.260  0.00  0.00    +0.000 A 
ATOM      4  C   UNL     1      46.455   7.618  12.822  0.00  0.00    +0.000 A 
ATOM      5  N   UNL     1      46.789   6.328  12.565  0.00  0.00    +0.000 NA
ATOM      6  C   UNL     1      45.971   5.620  11.751  0.00  0.00    +0.000 A 
ENDROOT
BRANCH   1   7
ATOM      7  C   UNL     1      43.945   5.281  10.296  0.00  0.00    +0.000 C 
BRANCH   7  10
ATOM      8  O   UNL     1      44.376   2.525  10.196  0.00  0.00    +0.000 OA
ATOM      9  C   UNL     1      44.865   3.231   9.319  0.00  0.00    +0.000 C 
ATOM     10  N   UNL     1      44.686   4.598   9.265  0.00  0.00    +0.000 N 
ATOM     11  H   UNL     1      45.157   5.105   8.519  0.00  0.00    +0.000 HD
BRANCH   9  12
ATOM     12  C   UNL     1      45.715   2.644   8.232  0.00  0.00    +0.000 A 
ATOM     13  C   UNL     1      46.008   3.414   7.109  0.00  0.00    +0.000 A 
ATOM     14  C   UNL     1      46.778   2.844   6.101  0.00  0.00    +0.000 A 
ATOM     15  C   UNL     1      47.226   1.536   6.246  0.00  0.00    +0.000 A 
ATOM     16  C   UNL     1      46.890   0.844   7.401  0.00  0.00    +0.000 A 
ATOM     17  N   UNL     1      46.144   1.362   8.404  0.00  0.00    +0.000 NA
ENDBRANCH   9  12
ENDBRANCH   7  10
ENDBRANCH   1   7
BRANCH   4  18
ATOM     18  C   UNL     1      47.345   8.395  13.764  0.00  0.00    +0.000 C 
BRANCH  18  19
ATOM     19  N   UNL     1      47.748   7.623  14.917  0.00  0.00    +0.000 N 
ATOM     20  C   UNL     1      48.968   7.008  15.006  0.00  0.00    +0.000 C 
ATOM     21  O   UNL     1      49.802   7.082  14.108  0.00  0.00    +0.000 OA
ATOM     22  H   UNL     1      47.005   7.381  15.566  0.00  0.00    +0.000 HD
BRANCH  20  23
ATOM     23  C   UNL     1      49.256   6.298  16.262  0.00  0.00    +0.000 A 
ATOM     24  C   UNL     1      50.261   6.766  17.099  0.00  0.00    +0.000 A 
ATOM     25  S   UNL     1      50.453   5.846  18.522  0.00  0.00    +0.000 S 
ATOM     26  C   UNL     1      49.222   4.768  18.056  0.00  0.00    +0.000 A 
ATOM     27  N   UNL     1      48.890   3.704  18.837  0.00  0.00    +0.000 NA
ATOM     28  C   UNL     1      47.957   2.955  18.352  0.00  0.00    +0.000 A 
ATOM     29  N   UNL     1      47.319   3.179  17.159  0.00  0.00    +0.000 N 
ATOM     30  C   UNL     1      47.588   4.264  16.361  0.00  0.00    +0.000 A 
ATOM     31  O   UNL     1      46.937   4.481  15.346  0.00  0.00    +0.000 OA
ATOM     32  C   UNL     1      48.655   5.120  16.844  0.00  0.00    +0.000 A 
ATOM     33  H   UNL     1      46.579   2.569  16.845  0.00  0.00    +0.000 HD
ENDBRANCH  20  23
ENDBRANCH  18  19
ENDBRANCH   4  18
TORSDOF 6
ENDMDL
MODEL 2
REMARK VINA RESULT:    -8.029      2.554      3.698
REMARK INTER + INTRA:         -11.840
REMARK INTER:                 -10.901
REMARK INTRA:                  -0.939
REMARK UNBOUND:                -0.995
REMARK  Name = 
REMARK  6 active torsions:
REMARK  status: ('A' for Active; 'I' for Inactive)
REMARK    1  A    between atoms: C_2  and  C_25
REMARK    2  A    between atoms: N_3  and  C_4
REMARK    3  A    between atoms: C_4  and  C_5
REMARK    4  A    between atoms: C_8  and  C_9
REMARK    5  A    between atoms: C_9  and  N_10
REMARK    6  A    between atoms: C_11  and  C_13
REMARK                            x       y       z     vdW  Elec       q    Type
REMARK                         _______ _______ _______ _____ _____    ______ ____
ROOT
ATOM      1  C   UNL     1      45.731   5.419  12.129  0.00  0.00    +0.000 A 
ATOM      2  C   UNL     1      46.789   6.203  12.593  0.00  0.00    +0.000 A 
ATOM      3  C   UNL     1      47.422   5.877  13.791  0.00  0.00    +0.000 A 
ATOM      4  C   UNL     1      46.963   4.784  14.519  0.00  0.00    +0.000 A 
ATOM      5  N   UNL     1      45.945   3.999  14.084  0.00  0.00    +0.000 NA
ATOM      6  C   UNL     1      45.358   4.330  12.910  0.00  0.00    +0.000 A 
ENDROOT
BRANCH   1   7
ATOM      7  C   UNL     1      45.019   5.739  10.852  0.00  0.00    +0.000 C 
BRANCH   7  10
ATOM      8  O   UNL     1      44.136   3.286   9.855  0.00  0.00    +0.000 OA
ATOM      9  C   UNL     1      45.092   3.833   9.314  0.00  0.00    +0.000 C 
ATOM     10  N   UNL     1      45.585   5.058   9.713  0.00  0.00    +0.000 N 
ATOM     11  H   UNL     1      46.402   5.419   9.225  0.00  0.00    +0.000 HD
BRANCH   9  12
ATOM     12  C   UNL     1      45.808   3.188   8.165  0.00  0.00    +0.000 A 
ATOM     13  C   UNL     1      46.171   1.847   8.258  0.00  0.00    +0.000 A 
ATOM     14  C   UNL     1      46.855   1.273   7.192  0.00  0.00    +0.000 A 
ATOM     15  C   UNL     1      47.150   2.050   6.077  0.00  0.00    +0.000 A 
ATOM     16  C   UNL     1      46.745   3.378   6.068  0.00  0.00    +0.000 A 
ATOM     17  N   UNL     1      46.078   3.973   7.085  0.00  0.00    +0.000 NA
ENDBRANCH   9  12
ENDBRANCH   7  10
ENDBRANCH   1   7
BRANCH   4  18
ATOM     18  C   UNL     1      47.589   4.440  15.851  0.00  0.00    +0.000 C 
BRANCH  18  19
ATOM     19  N   UNL     1      47.499   5.518  16.808  0.00  0.00    +0.000 N 
ATOM     20  C   UNL     1      48.555   5.905  17.589  0.00  0.00    +0.000 C 
ATOM     21  O   UNL     1      49.653   5.359  17.518  0.00  0.00    +0.000 OA
ATOM     22  H   UNL     1      46.559   5.835  17.025  0.00  0.00    +0.000 HD
BRANCH  20  23
ATOM     23  C   UNL     1      48.326   7.051  18.482  0.00  0.00    +0.000 A 
ATOM     24  C   UNL     1      48.266   6.848  19.855  0.00  0.00    +0.000 A 
ATOM     25  S   UNL     1      48.018   8.279  20.750  0.00  0.00    +0.000 S 
ATOM     26  C   UNL     1      47.948   9.218  19.333  0.00  0.00    +0.000 A 
ATOM     27  N   UNL     1      47.728  10.559  19.392  0.00  0.00    +0.000 NA
ATOM     28  C   UNL     1      47.674  11.143  18.243  0.00  0.00    +0.000 A 
ATOM     29  N   UNL     1      47.831  10.508  17.038  0.00  0.00    +0.000 N 
ATOM     30  C   UNL     1      48.102   9.166  16.931  0.00  0.00    +0.000 A 
ATOM     31  O   UNL     1      48.325   8.648  15.843  0.00  0.00    +0.000 OA
ATOM     32  C   UNL     1      48.138   8.454  18.195  0.00  0.00    +0.000 A 
ATOM     33  H   UNL     1      47.803  11.025  16.171  0.00  0.00    +0.000 HD
ENDBRANCH  20  23
ENDBRANCH  18  19
ENDBRANCH   4  18
TORSDOF 6
ENDMDL
MODEL 3
REMARK VINA RESULT:    -7.433      3.005      4.664
REMARK INTER + INTRA:         -11.035
REMARK INTER:                 -10.220
REMARK INTRA:                  -0.815
REMARK UNBOUND:                -0.995
REMARK  Name = 
REMARK  6 active torsions:
REMARK  status: ('A' for Active; 'I' for Inactive)
REMARK    1  A    between atoms: C_2  and  C_25
REMARK    2  A    between atoms: N_3  and  C_4
REMARK    3  A    between atoms: C_4  and  C_5
REMARK    4  A    between atoms: C_8  and  C_9
REMARK    5  A    between atoms: C_9  and  N_10
REMARK    6  A    between atoms: C_11  and  C_13
REMARK                            x       y       z     vdW  Elec       q    Type
REMARK                         _______ _______ _______ _____ _____    ______ ____
ROOT
ATOM      1  C   UNL     1      47.177   5.914  13.898  0.00  0.00    +0.000 A 
ATOM      2  C   UNL     1      48.027   6.363  14.911  0.00  0.00    +0.000 A 
ATOM      3  C   UNL     1      48.239   5.575  16.040  0.00  0.00    +0.000 A 
ATOM      4  C   UNL     1      47.570   4.359  16.147  0.00  0.00    +0.000 A 
ATOM      5  N   UNL     1      46.749   3.895  15.171  0.00  0.00    +0.000 NA
ATOM      6  C   UNL     1      46.574   4.675  14.078  0.00  0.00    +0.000 A 
ENDROOT
BRANCH   1   7
ATOM      7  C   UNL     1      46.918   6.733  12.672  0.00  0.00    +0.000 C 
BRANCH   7  10
ATOM      8  O   UNL     1      44.455   6.297  11.434  0.00  0.00    +0.000 OA
ATOM      9  C   UNL     1      45.451   5.751  10.972  0.00  0.00    +0.000 C 
ATOM     10  N   UNL     1      46.717   5.926  11.494  0.00  0.00    +0.000 N 
ATOM     11  H   UNL     1      47.479   5.407  11.065  0.00  0.00    +0.000 HD
BRANCH   9  12
ATOM     12  C   UNL     1      45.358   4.832   9.792  0.00  0.00    +0.000 A 
ATOM     13  C   UNL     1      44.562   3.692   9.880  0.00  0.00    +0.000 A 
ATOM     14  C   UNL     1      44.506   2.839   8.783  0.00  0.00    +0.000 A 
ATOM     15  C   UNL     1      45.240   3.150   7.644  0.00  0.00    +0.000 A 
ATOM     16  C   UNL     1      46.002   4.310   7.642  0.00  0.00    +0.000 A 
ATOM     17  N   UNL     1      46.083   5.165   8.688  0.00  0.00    +0.000 NA
ENDBRANCH   9  12
ENDBRANCH   7  10
ENDBRANCH   1   7
BRANCH   4  18
ATOM     18  C   UNL     1      47.731   3.508  17.386  0.00  0.00    +0.000 C 
BRANCH  18  19
ATOM     19  N   UNL     1      49.115   3.244  17.707  0.00  0.00    +0.000 N 
ATOM     20  C   UNL     1      49.880   2.351  17.005  0.00  0.00    +0.000 C 
ATOM     21  O   UNL     1      49.435   1.722  16.049  0.00  0.00    +0.000 OA
ATOM     22  H   UNL     1      49.432   3.591  18.606  0.00  0.00    +0.000 HD
BRANCH  20  23
ATOM     23  C   UNL     1      51.286   2.223  17.418  0.00  0.00    +0.000 A 
ATOM     24  C   UNL     1      51.843   0.960  17.569  0.00  0.00    +0.000 A 
ATOM     25  S   UNL     1      53.485   0.985  18.029  0.00  0.00    +0.000 S 
ATOM     26  C   UNL     1      53.502   2.685  18.077  0.00  0.00    +0.000 A 
ATOM     27  N   UNL     1      54.626   3.365  18.434  0.00  0.00    +0.000 NA
ATOM     28  C   UNL     1      54.492   4.648  18.451  0.00  0.00    +0.000 A 
ATOM     29  N   UNL     1      53.337   5.315  18.135  0.00  0.00    +0.000 N 
ATOM     30  C   UNL     1      52.193   4.675  17.724  0.00  0.00    +0.000 A 
ATOM     31  O   UNL     1      51.207   5.306  17.364  0.00  0.00    +0.000 OA
ATOM     32  C   UNL     1      52.280   3.227  17.720  0.00  0.00    +0.000 A 
ATOM     33  H   UNL     1      53.301   6.324  18.143  0.00  0.00    +0.000 HD
ENDBRANCH  20  23
ENDBRANCH  18  19
ENDBRANCH   4  18
TORSDOF 6
ENDMDL
MODEL 4
REMARK VINA RESULT:    -7.371      4.804      9.646
REMARK INTER + INTRA:         -10.951
REMARK INTER:                 -10.182
REMARK INTRA:                  -0.770
REMARK UNBOUND:                -0.995
REMARK  Name = 
REMARK  6 active torsions:
REMARK  status: ('A' for Active; 'I' for Inactive)
REMARK    1  A    between atoms: C_2  and  C_25
REMARK    2  A    between atoms: N_3  and  C_4
REMARK    3  A    between atoms: C_4  and  C_5
REMARK    4  A    between atoms: C_8  and  C_9
REMARK    5  A    between atoms: C_9  and  N_10
REMARK    6  A    between atoms: C_11  and  C_13
REMARK                            x       y       z     vdW  Elec       q    Type
REMARK                         _______ _______ _______ _____ _____    ______ ____
ROOT
ATOM      1  C   UNL     1      51.324   3.069  17.753  0.00  0.00    +0.000 A 
ATOM      2  C   UNL     1      50.642   2.017  17.136  0.00  0.00    +0.000 A 
ATOM      3  C   UNL     1      49.289   2.150  16.833  0.00  0.00    +0.000 A 
ATOM      4  C   UNL     1      48.634   3.328  17.180  0.00  0.00    +0.000 A 
ATOM      5  N   UNL     1      49.277   4.369  17.768  0.00  0.00    +0.000 NA
ATOM      6  C   UNL     1      50.595   4.218  18.037  0.00  0.00    +0.000 A 
ENDROOT
BRANCH   1   7
ATOM      7  C   UNL     1      52.776   2.964  18.102  0.00  0.00    +0.000 C 
BRANCH   7  10
ATOM      8  O   UNL     1      54.808   1.579  16.782  0.00  0.00    +0.000 OA
ATOM      9  C   UNL     1      54.184   1.006  17.669  0.00  0.00    +0.000 C 
ATOM     10  N   UNL     1      53.182   1.612  18.399  0.00  0.00    +0.000 N 
ATOM     11  H   UNL     1      52.697   1.048  19.093  0.00  0.00    +0.000 HD
BRANCH   9  12
ATOM     12  C   UNL     1      54.467  -0.424  18.020  0.00  0.00    +0.000 A 
ATOM     13  C   UNL     1      54.929  -1.287  17.029  0.00  0.00    +0.000 A 
ATOM     14  C   UNL     1      55.164  -2.616  17.368  0.00  0.00    +0.000 A 
ATOM     15  C   UNL     1      54.933  -3.034  18.674  0.00  0.00    +0.000 A 
ATOM     16  C   UNL     1      54.477  -2.103  19.598  0.00  0.00    +0.000 A 
ATOM     17  N   UNL     1      54.237  -0.803  19.308  0.00  0.00    +0.000 NA
ENDBRANCH   9  12
ENDBRANCH   7  10
ENDBRANCH   1   7
BRANCH   4  18
ATOM     18  C   UNL     1      47.153   3.480  16.919  0.00  0.00    +0.000 C 
BRANCH  18  19
ATOM     19  N   UNL     1      46.862   4.458  15.896  0.00  0.00    +0.000 N 
ATOM     20  C   UNL     1      46.933   4.172  14.559  0.00  0.00    +0.000 C 
ATOM     21  O   UNL     1      47.242   3.059  14.145  0.00  0.00    +0.000 OA
ATOM     22  H   UNL     1      46.810   5.421  16.211  0.00  0.00    +0.000 HD
BRANCH  20  23
ATOM     23  C   UNL     1      46.561   5.256  13.635  0.00  0.00    +0.000 A 
ATOM     24  C   UNL     1      47.474   6.267  13.363  0.00  0.00    +0.000 A 
ATOM     25  S   UNL     1      46.898   7.432  12.258  0.00  0.00    +0.000 S 
ATOM     26  C   UNL     1      45.395   6.647  12.130  0.00  0.00    +0.000 A 
ATOM     27  N   UNL     1      44.406   7.150  11.343  0.00  0.00    +0.000 NA
ATOM     28  C   UNL     1      43.311   6.468  11.357  0.00  0.00    +0.000 A 
ATOM     29  N   UNL     1      43.117   5.321  12.082  0.00  0.00    +0.000 N 
ATOM     30  C   UNL     1      44.100   4.749  12.852  0.00  0.00    +0.000 A 
ATOM     31  O   UNL     1      43.921   3.676  13.416  0.00  0.00    +0.000 OA
ATOM     32  C   UNL     1      45.342   5.497  12.898  0.00  0.00    +0.000 A 
ATOM     33  H   UNL     1      42.243   4.817  12.032  0.00  0.00    +0.000 HD
ENDBRANCH  20  23
ENDBRANCH  18  19
ENDBRANCH   4  18
TORSDOF 6
ENDMDL
MODEL 5
REMARK VINA RESULT:    -7.304      3.538      4.534
REMARK INTER + INTRA:         -10.861
REMARK INTER:                  -9.832
REMARK INTRA:                  -1.029
REMARK UNBOUND:                -0.995
REMARK  Name = 
REMARK  6 active torsions:
REMARK  status: ('A' for Active; 'I' for Inactive)
REMARK    1  A    between atoms: C_2  and  C_25
REMARK    2  A    between atoms: N_3  and  C_4
REMARK    3  A    between atoms: C_4  and  C_5
REMARK    4  A    between atoms: C_8  and  C_9
REMARK    5  A    between atoms: C_9  and  N_10
REMARK    6  A    between atoms: C_11  and  C_13
REMARK                            x       y       z     vdW  Elec       q    Type
REMARK                         _______ _______ _______ _____ _____    ______ ____
ROOT
ATOM      1  C   UNL     1      44.761   6.069  11.365  0.00  0.00    +0.000 A 
ATOM      2  C   UNL     1      45.890   5.599  12.039  0.00  0.00    +0.000 A 
ATOM      3  C   UNL     1      46.632   6.465  12.840  0.00  0.00    +0.000 A 
ATOM      4  C   UNL     1      46.243   7.798  12.930  0.00  0.00    +0.000 A 
ATOM      5  N   UNL     1      45.142   8.276  12.295  0.00  0.00    +0.000 NA
ATOM      6  C   UNL     1      44.432   7.409  11.535  0.00  0.00    +0.000 A 
ENDROOT
BRANCH   1   7
ATOM      7  C   UNL     1      43.941   5.173  10.489  0.00  0.00    +0.000 C 
BRANCH   7  10
ATOM      8  O   UNL     1      44.194   2.422  10.090  0.00  0.00    +0.000 OA
ATOM      9  C   UNL     1      44.799   3.185   9.343  0.00  0.00    +0.000 C 
ATOM     10  N   UNL     1      44.717   4.559   9.440  0.00  0.00    +0.000 N 
ATOM     11  H   UNL     1      45.280   5.111   8.797  0.00  0.00    +0.000 HD
BRANCH   9  12
ATOM     12  C   UNL     1      45.693   2.663   8.258  0.00  0.00    +0.000 A 
ATOM     13  C   UNL     1      45.977   3.476   7.163  0.00  0.00    +0.000 A 
ATOM     14  C   UNL     1      46.789   2.966   6.156  0.00  0.00    +0.000 A 
ATOM     15  C   UNL     1      47.288   1.673   6.275  0.00  0.00    +0.000 A 
ATOM     16  C   UNL     1      46.957   0.936   7.404  0.00  0.00    +0.000 A 
ATOM     17  N   UNL     1      46.171   1.396   8.405  0.00  0.00    +0.000 NA
ENDBRANCH   9  12
ENDBRANCH   7  10
ENDBRANCH   1   7
BRANCH   4  18
ATOM     18  C   UNL     1      47.059   8.776  13.742  0.00  0.00    +0.000 C 
BRANCH  18  19
ATOM     19  N   UNL     1      48.475   8.686  13.468  0.00  0.00    +0.000 N 
ATOM     20  C   UNL     1      49.284   9.788  13.391  0.00  0.00    +0.000 C 
ATOM     21  O   UNL     1      48.855  10.926  13.558  0.00  0.00    +0.000 OA
ATOM     22  H   UNL     1      48.801   7.788  13.126  0.00  0.00    +0.000 HD
BRANCH  20  23
ATOM     23  C   UNL     1      50.715   9.537  13.153  0.00  0.00    +0.000 A 
ATOM     24  C   UNL     1      51.663  10.204  13.918  0.00  0.00    +0.000 A 
ATOM     25  S   UNL     1      53.272   9.785  13.534  0.00  0.00    +0.000 S 
ATOM     26  C   UNL     1      52.760   8.722  12.309  0.00  0.00    +0.000 A 
ATOM     27  N   UNL     1      53.661   8.038  11.553  0.00  0.00    +0.000 NA
ATOM     28  C   UNL     1      53.137   7.286  10.645  0.00  0.00    +0.000 A 
ATOM     29  N   UNL     1      51.790   7.149  10.429  0.00  0.00    +0.000 N 
ATOM     30  C   UNL     1      50.843   7.781  11.197  0.00  0.00    +0.000 A 
ATOM     31  O   UNL     1      49.647   7.565  11.034  0.00  0.00    +0.000 OA
ATOM     32  C   UNL     1      51.380   8.667  12.212  0.00  0.00    +0.000 A 
ATOM     33  H   UNL     1      51.440   6.524   9.717  0.00  0.00    +0.000 HD
ENDBRANCH  20  23
ENDBRANCH  18  19
ENDBRANCH   4  18
TORSDOF 6
ENDMDL
MODEL 6
REMARK VINA RESULT:    -7.251      2.361      2.873
REMARK INTER + INTRA:         -10.790
REMARK INTER:                 -10.010
REMARK INTRA:                  -0.780
REMARK UNBOUND:                -0.995
REMARK  Name = 
REMARK  6 active torsions:
REMARK  status: ('A' for Active; 'I' for Inactive)
REMARK    1  A    between atoms: C_2  and  C_25
REMARK    2  A    between atoms: N_3  and  C_4
REMARK    3  A    between atoms: C_4  and  C_5
REMARK    4  A    between atoms: C_8  and  C_9
REMARK    5  A    between atoms: C_9  and  N_10
REMARK    6  A    between atoms: C_11  and  C_13
REMARK                            x       y       z     vdW  Elec       q    Type
REMARK                         _______ _______ _______ _____ _____    ______ ____
ROOT
ATOM      1  C   UNL     1      45.476   3.887  12.558  0.00  0.00    +0.000 A 
ATOM      2  C   UNL     1      46.462   3.249  13.314  0.00  0.00    +0.000 A 
ATOM      3  C   UNL     1      47.212   3.977  14.235  0.00  0.00    +0.000 A 
ATOM      4  C   UNL     1      46.979   5.344  14.362  0.00  0.00    +0.000 A 
ATOM      5  N   UNL     1      46.019   5.985  13.648  0.00  0.00    +0.000 NA
ATOM      6  C   UNL     1      45.295   5.249  12.772  0.00  0.00    +0.000 A 
ENDROOT
BRANCH   1   7
ATOM      7  C   UNL     1      44.654   3.143  11.553  0.00  0.00    +0.000 C 
BRANCH   7  10
ATOM      8  O   UNL     1      44.178   4.100   8.975  0.00  0.00    +0.000 OA
ATOM      9  C   UNL     1      45.076   3.282   9.144  0.00  0.00    +0.000 C 
ATOM     10  N   UNL     1      45.409   2.771  10.382  0.00  0.00    +0.000 N 
ATOM     11  H   UNL     1      46.147   2.073  10.420  0.00  0.00    +0.000 HD
BRANCH   9  12
ATOM     12  C   UNL     1      45.884   2.766   7.991  0.00  0.00    +0.000 A 
ATOM     13  C   UNL     1      46.391   1.470   8.044  0.00  0.00    +0.000 A 
ATOM     14  C   UNL     1      47.158   1.017   6.975  0.00  0.00    +0.000 A 
ATOM     15  C   UNL     1      47.390   1.865   5.898  0.00  0.00    +0.000 A 
ATOM     16  C   UNL     1      46.841   3.140   5.928  0.00  0.00    +0.000 A 
ATOM     17  N   UNL     1      46.091   3.618   6.948  0.00  0.00    +0.000 NA
ENDBRANCH   9  12
ENDBRANCH   7  10
ENDBRANCH   1   7
BRANCH   4  18
ATOM     18  C   UNL     1      47.815   6.173  15.309  0.00  0.00    +0.000 C 
BRANCH  18  19
ATOM     19  N   UNL     1      48.969   5.460  15.808  0.00  0.00    +0.000 N 
ATOM     20  C   UNL     1      49.664   5.863  16.917  0.00  0.00    +0.000 C 
ATOM     21  O   UNL     1      49.343   6.856  17.563  0.00  0.00    +0.000 OA
ATOM     22  H   UNL     1      49.366   4.771  15.178  0.00  0.00    +0.000 HD
BRANCH  20  23
ATOM     23  C   UNL     1      50.787   5.009  17.334  0.00  0.00    +0.000 A 
ATOM     24  C   UNL     1      51.963   5.595  17.784  0.00  0.00    +0.000 A 
ATOM     25  S   UNL     1      53.157   4.469  18.249  0.00  0.00    +0.000 S 
ATOM     26  C   UNL     1      52.158   3.156  17.834  0.00  0.00    +0.000 A 
ATOM     27  N   UNL     1      52.594   1.874  17.968  0.00  0.00    +0.000 NA
ATOM     28  C   UNL     1      51.744   0.978  17.595  0.00  0.00    +0.000 A 
ATOM     29  N   UNL     1      50.491   1.248  17.106  0.00  0.00    +0.000 N 
ATOM     30  C   UNL     1      49.991   2.523  16.997  0.00  0.00    +0.000 A 
ATOM     31  O   UNL     1      48.836   2.722  16.641  0.00  0.00    +0.000 OA
ATOM     32  C   UNL     1      50.921   3.571  17.372  0.00  0.00    +0.000 A 
ATOM     33  H   UNL     1      49.861   0.501  16.852  0.00  0.00    +0.000 HD
ENDBRANCH  20  23
ENDBRANCH  18  19
ENDBRANCH   4  18
TORSDOF 6
ENDMDL
MODEL 7
REMARK VINA RESULT:    -7.059      3.867      8.734
REMARK INTER + INTRA:         -10.531
REMARK INTER:                  -9.557
REMARK INTRA:                  -0.974
REMARK UNBOUND:                -0.995
REMARK  Name = 
REMARK  6 active torsions:
REMARK  status: ('A' for Active; 'I' for Inactive)
REMARK    1  A    between atoms: C_2  and  C_25
REMARK    2  A    between atoms: N_3  and  C_4
REMARK    3  A    between atoms: C_4  and  C_5
REMARK    4  A    between atoms: C_8  and  C_9
REMARK    5  A    between atoms: C_9  and  N_10
REMARK    6  A    between atoms: C_11  and  C_13
REMARK                            x       y       z     vdW  Elec       q    Type
REMARK                         _______ _______ _______ _____ _____    ______ ____
ROOT
ATOM      1  C   UNL     1      49.463   4.959  17.427  0.00  0.00    +0.000 A 
ATOM      2  C   UNL     1      50.233   6.032  16.972  0.00  0.00    +0.000 A 
ATOM      3  C   UNL     1      49.852   6.722  15.823  0.00  0.00    +0.000 A 
ATOM      4  C   UNL     1      48.717   6.305  15.132  0.00  0.00    +0.000 A 
ATOM      5  N   UNL     1      47.945   5.274  15.562  0.00  0.00    +0.000 NA
ATOM      6  C   UNL     1      48.331   4.632  16.689  0.00  0.00    +0.000 A 
ENDROOT
BRANCH   1   7
ATOM      7  C   UNL     1      49.841   4.188  18.653  0.00  0.00    +0.000 C 
BRANCH   7  10
ATOM      8  O   UNL     1      50.468   1.900  17.181  0.00  0.00    +0.000 OA
ATOM      9  C   UNL     1      51.357   2.451  17.822  0.00  0.00    +0.000 C 
ATOM     10  N   UNL     1      51.156   3.601  18.558  0.00  0.00    +0.000 N 
ATOM     11  H   UNL     1      51.945   3.968  19.084  0.00  0.00    +0.000 HD
BRANCH   9  12
ATOM     12  C   UNL     1      52.749   1.894  17.858  0.00  0.00    +0.000 A 
ATOM     13  C   UNL     1      53.827   2.743  17.617  0.00  0.00    +0.000 A 
ATOM     14  C   UNL     1      55.108   2.204  17.631  0.00  0.00    +0.000 A 
ATOM     15  C   UNL     1      55.271   0.846  17.885  0.00  0.00    +0.000 A 
ATOM     16  C   UNL     1      54.140   0.076  18.120  0.00  0.00    +0.000 A 
ATOM     17  N   UNL     1      52.877   0.562  18.115  0.00  0.00    +0.000 NA
ENDBRANCH   9  12
ENDBRANCH   7  10
ENDBRANCH   1   7
BRANCH   4  18
ATOM     18  C   UNL     1      48.311   6.995  13.851  0.00  0.00    +0.000 C 
BRANCH  18  19
ATOM     19  N   UNL     1      47.503   6.156  12.995  0.00  0.00    +0.000 N 
ATOM     20  C   UNL     1      46.633   6.664  12.068  0.00  0.00    +0.000 C 
ATOM     21  O   UNL     1      46.491   7.872  11.902  0.00  0.00    +0.000 OA
ATOM     22  H   UNL     1      47.454   5.177  13.259  0.00  0.00    +0.000 HD
BRANCH  20  23
ATOM     23  C   UNL     1      45.915   5.687  11.236  0.00  0.00    +0.000 A 
ATOM     24  C   UNL     1      46.017   5.758   9.853  0.00  0.00    +0.000 A 
ATOM     25  S   UNL     1      45.145   4.541   9.036  0.00  0.00    +0.000 S 
ATOM     26  C   UNL     1      44.570   3.894  10.501  0.00  0.00    +0.000 A 
ATOM     27  N   UNL     1      43.730   2.824  10.512  0.00  0.00    +0.000 NA
ATOM     28  C   UNL     1      43.354   2.452  11.689  0.00  0.00    +0.000 A 
ATOM     29  N   UNL     1      43.748   3.049  12.859  0.00  0.00    +0.000 N 
ATOM     30  C   UNL     1      44.631   4.101  12.899  0.00  0.00    +0.000 A 
ATOM     31  O   UNL     1      45.032   4.552  13.965  0.00  0.00    +0.000 OA
ATOM     32  C   UNL     1      45.059   4.581  11.599  0.00  0.00    +0.000 A 
ATOM     33  H   UNL     1      43.438   2.696  13.752  0.00  0.00    +0.000 HD
ENDBRANCH  20  23
ENDBRANCH  18  19
ENDBRANCH   4  18
TORSDOF 6
ENDMDL
MODEL 8
REMARK VINA RESULT:    -6.896      3.256      8.712
REMARK INTER + INTRA:         -10.310
REMARK INTER:                  -9.393
REMARK INTRA:                  -0.917
REMARK UNBOUND:                -0.995
REMARK  Name = 
REMARK  6 active torsions:
REMARK  status: ('A' for Active; 'I' for Inactive)
REMARK    1  A    between atoms: C_2  and  C_25
REMARK    2  A    between atoms: N_3  and  C_4
REMARK    3  A    between atoms: C_4  and  C_5
REMARK    4  A    between atoms: C_8  and  C_9
REMARK    5  A    between atoms: C_9  and  N_10
REMARK    6  A    between atoms: C_11  and  C_13
REMARK                            x       y       z     vdW  Elec       q    Type
REMARK                         _______ _______ _______ _____ _____    ______ ____
ROOT
ATOM      1  C   UNL     1      50.103   7.400  15.343  0.00  0.00    +0.000 A 
ATOM      2  C   UNL     1      50.441   8.292  14.323  0.00  0.00    +0.000 A 
ATOM      3  C   UNL     1      49.610   8.427  13.213  0.00  0.00    +0.000 A 
ATOM      4  C   UNL     1      48.464   7.640  13.132  0.00  0.00    +0.000 A 
ATOM      5  N   UNL     1      48.107   6.775  14.115  0.00  0.00    +0.000 NA
ATOM      6  C   UNL     1      48.926   6.676  15.189  0.00  0.00    +0.000 A 
ENDROOT
BRANCH   1   7
ATOM      7  C   UNL     1      50.973   7.220  16.548  0.00  0.00    +0.000 C 
BRANCH   7  10
ATOM      8  O   UNL     1      50.041   5.327  18.374  0.00  0.00    +0.000 OA
ATOM      9  C   UNL     1      50.966   5.022  17.630  0.00  0.00    +0.000 C 
ATOM     10  N   UNL     1      51.479   5.876  16.674  0.00  0.00    +0.000 N 
ATOM     11  H   UNL     1      52.269   5.547  16.124  0.00  0.00    +0.000 HD
BRANCH   9  12
ATOM     12  C   UNL     1      51.622   3.676  17.715  0.00  0.00    +0.000 A 
ATOM     13  C   UNL     1      50.893   2.542  17.363  0.00  0.00    +0.000 A 
ATOM     14  C   UNL     1      51.511   1.301  17.472  0.00  0.00    +0.000 A 
ATOM     15  C   UNL     1      52.824   1.233  17.923  0.00  0.00    +0.000 A 
ATOM     16  C   UNL     1      53.476   2.415  18.247  0.00  0.00    +0.000 A 
ATOM     17  N   UNL     1      52.911   3.642  18.155  0.00  0.00    +0.000 NA
ENDBRANCH   9  12
ENDBRANCH   7  10
ENDBRANCH   1   7
BRANCH   4  18
ATOM     18  C   UNL     1      47.573   7.719  11.914  0.00  0.00    +0.000 C 
BRANCH  18  19
ATOM     19  N   UNL     1      46.844   6.495  11.674  0.00  0.00    +0.000 N 
ATOM     20  C   UNL     1      45.481   6.413  11.778  0.00  0.00    +0.000 C 
ATOM     21  O   UNL     1      44.790   7.383  12.077  0.00  0.00    +0.000 OA
ATOM     22  H   UNL     1      47.405   5.650  11.632  0.00  0.00    +0.000 HD
BRANCH  20  23
ATOM     23  C   UNL     1      44.875   5.111  11.456  0.00  0.00    +0.000 A 
ATOM     24  C   UNL     1      44.087   4.469  12.403  0.00  0.00    +0.000 A 
ATOM     25  S   UNL     1      43.442   2.984  11.866  0.00  0.00    +0.000 S 
ATOM     26  C   UNL     1      44.219   3.129  10.360  0.00  0.00    +0.000 A 
ATOM     27  N   UNL     1      44.100   2.158   9.415  0.00  0.00    +0.000 NA
ATOM     28  C   UNL     1      44.761   2.384   8.330  0.00  0.00    +0.000 A 
ATOM     29  N   UNL     1      45.525   3.499   8.100  0.00  0.00    +0.000 N 
ATOM     30  C   UNL     1      45.636   4.527   9.005  0.00  0.00    +0.000 A 
ATOM     31  O   UNL     1      46.254   5.549   8.732  0.00  0.00    +0.000 OA
ATOM     32  C   UNL     1      44.939   4.306  10.259  0.00  0.00    +0.000 A 
ATOM     33  H   UNL     1      45.999   3.631   7.219  0.00  0.00    +0.000 HD
ENDBRANCH  20  23
ENDBRANCH  18  19
ENDBRANCH   4  18
TORSDOF 6
ENDMDL
MODEL 9
REMARK VINA RESULT:    -6.597      4.829      7.611
REMARK INTER + INTRA:          -9.906
REMARK INTER:                  -9.052
REMARK INTRA:                  -0.854
REMARK UNBOUND:                -0.995
REMARK  Name = 
REMARK  6 active torsions:
REMARK  status: ('A' for Active; 'I' for Inactive)
REMARK    1  A    between atoms: C_2  and  C_25
REMARK    2  A    between atoms: N_3  and  C_4
REMARK    3  A    between atoms: C_4  and  C_5
REMARK    4  A    between atoms: C_8  and  C_9
REMARK    5  A    between atoms: C_9  and  N_10
REMARK    6  A    between atoms: C_11  and  C_13
REMARK                            x       y       z     vdW  Elec       q    Type
REMARK                         _______ _______ _______ _____ _____    ______ ____
ROOT
ATOM      1  C   UNL     1      50.582   8.410  12.478  0.00  0.00    +0.000 A 
ATOM      2  C   UNL     1      49.775   7.784  11.526  0.00  0.00    +0.000 A 
ATOM      3  C   UNL     1      48.402   7.678  11.740  0.00  0.00    +0.000 A 
ATOM      4  C   UNL     1      47.865   8.179  12.922  0.00  0.00    +0.000 A 
ATOM      5  N   UNL     1      48.626   8.804  13.857  0.00  0.00    +0.000 NA
ATOM      6  C   UNL     1      49.954   8.905  13.615  0.00  0.00    +0.000 A 
ENDROOT
BRANCH   1   7
ATOM      7  C   UNL     1      52.062   8.538  12.290  0.00  0.00    +0.000 C 
BRANCH   7  10
ATOM      8  O   UNL     1      52.949   9.137   9.712  0.00  0.00    +0.000 OA
ATOM      9  C   UNL     1      52.978   7.970  10.090  0.00  0.00    +0.000 C 
ATOM     10  N   UNL     1      52.589   7.576  11.353  0.00  0.00    +0.000 N 
ATOM     11  H   UNL     1      52.618   6.582  11.566  0.00  0.00    +0.000 HD
BRANCH   9  12
ATOM     12  C   UNL     1      53.441   6.871   9.181  0.00  0.00    +0.000 A 
ATOM     13  C   UNL     1      52.742   6.627   8.000  0.00  0.00    +0.000 A 
ATOM     14  C   UNL     1      53.172   5.588   7.182  0.00  0.00    +0.000 A 
ATOM     15  C   UNL     1      54.275   4.834   7.565  0.00  0.00    +0.000 A 
ATOM     16  C   UNL     1      54.914   5.150   8.756  0.00  0.00    +0.000 A 
ATOM     17  N   UNL     1      54.527   6.152   9.580  0.00  0.00    +0.000 NA
ENDBRANCH   9  12
ENDBRANCH   7  10
ENDBRANCH   1   7
BRANCH   4  18
ATOM     18  C   UNL     1      46.390   8.027  13.212  0.00  0.00    +0.000 C 
BRANCH  18  19
ATOM     19  N   UNL     1      45.874   6.733  12.830  0.00  0.00    +0.000 N 
ATOM     20  C   UNL     1      44.967   6.567  11.817  0.00  0.00    +0.000 C 
ATOM     21  O   UNL     1      44.540   7.514  11.163  0.00  0.00    +0.000 OA
ATOM     22  H   UNL     1      46.053   5.978  13.484  0.00  0.00    +0.000 HD
BRANCH  20  23
ATOM     23  C   UNL     1      44.571   5.184  11.511  0.00  0.00    +0.000 A 
ATOM     24  C   UNL     1      43.801   4.474  12.423  0.00  0.00    +0.000 A 
ATOM     25  S   UNL     1      43.409   2.896  11.908  0.00  0.00    +0.000 S 
ATOM     26  C   UNL     1      44.282   3.092  10.461  0.00  0.00    +0.000 A 
ATOM     27  N   UNL     1      44.374   2.081   9.556  0.00  0.00    +0.000 NA
ATOM     28  C   UNL     1      45.086   2.357   8.516  0.00  0.00    +0.000 A 
ATOM     29  N   UNL     1      45.708   3.558   8.294  0.00  0.00    +0.000 N 
ATOM     30  C   UNL     1      45.605   4.623   9.156  0.00  0.00    +0.000 A 
ATOM     31  O   UNL     1      46.100   5.710   8.884  0.00  0.00    +0.000 OA
ATOM     32  C   UNL     1      44.843   4.353  10.360  0.00  0.00    +0.000 A 
ATOM     33  H   UNL     1      46.233   3.722   7.447  0.00  0.00    +0.000 HD
ENDBRANCH  20  23
ENDBRANCH  18  19
ENDBRANCH   4  18
TORSDOF 6
ENDMDL
