MODEL 1
REMARK VINA RESULT:    -7.634      0.000      0.000
REMARK INTER + INTRA:         -10.757
REMARK INTER:                  -9.865
REMARK INTRA:                  -0.892
REMARK UNBOUND:                -0.892
REMARK  Name = 
REMARK  5 active torsions:
REMARK  status: ('A' for Active; 'I' for Inactive)
REMARK    1  A    between atoms: C_5  and  N_6
REMARK    2  A    between atoms: N_6  and  C_7
REMARK    3  A    between atoms: C_7  and  C_8
REMARK    4  A    between atoms: C_8  and  C_9
REMARK    5  A    between atoms: C_13  and  C_14
REMARK                            x       y       z     vdW  Elec       q    Type
REMARK                         _______ _______ _______ _____ _____    ______ ____
ROOT
ATOM      1  C   UNL     1      45.004   5.411  12.659  0.00  0.00    +0.000 A 
ATOM      2  C   UNL     1      45.605   4.385  13.381  0.00  0.00    +0.000 A 
ATOM      3  C   UNL     1      46.966   4.471  13.646  0.00  0.00    +0.000 A 
ATOM      4  N   UNL     1      47.752   5.500  13.254  0.00  0.00    +0.000 NA
ATOM      5  C   UNL     1      47.167   6.510  12.569  0.00  0.00    +0.000 A 
ATOM      6  C   UNL     1      45.804   6.488  12.256  0.00  0.00    +0.000 A 
ENDROOT
BRANCH   5   7
ATOM      7  C   UNL     1      48.039   7.627  12.167  0.00  0.00    +0.000 A 
ATOM      8  C   UNL     1      49.403   7.447  11.896  0.00  0.00    +0.000 A 
ATOM      9  C   UNL     1      50.219   8.531  11.580  0.00  0.00    +0.000 A 
ATOM     10  C   UNL     1      49.643   9.786  11.524  0.00  0.00    +0.000 A 
ATOM     11  N   UNL     1      48.333  10.015  11.748  0.00  0.00    +0.000 NA
ATOM     12  C   UNL     1      47.566   8.935  12.054  0.00  0.00    +0.000 A 
ENDBRANCH   5   7
BRANCH   1  13
ATOM     13  C   UNL     1      43.531   5.382  12.323  0.00  0.00    +0.000 C 
BRANCH  13  14
ATOM     14  C   UNL     1      43.210   4.378  11.209  0.00  0.00    +0.000 C 
BRANCH  14  15
ATOM     15  N   UNL     1      43.716   4.844   9.911  0.00  0.00    +0.000 N 
ATOM     16  H   UNL     1      44.105   5.784   9.946  0.00  0.00    +0.000 HD
BRANCH  15  21
ATOM     17 CL   UNL     1      47.386   1.080   7.134  0.00  0.00    +0.000 Cl
ATOM     18  C   UNL     1      46.307   2.172   7.906  0.00  0.00    +0.000 A 
ATOM     19  C   UNL     1      46.385   3.532   7.634  0.00  0.00    +0.000 A 
ATOM     20  C   UNL     1      45.516   4.422   8.276  0.00  0.00    +0.000 A 
ATOM     21  C   UNL     1      44.542   3.973   9.179  0.00  0.00    +0.000 A 
ATOM     22  C   UNL     1      44.501   2.598   9.456  0.00  0.00    +0.000 A 
ATOM     23  C   UNL     1      45.365   1.699   8.815  0.00  0.00    +0.000 A 
ENDBRANCH  15  21
ENDBRANCH  14  15
ENDBRANCH  13  14
ENDBRANCH   1  13
TORSDOF 5
ENDMDL
MODEL 2
REMARK VINA RESULT:    -7.580      2.285      4.189
REMARK INTER + INTRA:         -10.687
REMARK INTER:                  -9.965
REMARK INTRA:                  -0.722
REMARK UNBOUND:                -0.892
REMARK  Name = 
REMARK  5 active torsions:
REMARK  status: ('A' for Active; 'I' for Inactive)
REMARK    1  A    between atoms: C_5  and  N_6
REMARK    2  A    between atoms: N_6  and  C_7
REMARK    3  A    between atoms: C_7  and  C_8
REMARK    4  A    between atoms: C_8  and  C_9
REMARK    5  A    between atoms: C_13  and  C_14
REMARK                            x       y       z     vdW  Elec       q    Type
REMARK                         _______ _______ _______ _____ _____    ______ ____
ROOT
ATOM      1  C   UNL     1      45.925   5.169  12.868  0.00  0.00    +0.000 A 
ATOM      2  C   UNL     1      46.762   6.094  12.252  0.00  0.00    +0.000 A 
ATOM      3  C   UNL     1      47.906   6.504  12.925  0.00  0.00    +0.000 A 
ATOM      4  N   UNL     1      48.271   6.052  14.147  0.00  0.00    +0.000 NA
ATOM      5  C   UNL     1      47.470   5.134  14.740  0.00  0.00    +0.000 A 
ATOM      6  C   UNL     1      46.296   4.683  14.129  0.00  0.00    +0.000 A 
ENDROOT
BRANCH   5   7
ATOM      7  C   UNL     1      47.896   4.644  16.062  0.00  0.00    +0.000 A 
ATOM      8  C   UNL     1      47.543   3.371  16.534  0.00  0.00    +0.000 A 
ATOM      9  C   UNL     1      47.904   2.957  17.814  0.00  0.00    +0.000 A 
ATOM     10  C   UNL     1      48.636   3.828  18.598  0.00  0.00    +0.000 A 
ATOM     11  N   UNL     1      49.027   5.052  18.188  0.00  0.00    +0.000 NA
ATOM     12  C   UNL     1      48.656   5.424  16.934  0.00  0.00    +0.000 A 
ENDBRANCH   5   7
BRANCH   1  13
ATOM     13  C   UNL     1      44.657   4.685  12.203  0.00  0.00    +0.000 C 
BRANCH  13  14
ATOM     14  C   UNL     1      44.233   5.587  11.038  0.00  0.00    +0.000 C 
BRANCH  14  15
ATOM     15  N   UNL     1      43.750   4.795   9.900  0.00  0.00    +0.000 N 
ATOM     16  H   UNL     1      43.234   5.347   9.217  0.00  0.00    +0.000 HD
BRANCH  15  21
ATOM     17 CL   UNL     1      47.421   1.178   6.936  0.00  0.00    +0.000 Cl
ATOM     18  C   UNL     1      46.379   2.218   7.822  0.00  0.00    +0.000 A 
ATOM     19  C   UNL     1      45.475   1.683   8.732  0.00  0.00    +0.000 A 
ATOM     20  C   UNL     1      44.617   2.530   9.441  0.00  0.00    +0.000 A 
ATOM     21  C   UNL     1      44.657   3.922   9.276  0.00  0.00    +0.000 A 
ATOM     22  C   UNL     1      45.560   4.435   8.332  0.00  0.00    +0.000 A 
ATOM     23  C   UNL     1      46.426   3.594   7.620  0.00  0.00    +0.000 A 
ENDBRANCH  15  21
ENDBRANCH  14  15
ENDBRANCH  13  14
ENDBRANCH   1  13
TORSDOF 5
ENDMDL
MODEL 3
REMARK VINA RESULT:    -7.229      2.865      6.658
REMARK INTER + INTRA:         -10.234
REMARK INTER:                  -9.370
REMARK INTRA:                  -0.864
REMARK UNBOUND:                -0.892
REMARK  Name = 
REMARK  5 active torsions:
REMARK  status: ('A' for Active; 'I' for Inactive)
REMARK    1  A    between atoms: C_5  and  N_6
REMARK    2  A    between atoms: N_6  and  C_7
REMARK    3  A    between atoms: C_7  and  C_8
REMARK    4  A    between atoms: C_8  and  C_9
REMARK    5  A    between atoms: C_13  and  C_14
REMARK                            x       y       z     vdW  Elec       q    Type
REMARK                         _______ _______ _______ _____ _____    ______ ____
ROOT
ATOM      1  C   UNL     1      44.194   4.840  10.865  0.00  0.00    +0.000 A 
ATOM      2  C   UNL     1      43.473   3.840  11.510  0.00  0.00    +0.000 A 
ATOM      3  C   UNL     1      43.560   2.541  11.024  0.00  0.00    +0.000 A 
ATOM      4  N   UNL     1      44.315   2.178   9.961  0.00  0.00    +0.000 NA
ATOM      5  C   UNL     1      45.036   3.144   9.345  0.00  0.00    +0.000 A 
ATOM      6  C   UNL     1      44.989   4.475   9.770  0.00  0.00    +0.000 A 
ENDROOT
BRANCH   5   7
ATOM      7  C   UNL     1      45.863   2.722   8.201  0.00  0.00    +0.000 A 
ATOM      8  C   UNL     1      46.145   3.581   7.129  0.00  0.00    +0.000 A 
ATOM      9  C   UNL     1      46.876   3.135   6.029  0.00  0.00    +0.000 A 
ATOM     10  C   UNL     1      47.330   1.831   6.034  0.00  0.00    +0.000 A 
ATOM     11  N   UNL     1      47.112   0.970   7.048  0.00  0.00    +0.000 NA
ATOM     12  C   UNL     1      46.395   1.436   8.105  0.00  0.00    +0.000 A 
ENDBRANCH   5   7
BRANCH   1  13
ATOM     13  C   UNL     1      44.140   6.277  11.329  0.00  0.00    +0.000 C 
BRANCH  13  14
ATOM     14  C   UNL     1      44.333   6.404  12.845  0.00  0.00    +0.000 C 
BRANCH  14  15
ATOM     15  N   UNL     1      45.739   6.212  13.220  0.00  0.00    +0.000 N 
ATOM     16  H   UNL     1      46.078   5.270  13.035  0.00  0.00    +0.000 HD
BRANCH  15  21
ATOM     17 CL   UNL     1      49.410  10.439  11.221  0.00  0.00    +0.000 Cl
ATOM     18  C   UNL     1      48.373   9.209  11.824  0.00  0.00    +0.000 A 
ATOM     19  C   UNL     1      48.680   7.872  11.601  0.00  0.00    +0.000 A 
ATOM     20  C   UNL     1      47.826   6.873  12.080  0.00  0.00    +0.000 A 
ATOM     21  C   UNL     1      46.666   7.183  12.806  0.00  0.00    +0.000 A 
ATOM     22  C   UNL     1      46.366   8.540  12.994  0.00  0.00    +0.000 A 
ATOM     23  C   UNL     1      47.218   9.548  12.521  0.00  0.00    +0.000 A 
ENDBRANCH  15  21
ENDBRANCH  14  15
ENDBRANCH  13  14
ENDBRANCH   1  13
TORSDOF 5
ENDMDL
MODEL 4
REMARK VINA RESULT:    -7.101      1.759      2.534
REMARK INTER + INTRA:         -10.069
REMARK INTER:                  -9.407
REMARK INTRA:                  -0.662
REMARK UNBOUND:                -0.892
REMARK  Name = 
REMARK  5 active torsions:
REMARK  status: ('A' for Active; 'I' for Inactive)
REMARK    1  A    between atoms: C_5  and  N_6
REMARK    2  A    between atoms: N_6  and  C_7
REMARK    3  A    between atoms: C_7  and  C_8
REMARK    4  A    between atoms: C_8  and  C_9
REMARK    5  A    between atoms: C_13  and  C_14
REMARK                            x       y       z     vdW  Elec       q    Type
REMARK                         _______ _______ _______ _____ _____    ______ ____
ROOT
ATOM      1  C   UNL     1      44.797   5.076  11.947  0.00  0.00    +0.000 A 
ATOM      2  C   UNL     1      44.109   6.144  11.379  0.00  0.00    +0.000 A 
ATOM      3  C   UNL     1      44.652   7.417  11.492  0.00  0.00    +0.000 A 
ATOM      4  N   UNL     1      45.822   7.691  12.115  0.00  0.00    +0.000 NA
ATOM      5  C   UNL     1      46.506   6.651  12.649  0.00  0.00    +0.000 A 
ATOM      6  C   UNL     1      46.015   5.343  12.584  0.00  0.00    +0.000 A 
ENDROOT
BRANCH   5   7
ATOM      7  C   UNL     1      47.784   6.970  13.307  0.00  0.00    +0.000 A 
ATOM      8  C   UNL     1      48.693   7.890  12.762  0.00  0.00    +0.000 A 
ATOM      9  C   UNL     1      49.924   8.125  13.372  0.00  0.00    +0.000 A 
ATOM     10  C   UNL     1      50.216   7.441  14.536  0.00  0.00    +0.000 A 
ATOM     11  N   UNL     1      49.370   6.567  15.119  0.00  0.00    +0.000 NA
ATOM     12  C   UNL     1      48.179   6.361  14.498  0.00  0.00    +0.000 A 
ENDBRANCH   5   7
BRANCH   1  13
ATOM     13  C   UNL     1      44.263   3.664  11.874  0.00  0.00    +0.000 C 
BRANCH  13  14
ATOM     14  C   UNL     1      43.940   3.240  10.436  0.00  0.00    +0.000 C 
BRANCH  14  15
ATOM     15  N   UNL     1      44.786   2.118  10.010  0.00  0.00    +0.000 N 
ATOM     16  H   UNL     1      44.327   1.213  10.100  0.00  0.00    +0.000 HD
BRANCH  15  21
ATOM     17 CL   UNL     1      47.949   2.554   4.995  0.00  0.00    +0.000 Cl
ATOM     18  C   UNL     1      47.005   2.430   6.425  0.00  0.00    +0.000 A 
ATOM     19  C   UNL     1      46.339   3.546   6.915  0.00  0.00    +0.000 A 
ATOM     20  C   UNL     1      45.583   3.447   8.089  0.00  0.00    +0.000 A 
ATOM     21  C   UNL     1      45.458   2.233   8.781  0.00  0.00    +0.000 A 
ATOM     22  C   UNL     1      46.162   1.128   8.279  0.00  0.00    +0.000 A 
ATOM     23  C   UNL     1      46.918   1.218   7.103  0.00  0.00    +0.000 A 
ENDBRANCH  15  21
ENDBRANCH  14  15
ENDBRANCH  13  14
ENDBRANCH   1  13
TORSDOF 5
ENDMDL
MODEL 5
REMARK VINA RESULT:    -7.080      3.247      6.754
REMARK INTER + INTRA:         -10.041
REMARK INTER:                  -9.324
REMARK INTRA:                  -0.717
REMARK UNBOUND:                -0.892
REMARK  Name = 
REMARK  5 active torsions:
REMARK  status: ('A' for Active; 'I' for Inactive)
REMARK    1  A    between atoms: C_5  and  N_6
REMARK    2  A    between atoms: N_6  and  C_7
REMARK    3  A    between atoms: C_7  and  C_8
REMARK    4  A    between atoms: C_8  and  C_9
REMARK    5  A    between atoms: C_13  and  C_14
REMARK                            x       y       z     vdW  Elec       q    Type
REMARK                         _______ _______ _______ _____ _____    ______ ____
ROOT
ATOM      1  C   UNL     1      44.241   5.167  11.054  0.00  0.00    +0.000 A 
ATOM      2  C   UNL     1      43.421   4.280  11.745  0.00  0.00    +0.000 A 
ATOM      3  C   UNL     1      43.359   2.961  11.313  0.00  0.00    +0.000 A 
ATOM      4  N   UNL     1      44.056   2.474  10.260  0.00  0.00    +0.000 NA
ATOM      5  C   UNL     1      44.872   3.329   9.599  0.00  0.00    +0.000 A 
ATOM      6  C   UNL     1      44.977   4.673   9.970  0.00  0.00    +0.000 A 
ENDROOT
BRANCH   5   7
ATOM      7  C   UNL     1      45.634   2.772   8.468  0.00  0.00    +0.000 A 
ATOM      8  C   UNL     1      46.042   1.431   8.433  0.00  0.00    +0.000 A 
ATOM      9  C   UNL     1      46.817   0.947   7.381  0.00  0.00    +0.000 A 
ATOM     10  C   UNL     1      47.156   1.820   6.366  0.00  0.00    +0.000 A 
ATOM     11  N   UNL     1      46.769   3.111   6.333  0.00  0.00    +0.000 NA
ATOM     12  C   UNL     1      46.015   3.551   7.375  0.00  0.00    +0.000 A 
ENDBRANCH   5   7
BRANCH   1  13
ATOM     13  C   UNL     1      44.351   6.618  11.459  0.00  0.00    +0.000 C 
BRANCH  13  14
ATOM     14  C   UNL     1      45.110   6.796  12.780  0.00  0.00    +0.000 C 
BRANCH  14  15
ATOM     15  N   UNL     1      46.499   6.334  12.661  0.00  0.00    +0.000 N 
ATOM     16  H   UNL     1      47.095   6.982  12.148  0.00  0.00    +0.000 HD
BRANCH  15  21
ATOM     17 CL   UNL     1      48.865   4.390  17.757  0.00  0.00    +0.000 Cl
ATOM     18  C   UNL     1      48.211   4.943  16.267  0.00  0.00    +0.000 A 
ATOM     19  C   UNL     1      48.664   6.133  15.710  0.00  0.00    +0.000 A 
ATOM     20  C   UNL     1      48.120   6.589  14.505  0.00  0.00    +0.000 A 
ATOM     21  C   UNL     1      47.134   5.862  13.822  0.00  0.00    +0.000 A 
ATOM     22  C   UNL     1      46.675   4.677  14.419  0.00  0.00    +0.000 A 
ATOM     23  C   UNL     1      47.218   4.211  15.624  0.00  0.00    +0.000 A 
ENDBRANCH  15  21
ENDBRANCH  14  15
ENDBRANCH  13  14
ENDBRANCH   1  13
TORSDOF 5
ENDMDL
MODEL 6
REMARK VINA RESULT:    -6.953      2.044      2.454
REMARK INTER + INTRA:          -9.876
REMARK INTER:                  -9.136
REMARK INTRA:                  -0.740
REMARK UNBOUND:                -0.892
REMARK  Name = 
REMARK  5 active torsions:
REMARK  status: ('A' for Active; 'I' for Inactive)
REMARK    1  A    between atoms: C_5  and  N_6
REMARK    2  A    between atoms: N_6  and  C_7
REMARK    3  A    between atoms: C_7  and  C_8
REMARK    4  A    between atoms: C_8  and  C_9
REMARK    5  A    between atoms: C_13  and  C_14
REMARK                            x       y       z     vdW  Elec       q    Type
REMARK                         _______ _______ _______ _____ _____    ______ ____
ROOT
ATOM      1  C   UNL     1      46.098   5.691  12.510  0.00  0.00    +0.000 A 
ATOM      2  C   UNL     1      45.962   4.434  13.093  0.00  0.00    +0.000 A 
ATOM      3  C   UNL     1      46.807   4.097  14.143  0.00  0.00    +0.000 A 
ATOM      4  N   UNL     1      47.755   4.919  14.650  0.00  0.00    +0.000 NA
ATOM      5  C   UNL     1      47.875   6.151  14.099  0.00  0.00    +0.000 A 
ATOM      6  C   UNL     1      47.067   6.556  13.032  0.00  0.00    +0.000 A 
ENDROOT
BRANCH   5   7
ATOM      7  C   UNL     1      48.901   7.035  14.677  0.00  0.00    +0.000 A 
ATOM      8  C   UNL     1      48.999   7.260  16.058  0.00  0.00    +0.000 A 
ATOM      9  C   UNL     1      49.939   8.151  16.572  0.00  0.00    +0.000 A 
ATOM     10  C   UNL     1      50.782   8.792  15.686  0.00  0.00    +0.000 A 
ATOM     11  N   UNL     1      50.752   8.594  14.353  0.00  0.00    +0.000 NA
ATOM     12  C   UNL     1      49.823   7.719  13.885  0.00  0.00    +0.000 A 
ENDBRANCH   5   7
BRANCH   1  13
ATOM     13  C   UNL     1      45.223   6.124  11.357  0.00  0.00    +0.000 C 
BRANCH  13  14
ATOM     14  C   UNL     1      43.981   5.237  11.206  0.00  0.00    +0.000 C 
BRANCH  14  15
ATOM     15  N   UNL     1      43.759   4.865   9.803  0.00  0.00    +0.000 N 
ATOM     16  H   UNL     1      43.575   5.665   9.201  0.00  0.00    +0.000 HD
BRANCH  15  21
ATOM     17 CL   UNL     1      47.434   1.151   6.968  0.00  0.00    +0.000 Cl
ATOM     18  C   UNL     1      46.392   2.221   7.817  0.00  0.00    +0.000 A 
ATOM     19  C   UNL     1      45.513   1.721   8.770  0.00  0.00    +0.000 A 
ATOM     20  C   UNL     1      44.654   2.592   9.449  0.00  0.00    +0.000 A 
ATOM     21  C   UNL     1      44.669   3.974   9.210  0.00  0.00    +0.000 A 
ATOM     22  C   UNL     1      45.548   4.449   8.224  0.00  0.00    +0.000 A 
ATOM     23  C   UNL     1      46.414   3.584   7.541  0.00  0.00    +0.000 A 
ENDBRANCH  15  21
ENDBRANCH  14  15
ENDBRANCH  13  14
ENDBRANCH   1  13
TORSDOF 5
ENDMDL
MODEL 7
REMARK VINA RESULT:    -6.892      2.902      6.460
REMARK INTER + INTRA:          -9.798
REMARK INTER:                  -9.031
REMARK INTRA:                  -0.768
REMARK UNBOUND:                -0.892
REMARK  Name = 
REMARK  5 active torsions:
REMARK  status: ('A' for Active; 'I' for Inactive)
REMARK    1  A    between atoms: C_5  and  N_6
REMARK    2  A    between atoms: N_6  and  C_7
REMARK    3  A    between atoms: C_7  and  C_8
REMARK    4  A    between atoms: C_8  and  C_9
REMARK    5  A    between atoms: C_13  and  C_14
REMARK                            x       y       z     vdW  Elec       q    Type
REMARK                         _______ _______ _______ _____ _____    ______ ____
ROOT
ATOM      1  C   UNL     1      43.408   5.009  10.970  0.00  0.00    +0.000 A 
ATOM      2  C   UNL     1      42.999   4.014  11.853  0.00  0.00    +0.000 A 
ATOM      3  C   UNL     1      43.387   2.704  11.600  0.00  0.00    +0.000 A 
ATOM      4  N   UNL     1      44.152   2.328  10.549  0.00  0.00    +0.000 NA
ATOM      5  C   UNL     1      44.571   3.297   9.700  0.00  0.00    +0.000 A 
ATOM      6  C   UNL     1      44.210   4.636   9.885  0.00  0.00    +0.000 A 
ENDROOT
BRANCH   5   7
ATOM      7  C   UNL     1      45.416   2.867   8.573  0.00  0.00    +0.000 A 
ATOM      8  C   UNL     1      45.953   1.574   8.496  0.00  0.00    +0.000 A 
ATOM      9  C   UNL     1      46.802   1.214   7.452  0.00  0.00    +0.000 A 
ATOM     10  C   UNL     1      47.085   2.160   6.486  0.00  0.00    +0.000 A 
ATOM     11  N   UNL     1      46.576   3.408   6.494  0.00  0.00    +0.000 NA
ATOM     12  C   UNL     1      45.752   3.727   7.527  0.00  0.00    +0.000 A 
ENDBRANCH   5   7
BRANCH   1  13
ATOM     13  C   UNL     1      43.016   6.454  11.174  0.00  0.00    +0.000 C 
BRANCH  13  14
ATOM     14  C   UNL     1      44.236   7.368  11.339  0.00  0.00    +0.000 C 
BRANCH  14  15
ATOM     15  N   UNL     1      44.839   7.215  12.670  0.00  0.00    +0.000 N 
ATOM     16  H   UNL     1      44.593   6.336  13.122  0.00  0.00    +0.000 HD
BRANCH  15  21
ATOM     17 CL   UNL     1      50.661   8.113  13.467  0.00  0.00    +0.000 Cl
ATOM     18  C   UNL     1      48.978   7.879  13.212  0.00  0.00    +0.000 A 
ATOM     19  C   UNL     1      48.067   8.803  13.711  0.00  0.00    +0.000 A 
ATOM     20  C   UNL     1      46.696   8.603  13.516  0.00  0.00    +0.000 A 
ATOM     21  C   UNL     1      46.209   7.497  12.804  0.00  0.00    +0.000 A 
ATOM     22  C   UNL     1      47.148   6.566  12.334  0.00  0.00    +0.000 A 
ATOM     23  C   UNL     1      48.524   6.760  12.522  0.00  0.00    +0.000 A 
ENDBRANCH  15  21
ENDBRANCH  14  15
ENDBRANCH  13  14
ENDBRANCH   1  13
TORSDOF 5
ENDMDL
MODEL 8
REMARK VINA RESULT:    -6.865      1.227      2.322
REMARK INTER + INTRA:          -9.764
REMARK INTER:                  -9.001
REMARK INTRA:                  -0.763
REMARK UNBOUND:                -0.892
REMARK  Name = 
REMARK  5 active torsions:
REMARK  status: ('A' for Active; 'I' for Inactive)
REMARK    1  A    between atoms: C_5  and  N_6
REMARK    2  A    between atoms: N_6  and  C_7
REMARK    3  A    between atoms: C_7  and  C_8
REMARK    4  A    between atoms: C_8  and  C_9
REMARK    5  A    between atoms: C_13  and  C_14
REMARK                            x       y       z     vdW  Elec       q    Type
REMARK                         _______ _______ _______ _____ _____    ______ ____
ROOT
ATOM      1  C   UNL     1      45.867   6.382  12.055  0.00  0.00    +0.000 A 
ATOM      2  C   UNL     1      44.984   7.388  12.434  0.00  0.00    +0.000 A 
ATOM      3  C   UNL     1      45.469   8.683  12.559  0.00  0.00    +0.000 A 
ATOM      4  N   UNL     1      46.754   9.039  12.325  0.00  0.00    +0.000 NA
ATOM      5  C   UNL     1      47.611   8.066  11.934  0.00  0.00    +0.000 A 
ATOM      6  C   UNL     1      47.197   6.738  11.798  0.00  0.00    +0.000 A 
ENDROOT
BRANCH   5   7
ATOM      7  C   UNL     1      49.000   8.479  11.669  0.00  0.00    +0.000 A 
ATOM      8  C   UNL     1      49.347   9.817  11.431  0.00  0.00    +0.000 A 
ATOM      9  C   UNL     1      50.658  10.171  11.119  0.00  0.00    +0.000 A 
ATOM     10  C   UNL     1      51.609   9.170  11.067  0.00  0.00    +0.000 A 
ATOM     11  N   UNL     1      51.338   7.872  11.313  0.00  0.00    +0.000 NA
ATOM     12  C   UNL     1      50.049   7.562  11.614  0.00  0.00    +0.000 A 
ENDBRANCH   5   7
BRANCH   1  13
ATOM     13  C   UNL     1      45.414   4.948  11.909  0.00  0.00    +0.000 C 
BRANCH  13  14
ATOM     14  C   UNL     1      43.944   4.844  11.485  0.00  0.00    +0.000 C 
BRANCH  14  15
ATOM     15  N   UNL     1      43.817   4.766  10.024  0.00  0.00    +0.000 N 
ATOM     16  H   UNL     1      43.754   5.679   9.577  0.00  0.00    +0.000 HD
BRANCH  15  21
ATOM     17 CL   UNL     1      47.365   1.260   6.789  0.00  0.00    +0.000 Cl
ATOM     18  C   UNL     1      46.360   2.267   7.753  0.00  0.00    +0.000 A 
ATOM     19  C   UNL     1      45.484   1.697   8.669  0.00  0.00    +0.000 A 
ATOM     20  C   UNL     1      44.655   2.518   9.442  0.00  0.00    +0.000 A 
ATOM     21  C   UNL     1      44.698   3.916   9.334  0.00  0.00    +0.000 A 
ATOM     22  C   UNL     1      45.572   4.463   8.382  0.00  0.00    +0.000 A 
ATOM     23  C   UNL     1      46.409   3.649   7.606  0.00  0.00    +0.000 A 
ENDBRANCH  15  21
ENDBRANCH  14  15
ENDBRANCH  13  14
ENDBRANCH   1  13
TORSDOF 5
ENDMDL
MODEL 9
REMARK VINA RESULT:    -6.178      3.071      6.900
REMARK INTER + INTRA:          -8.875
REMARK INTER:                  -7.900
REMARK INTRA:                  -0.975
REMARK UNBOUND:                -0.892
REMARK  Name = 
REMARK  5 active torsions:
REMARK  status: ('A' for Active; 'I' for Inactive)
REMARK    1  A    between atoms: C_5  and  N_6
REMARK    2  A    between atoms: N_6  and  C_7
REMARK    3  A    between atoms: C_7  and  C_8
REMARK    4  A    between atoms: C_8  and  C_9
REMARK    5  A    between atoms: C_13  and  C_14
REMARK                            x       y       z     vdW  Elec       q    Type
REMARK                         _______ _______ _______ _____ _____    ______ ____
ROOT
ATOM      1  C   UNL     1      47.172   7.870  11.971  0.00  0.00    +0.000 A 
ATOM      2  C   UNL     1      46.098   8.637  12.412  0.00  0.00    +0.000 A 
ATOM      3  C   UNL     1      44.810   8.194  12.137  0.00  0.00    +0.000 A 
ATOM      4  N   UNL     1      44.527   7.050  11.471  0.00  0.00    +0.000 NA
ATOM      5  C   UNL     1      45.569   6.290  11.060  0.00  0.00    +0.000 A 
ATOM      6  C   UNL     1      46.893   6.678  11.291  0.00  0.00    +0.000 A 
ENDROOT
BRANCH   5   7
ATOM      7  C   UNL     1      45.237   5.042  10.352  0.00  0.00    +0.000 A 
ATOM      8  C   UNL     1      45.612   4.818   9.019  0.00  0.00    +0.000 A 
ATOM      9  C   UNL     1      45.228   3.656   8.354  0.00  0.00    +0.000 A 
ATOM     10  C   UNL     1      44.484   2.722   9.049  0.00  0.00    +0.000 A 
ATOM     11  N   UNL     1      44.119   2.871  10.339  0.00  0.00    +0.000 NA
ATOM     12  C   UNL     1      44.509   4.017  10.957  0.00  0.00    +0.000 A 
ENDBRANCH   5   7
BRANCH   1  13
ATOM     13  C   UNL     1      48.600   8.293  12.222  0.00  0.00    +0.000 C 
BRANCH  13  14
ATOM     14  C   UNL     1      49.338   7.320  13.150  0.00  0.00    +0.000 C 
BRANCH  14  15
ATOM     15  N   UNL     1      48.904   7.481  14.544  0.00  0.00    +0.000 N 
ATOM     16  H   UNL     1      48.201   8.208  14.664  0.00  0.00    +0.000 HD
BRANCH  15  21
ATOM     17 CL   UNL     1      47.149   2.713  17.632  0.00  0.00    +0.000 Cl
ATOM     18  C   UNL     1      47.688   4.075  16.732  0.00  0.00    +0.000 A 
ATOM     19  C   UNL     1      48.633   4.935  17.278  0.00  0.00    +0.000 A 
ATOM     20  C   UNL     1      49.058   6.053  16.551  0.00  0.00    +0.000 A 
ATOM     21  C   UNL     1      48.570   6.321  15.264  0.00  0.00    +0.000 A 
ATOM     22  C   UNL     1      47.598   5.451  14.747  0.00  0.00    +0.000 A 
ATOM     23  C   UNL     1      47.168   4.327  15.467  0.00  0.00    +0.000 A 
ENDBRANCH  15  21
ENDBRANCH  14  15
ENDBRANCH  13  14
ENDBRANCH   1  13
TORSDOF 5
ENDMDL
