MODEL 1
REMARK VINA RESULT:    -8.173      0.000      0.000
REMARK INTER + INTRA:         -14.480
REMARK INTER:                 -12.951
REMARK INTRA:                  -1.529
REMARK UNBOUND:                -1.529
REMARK  Name = 
REMARK  12 active torsions:
REMARK  status: ('A' for Active; 'I' for Inactive)
REMARK    1  A    between atoms: C_1  and  O_2
REMARK    2  A    between atoms: O_2  and  C_3
REMARK    3  A    between atoms: C_3  and  C_4
REMARK    4  A    between atoms: C_4  and  N_5
REMARK    5  A    between atoms: C_4  and  C_28
REMARK    6  A    between atoms: N_5  and  C_6
REMARK    7  A    between atoms: C_6  and  C_7
REMARK    8  A    between atoms: C_10  and  C_11
REMARK    9  A    between atoms: C_11  and  N_12
REMARK   10  A    between atoms: C_13  and  C_15
REMARK   11  A    between atoms: C_22  and  O_23
REMARK   12  A    between atoms: O_23  and  C_24
REMARK                            x       y       z     vdW  Elec       q    Type
REMARK                         _______ _______ _______ _____ _____    ______ ____
ROOT
ATOM      1  C   UNL     1      44.874   6.187  11.003  0.00  0.00    +0.000 A 
ATOM      2  C   UNL     1      46.269   6.102  10.888  0.00  0.00    +0.000 A 
ATOM      3  C   UNL     1      47.102   6.808  11.761  0.00  0.00    +0.000 A 
ATOM      4  C   UNL     1      46.558   7.616  12.769  0.00  0.00    +0.000 A 
ATOM      5  C   UNL     1      45.165   7.732  12.860  0.00  0.00    +0.000 A 
ATOM      6  C   UNL     1      44.333   7.022  11.991  0.00  0.00    +0.000 A 
ENDROOT
BRANCH   1   7
ATOM      7  C   UNL     1      43.964   5.428  10.059  0.00  0.00    +0.000 C 
BRANCH   7   8
ATOM      8  N   UNL     1      44.713   4.786   8.974  0.00  0.00    +0.000 NA
ATOM      9  H   UNL     1      44.280   5.064   8.091  0.00  0.00    +0.000 HD
BRANCH   8  10
ATOM     10  C   UNL     1      44.635   3.302   9.014  0.00  0.00    +0.000 C 
BRANCH  10  11
ATOM     11  C   UNL     1      45.633   2.616   8.086  0.00  0.00    +0.000 A 
ATOM     12  C   UNL     1      46.183   3.307   7.007  0.00  0.00    +0.000 A 
ATOM     13  C   UNL     1      47.135   2.669   6.215  0.00  0.00    +0.000 A 
ATOM     14  C   UNL     1      47.524   1.370   6.526  0.00  0.00    +0.000 A 
ATOM     15  C   UNL     1      46.941   0.756   7.616  0.00  0.00    +0.000 A 
ATOM     16  N   UNL     1      46.009   1.344   8.397  0.00  0.00    +0.000 NA
ENDBRANCH  10  11
BRANCH  10  17
ATOM     17  C   UNL     1      44.728   2.698  10.439  0.00  0.00    +0.000 C 
BRANCH  17  19
ATOM     18  C   UNL     1      43.444   2.890  12.395  0.00  0.00    +0.000 C 
ATOM     19  O   UNL     1      43.422   2.532  11.015  0.00  0.00    +0.000 OA
ENDBRANCH  17  19
ENDBRANCH  10  17
ENDBRANCH   8  10
ENDBRANCH   7   8
ENDBRANCH   1   7
BRANCH   4  20
ATOM     20  C   UNL     1      47.453   8.373  13.713  0.00  0.00    +0.000 C 
BRANCH  20  21
ATOM     21  N   UNL     1      47.798   7.570  14.859  0.00  0.00    +0.000 N 
ATOM     22  C   UNL     1      48.980   6.880  14.920  0.00  0.00    +0.000 C 
ATOM     23  O   UNL     1      49.832   6.969  14.041  0.00  0.00    +0.000 OA
ATOM     24  H   UNL     1      47.065   7.372  15.527  0.00  0.00    +0.000 HD
BRANCH  22  25
ATOM     25  C   UNL     1      49.202   6.080  16.128  0.00  0.00    +0.000 A 
ATOM     26  C   UNL     1      50.295   6.360  16.938  0.00  0.00    +0.000 A 
ATOM     27  S   UNL     1      50.369   5.393  18.336  0.00  0.00    +0.000 S 
ATOM     28  C   UNL     1      48.977   4.533  17.875  0.00  0.00    +0.000 A 
ATOM     29  N   UNL     1      48.516   3.543  18.659  0.00  0.00    +0.000 NA
ATOM     30  C   UNL     1      47.433   2.950  18.155  0.00  0.00    +0.000 A 
ATOM     31  N   UNL     1      46.816   3.235  17.003  0.00  0.00    +0.000 NA
ATOM     32  C   UNL     1      47.315   4.234  16.249  0.00  0.00    +0.000 A 
ATOM     33  C   UNL     1      48.440   4.963  16.670  0.00  0.00    +0.000 A 
BRANCH  32  34
ATOM     34  O   UNL     1      46.707   4.537  15.048  0.00  0.00    +0.000 OA
ATOM     35  C   UNL     1      47.098   3.688  13.972  0.00  0.00    +0.000 C 
ENDBRANCH  32  34
ENDBRANCH  22  25
ENDBRANCH  20  21
ENDBRANCH   4  20
TORSDOF 10
ENDMDL
MODEL 2
REMARK VINA RESULT:    -7.084      1.861      2.345
REMARK INTER + INTRA:         -12.754
REMARK INTER:                 -11.454
REMARK INTRA:                  -1.300
REMARK UNBOUND:                -1.529
REMARK  Name = 
REMARK  12 active torsions:
REMARK  status: ('A' for Active; 'I' for Inactive)
REMARK    1  A    between atoms: C_1  and  O_2
REMARK    2  A    between atoms: O_2  and  C_3
REMARK    3  A    between atoms: C_3  and  C_4
REMARK    4  A    between atoms: C_4  and  N_5
REMARK    5  A    between atoms: C_4  and  C_28
REMARK    6  A    between atoms: N_5  and  C_6
REMARK    7  A    between atoms: C_6  and  C_7
REMARK    8  A    between atoms: C_10  and  C_11
REMARK    9  A    between atoms: C_11  and  N_12
REMARK   10  A    between atoms: C_13  and  C_15
REMARK   11  A    between atoms: C_22  and  O_23
REMARK   12  A    between atoms: O_23  and  C_24
REMARK                            x       y       z     vdW  Elec       q    Type
REMARK                         _______ _______ _______ _____ _____    ______ ____
ROOT
ATOM      1  C   UNL     1      45.411   6.672  11.409  0.00  0.00    +0.000 A 
ATOM      2  C   UNL     1      46.687   6.219  11.773  0.00  0.00    +0.000 A 
ATOM      3  C   UNL     1      47.480   6.953  12.658  0.00  0.00    +0.000 A 
ATOM      4  C   UNL     1      47.015   8.159  13.200  0.00  0.00    +0.000 A 
ATOM      5  C   UNL     1      45.757   8.632  12.807  0.00  0.00    +0.000 A 
ATOM      6  C   UNL     1      44.962   7.895  11.926  0.00  0.00    +0.000 A 
ENDROOT
BRANCH   1   7
ATOM      7  C   UNL     1      44.545   5.884  10.446  0.00  0.00    +0.000 C 
BRANCH   7   8
ATOM      8  N   UNL     1      45.349   5.145   9.467  0.00  0.00    +0.000 NA
ATOM      9  H   UNL     1      45.223   5.596   8.559  0.00  0.00    +0.000 HD
BRANCH   8  10
ATOM     10  C   UNL     1      44.898   3.740   9.287  0.00  0.00    +0.000 C 
BRANCH  10  11
ATOM     11  C   UNL     1      45.697   2.976   8.235  0.00  0.00    +0.000 A 
ATOM     12  C   UNL     1      46.135   3.618   7.078  0.00  0.00    +0.000 A 
ATOM     13  C   UNL     1      46.912   2.905   6.167  0.00  0.00    +0.000 A 
ATOM     14  C   UNL     1      47.241   1.581   6.438  0.00  0.00    +0.000 A 
ATOM     15  C   UNL     1      46.778   1.018   7.610  0.00  0.00    +0.000 A 
ATOM     16  N   UNL     1      46.016   1.680   8.508  0.00  0.00    +0.000 NA
ENDBRANCH  10  11
BRANCH  10  17
ATOM     17  C   UNL     1      44.826   2.922  10.602  0.00  0.00    +0.000 C 
BRANCH  17  19
ATOM     18  C   UNL     1      43.351   2.972  12.428  0.00  0.00    +0.000 C 
ATOM     19  O   UNL     1      43.465   2.743  11.025  0.00  0.00    +0.000 OA
ENDBRANCH  17  19
ENDBRANCH  10  17
ENDBRANCH   8  10
ENDBRANCH   7   8
ENDBRANCH   1   7
BRANCH   4  20
ATOM     20  C   UNL     1      47.866   8.949  14.159  0.00  0.00    +0.000 C 
BRANCH  20  21
ATOM     21  N   UNL     1      47.926   8.310  15.449  0.00  0.00    +0.000 N 
ATOM     22  C   UNL     1      48.312   8.997  16.571  0.00  0.00    +0.000 C 
ATOM     23  O   UNL     1      48.553  10.200  16.547  0.00  0.00    +0.000 OA
ATOM     24  H   UNL     1      47.867   7.301  15.473  0.00  0.00    +0.000 HD
BRANCH  22  25
ATOM     25  C   UNL     1      48.357   8.227  17.818  0.00  0.00    +0.000 A 
ATOM     26  C   UNL     1      47.714   8.722  18.945  0.00  0.00    +0.000 A 
ATOM     27  S   UNL     1      47.797   7.679  20.286  0.00  0.00    +0.000 S 
ATOM     28  C   UNL     1      48.740   6.561  19.420  0.00  0.00    +0.000 A 
ATOM     29  N   UNL     1      49.156   5.432  20.023  0.00  0.00    +0.000 NA
ATOM     30  C   UNL     1      49.902   4.668  19.225  0.00  0.00    +0.000 A 
ATOM     31  N   UNL     1      50.256   4.922  17.959  0.00  0.00    +0.000 NA
ATOM     32  C   UNL     1      49.818   6.066  17.398  0.00  0.00    +0.000 A 
ATOM     33  C   UNL     1      49.001   6.956  18.116  0.00  0.00    +0.000 A 
BRANCH  32  34
ATOM     34  O   UNL     1      50.183   6.360  16.100  0.00  0.00    +0.000 OA
ATOM     35  C   UNL     1      51.522   6.832  15.969  0.00  0.00    +0.000 C 
ENDBRANCH  32  34
ENDBRANCH  22  25
ENDBRANCH  20  21
ENDBRANCH   4  20
TORSDOF 10
ENDMDL
MODEL 3
REMARK VINA RESULT:    -6.976      2.404      3.074
REMARK INTER + INTRA:         -12.584
REMARK INTER:                 -11.297
REMARK INTRA:                  -1.287
REMARK UNBOUND:                -1.529
REMARK  Name = 
REMARK  12 active torsions:
REMARK  status: ('A' for Active; 'I' for Inactive)
REMARK    1  A    between atoms: C_1  and  O_2
REMARK    2  A    between atoms: O_2  and  C_3
REMARK    3  A    between atoms: C_3  and  C_4
REMARK    4  A    between atoms: C_4  and  N_5
REMARK    5  A    between atoms: C_4  and  C_28
REMARK    6  A    between atoms: N_5  and  C_6
REMARK    7  A    between atoms: C_6  and  C_7
REMARK    8  A    between atoms: C_10  and  C_11
REMARK    9  A    between atoms: C_11  and  N_12
REMARK   10  A    between atoms: C_13  and  C_15
REMARK   11  A    between atoms: C_22  and  O_23
REMARK   12  A    between atoms: O_23  and  C_24
REMARK                            x       y       z     vdW  Elec       q    Type
REMARK                         _______ _______ _______ _____ _____    ______ ____
ROOT
ATOM      1  C   UNL     1      46.874   6.563  12.695  0.00  0.00    +0.000 A 
ATOM      2  C   UNL     1      47.140   5.645  13.721  0.00  0.00    +0.000 A 
ATOM      3  C   UNL     1      47.943   6.001  14.809  0.00  0.00    +0.000 A 
ATOM      4  C   UNL     1      48.499   7.284  14.894  0.00  0.00    +0.000 A 
ATOM      5  C   UNL     1      48.268   8.189  13.851  0.00  0.00    +0.000 A 
ATOM      6  C   UNL     1      47.461   7.835  12.766  0.00  0.00    +0.000 A 
ENDROOT
BRANCH   1   7
ATOM      7  C   UNL     1      46.009   6.184  11.511  0.00  0.00    +0.000 C 
BRANCH   7   8
ATOM      8  N   UNL     1      45.686   4.753  11.504  0.00  0.00    +0.000 NA
ATOM      9  H   UNL     1      46.541   4.244  11.273  0.00  0.00    +0.000 HD
BRANCH   8  10
ATOM     10  C   UNL     1      44.699   4.386  10.454  0.00  0.00    +0.000 C 
BRANCH  10  11
ATOM     11  C   UNL     1      45.309   3.604   9.294  0.00  0.00    +0.000 A 
ATOM     12  C   UNL     1      45.877   4.275   8.212  0.00  0.00    +0.000 A 
ATOM     13  C   UNL     1      46.476   3.529   7.199  0.00  0.00    +0.000 A 
ATOM     14  C   UNL     1      46.507   2.143   7.297  0.00  0.00    +0.000 A 
ATOM     15  C   UNL     1      45.933   1.552   8.404  0.00  0.00    +0.000 A 
ATOM     16  N   UNL     1      45.336   2.246   9.398  0.00  0.00    +0.000 NA
ENDBRANCH  10  11
BRANCH  10  17
ATOM     17  C   UNL     1      43.443   3.653  10.991  0.00  0.00    +0.000 C 
BRANCH  17  19
ATOM     18  C   UNL     1      42.304   5.547  11.783  0.00  0.00    +0.000 C 
ATOM     19  O   UNL     1      42.917   4.314  12.153  0.00  0.00    +0.000 OA
ENDBRANCH  17  19
ENDBRANCH  10  17
ENDBRANCH   8  10
ENDBRANCH   7   8
ENDBRANCH   1   7
BRANCH   4  20
ATOM     20  C   UNL     1      49.360   7.672  16.067  0.00  0.00    +0.000 C 
BRANCH  20  21
ATOM     21  N   UNL     1      50.305   6.632  16.384  0.00  0.00    +0.000 N 
ATOM     22  C   UNL     1      50.398   6.109  17.648  0.00  0.00    +0.000 C 
ATOM     23  O   UNL     1      49.636   6.445  18.549  0.00  0.00    +0.000 OA
ATOM     24  H   UNL     1      51.029   6.436  15.705  0.00  0.00    +0.000 HD
BRANCH  22  25
ATOM     25  C   UNL     1      51.417   5.073  17.848  0.00  0.00    +0.000 A 
ATOM     26  C   UNL     1      52.671   5.436  18.320  0.00  0.00    +0.000 A 
ATOM     27  S   UNL     1      53.712   4.114  18.568  0.00  0.00    +0.000 S 
ATOM     28  C   UNL     1      52.539   3.022  17.999  0.00  0.00    +0.000 A 
ATOM     29  N   UNL     1      52.822   1.707  17.949  0.00  0.00    +0.000 NA
ATOM     30  C   UNL     1      51.814   0.983  17.462  0.00  0.00    +0.000 A 
ATOM     31  N   UNL     1      50.626   1.430  17.037  0.00  0.00    +0.000 NA
ATOM     32  C   UNL     1      50.389   2.756  17.104  0.00  0.00    +0.000 A 
ATOM     33  C   UNL     1      51.354   3.636  17.620  0.00  0.00    +0.000 A 
BRANCH  32  34
ATOM     34  O   UNL     1      49.179   3.244  16.656  0.00  0.00    +0.000 OA
ATOM     35  C   UNL     1      48.123   3.137  17.608  0.00  0.00    +0.000 C 
ENDBRANCH  32  34
ENDBRANCH  22  25
ENDBRANCH  20  21
ENDBRANCH   4  20
TORSDOF 10
ENDMDL
MODEL 4
REMARK VINA RESULT:    -6.234      5.301      9.778
REMARK INTER + INTRA:         -11.407
REMARK INTER:                 -10.322
REMARK INTRA:                  -1.085
REMARK UNBOUND:                -1.529
REMARK  Name = 
REMARK  12 active torsions:
REMARK  status: ('A' for Active; 'I' for Inactive)
REMARK    1  A    between atoms: C_1  and  O_2
REMARK    2  A    between atoms: O_2  and  C_3
REMARK    3  A    between atoms: C_3  and  C_4
REMARK    4  A    between atoms: C_4  and  N_5
REMARK    5  A    between atoms: C_4  and  C_28
REMARK    6  A    between atoms: N_5  and  C_6
REMARK    7  A    between atoms: C_6  and  C_7
REMARK    8  A    between atoms: C_10  and  C_11
REMARK    9  A    between atoms: C_11  and  N_12
REMARK   10  A    between atoms: C_13  and  C_15
REMARK   11  A    between atoms: C_22  and  O_23
REMARK   12  A    between atoms: O_23  and  C_24
REMARK                            x       y       z     vdW  Elec       q    Type
REMARK                         _______ _______ _______ _____ _____    ______ ____
ROOT
ATOM      1  C   UNL     1      51.591   2.834  17.759  0.00  0.00    +0.000 A 
ATOM      2  C   UNL     1      50.820   1.887  17.070  0.00  0.00    +0.000 A 
ATOM      3  C   UNL     1      49.453   2.091  16.864  0.00  0.00    +0.000 A 
ATOM      4  C   UNL     1      48.825   3.248  17.343  0.00  0.00    +0.000 A 
ATOM      5  C   UNL     1      49.585   4.177  18.065  0.00  0.00    +0.000 A 
ATOM      6  C   UNL     1      50.953   3.975  18.267  0.00  0.00    +0.000 A 
ENDROOT
BRANCH   1   7
ATOM      7  C   UNL     1      53.073   2.619  17.991  0.00  0.00    +0.000 C 
BRANCH   7   8
ATOM      8  N   UNL     1      53.540   1.356  17.411  0.00  0.00    +0.000 NA
ATOM      9  H   UNL     1      52.725   0.867  17.036  0.00  0.00    +0.000 HD
BRANCH   8  10
ATOM     10  C   UNL     1      54.136   0.439  18.418  0.00  0.00    +0.000 C 
BRANCH  10  11
ATOM     11  C   UNL     1      54.616  -0.883  17.827  0.00  0.00    +0.000 A 
ATOM     12  C   UNL     1      54.692  -2.026  18.623  0.00  0.00    +0.000 A 
ATOM     13  C   UNL     1      55.079  -3.228  18.036  0.00  0.00    +0.000 A 
ATOM     14  C   UNL     1      55.365  -3.265  16.676  0.00  0.00    +0.000 A 
ATOM     15  C   UNL     1      55.258  -2.094  15.953  0.00  0.00    +0.000 A 
ATOM     16  N   UNL     1      54.894  -0.911  16.494  0.00  0.00    +0.000 NA
ENDBRANCH  10  11
BRANCH  10  17
ATOM     17  C   UNL     1      55.256   1.080  19.277  0.00  0.00    +0.000 C 
BRANCH  17  19
ATOM     18  C   UNL     1      55.208   2.508  21.139  0.00  0.00    +0.000 C 
ATOM     19  O   UNL     1      54.841   1.222  20.644  0.00  0.00    +0.000 OA
ENDBRANCH  17  19
ENDBRANCH  10  17
ENDBRANCH   8  10
ENDBRANCH   7   8
ENDBRANCH   1   7
BRANCH   4  20
ATOM     20  C   UNL     1      47.354   3.473  17.118  0.00  0.00    +0.000 C 
BRANCH  20  21
ATOM     21  N   UNL     1      47.129   4.533  16.168  0.00  0.00    +0.000 N 
ATOM     22  C   UNL     1      47.160   4.302  14.817  0.00  0.00    +0.000 C 
ATOM     23  O   UNL     1      47.306   3.176  14.352  0.00  0.00    +0.000 OA
ATOM     24  H   UNL     1      47.143   5.482  16.516  0.00  0.00    +0.000 HD
BRANCH  22  25
ATOM     25  C   UNL     1      46.941   5.468  13.955  0.00  0.00    +0.000 A 
ATOM     26  C   UNL     1      47.893   6.478  13.924  0.00  0.00    +0.000 A 
ATOM     27  S   UNL     1      47.527   7.721  12.822  0.00  0.00    +0.000 S 
ATOM     28  C   UNL     1      46.060   6.977  12.393  0.00  0.00    +0.000 A 
ATOM     29  N   UNL     1      45.258   7.559  11.483  0.00  0.00    +0.000 NA
ATOM     30  C   UNL     1      44.138   6.869  11.269  0.00  0.00    +0.000 A 
ATOM     31  N   UNL     1      43.766   5.725  11.856  0.00  0.00    +0.000 NA
ATOM     32  C   UNL     1      44.601   5.179  12.763  0.00  0.00    +0.000 A 
ATOM     33  C   UNL     1      45.830   5.787  13.069  0.00  0.00    +0.000 A 
BRANCH  32  34
ATOM     34  O   UNL     1      44.233   4.010  13.395  0.00  0.00    +0.000 OA
ATOM     35  C   UNL     1      43.772   2.993  12.508  0.00  0.00    +0.000 C 
ENDBRANCH  32  34
ENDBRANCH  22  25
ENDBRANCH  20  21
ENDBRANCH   4  20
TORSDOF 10
ENDMDL
MODEL 5
REMARK VINA RESULT:    -6.155      3.382      5.108
REMARK INTER + INTRA:         -11.281
REMARK INTER:                 -10.012
REMARK INTRA:                  -1.270
REMARK UNBOUND:                -1.529
REMARK  Name = 
REMARK  12 active torsions:
REMARK  status: ('A' for Active; 'I' for Inactive)
REMARK    1  A    between atoms: C_1  and  O_2
REMARK    2  A    between atoms: O_2  and  C_3
REMARK    3  A    between atoms: C_3  and  C_4
REMARK    4  A    between atoms: C_4  and  N_5
REMARK    5  A    between atoms: C_4  and  C_28
REMARK    6  A    between atoms: N_5  and  C_6
REMARK    7  A    between atoms: C_6  and  C_7
REMARK    8  A    between atoms: C_10  and  C_11
REMARK    9  A    between atoms: C_11  and  N_12
REMARK   10  A    between atoms: C_13  and  C_15
REMARK   11  A    between atoms: C_22  and  O_23
REMARK   12  A    between atoms: O_23  and  C_24
REMARK                            x       y       z     vdW  Elec       q    Type
REMARK                         _______ _______ _______ _____ _____    ______ ____
ROOT
ATOM      1  C   UNL     1      47.482   4.799  15.025  0.00  0.00    +0.000 A 
ATOM      2  C   UNL     1      47.144   3.776  15.921  0.00  0.00    +0.000 A 
ATOM      3  C   UNL     1      47.491   3.866  17.272  0.00  0.00    +0.000 A 
ATOM      4  C   UNL     1      48.185   4.982  17.757  0.00  0.00    +0.000 A 
ATOM      5  C   UNL     1      48.558   5.987  16.855  0.00  0.00    +0.000 A 
ATOM      6  C   UNL     1      48.207   5.899  15.506  0.00  0.00    +0.000 A 
ENDROOT
BRANCH   1   7
ATOM      7  C   UNL     1      47.114   4.708  13.557  0.00  0.00    +0.000 C 
BRANCH   7   8
ATOM      8  N   UNL     1      46.003   3.778  13.329  0.00  0.00    +0.000 NA
ATOM      9  H   UNL     1      46.368   2.982  12.803  0.00  0.00    +0.000 HD
BRANCH   8  10
ATOM     10  C   UNL     1      44.923   4.359  12.487  0.00  0.00    +0.000 C 
BRANCH  10  11
ATOM     11  C   UNL     1      45.074   4.042  11.002  0.00  0.00    +0.000 A 
ATOM     12  C   UNL     1      44.620   2.827  10.490  0.00  0.00    +0.000 A 
ATOM     13  C   UNL     1      44.721   2.596   9.120  0.00  0.00    +0.000 A 
ATOM     14  C   UNL     1      45.257   3.581   8.298  0.00  0.00    +0.000 A 
ATOM     15  C   UNL     1      45.676   4.761   8.878  0.00  0.00    +0.000 A 
ATOM     16  N   UNL     1      45.600   5.012  10.203  0.00  0.00    +0.000 NA
ENDBRANCH  10  11
BRANCH  10  17
ATOM     17  C   UNL     1      43.489   4.014  12.965  0.00  0.00    +0.000 C 
BRANCH  17  19
ATOM     18  C   UNL     1      42.271   5.625  11.769  0.00  0.00    +0.000 C 
ATOM     19  O   UNL     1      42.681   5.196  13.066  0.00  0.00    +0.000 OA
ENDBRANCH  17  19
ENDBRANCH  10  17
ENDBRANCH   8  10
ENDBRANCH   7   8
ENDBRANCH   1   7
BRANCH   4  20
ATOM     20  C   UNL     1      48.555   5.084  19.213  0.00  0.00    +0.000 C 
BRANCH  20  21
ATOM     21  N   UNL     1      49.866   4.537  19.455  0.00  0.00    +0.000 N 
ATOM     22  C   UNL     1      50.955   5.345  19.654  0.00  0.00    +0.000 C 
ATOM     23  O   UNL     1      50.856   6.568  19.709  0.00  0.00    +0.000 OA
ATOM     24  H   UNL     1      49.999   3.549  19.281  0.00  0.00    +0.000 HD
BRANCH  22  25
ATOM     25  C   UNL     1      52.237   4.667  19.866  0.00  0.00    +0.000 A 
ATOM     26  C   UNL     1      53.108   5.147  20.833  0.00  0.00    +0.000 A 
ATOM     27  S   UNL     1      54.516   4.207  21.005  0.00  0.00    +0.000 S 
ATOM     28  C   UNL     1      54.031   3.163  19.755  0.00  0.00    +0.000 A 
ATOM     29  N   UNL     1      54.822   2.134  19.402  0.00  0.00    +0.000 NA
ATOM     30  C   UNL     1      54.318   1.420  18.395  0.00  0.00    +0.000 A 
ATOM     31  N   UNL     1      53.169   1.637  17.743  0.00  0.00    +0.000 NA
ATOM     32  C   UNL     1      52.410   2.681  18.131  0.00  0.00    +0.000 A 
ATOM     33  C   UNL     1      52.807   3.505  19.197  0.00  0.00    +0.000 A 
BRANCH  32  34
ATOM     34  O   UNL     1      51.229   2.936  17.464  0.00  0.00    +0.000 OA
ATOM     35  C   UNL     1      50.557   1.765  17.009  0.00  0.00    +0.000 C 
ENDBRANCH  32  34
ENDBRANCH  22  25
ENDBRANCH  20  21
ENDBRANCH   4  20
TORSDOF 10
ENDMDL
MODEL 6
REMARK VINA RESULT:    -6.058      5.235      9.874
REMARK INTER + INTRA:         -11.128
REMARK INTER:                 -10.098
REMARK INTRA:                  -1.030
REMARK UNBOUND:                -1.529
REMARK  Name = 
REMARK  12 active torsions:
REMARK  status: ('A' for Active; 'I' for Inactive)
REMARK    1  A    between atoms: C_1  and  O_2
REMARK    2  A    between atoms: O_2  and  C_3
REMARK    3  A    between atoms: C_3  and  C_4
REMARK    4  A    between atoms: C_4  and  N_5
REMARK    5  A    between atoms: C_4  and  C_28
REMARK    6  A    between atoms: N_5  and  C_6
REMARK    7  A    between atoms: C_6  and  C_7
REMARK    8  A    between atoms: C_10  and  C_11
REMARK    9  A    between atoms: C_11  and  N_12
REMARK   10  A    between atoms: C_13  and  C_15
REMARK   11  A    between atoms: C_22  and  O_23
REMARK   12  A    between atoms: O_23  and  C_24
REMARK                            x       y       z     vdW  Elec       q    Type
REMARK                         _______ _______ _______ _____ _____    ______ ____
ROOT
ATOM      1  C   UNL     1      51.644   2.312  17.541  0.00  0.00    +0.000 A 
ATOM      2  C   UNL     1      51.215   3.609  17.854  0.00  0.00    +0.000 A 
ATOM      3  C   UNL     1      49.867   3.962  17.745  0.00  0.00    +0.000 A 
ATOM      4  C   UNL     1      48.917   3.024  17.320  0.00  0.00    +0.000 A 
ATOM      5  C   UNL     1      49.350   1.739  16.969  0.00  0.00    +0.000 A 
ATOM      6  C   UNL     1      50.697   1.385  17.083  0.00  0.00    +0.000 A 
ENDROOT
BRANCH   1   7
ATOM      7  C   UNL     1      53.104   1.922  17.652  0.00  0.00    +0.000 C 
BRANCH   7   8
ATOM      8  N   UNL     1      53.299   0.777  18.547  0.00  0.00    +0.000 NA
ATOM      9  H   UNL     1      53.706   1.128  19.416  0.00  0.00    +0.000 HD
BRANCH   8  10
ATOM     10  C   UNL     1      54.270  -0.216  18.017  0.00  0.00    +0.000 C 
BRANCH  10  11
ATOM     11  C   UNL     1      54.070  -1.621  18.579  0.00  0.00    +0.000 A 
ATOM     12  C   UNL     1      54.909  -2.664  18.189  0.00  0.00    +0.000 A 
ATOM     13  C   UNL     1      54.734  -3.919  18.766  0.00  0.00    +0.000 A 
ATOM     14  C   UNL     1      53.742  -4.099  19.723  0.00  0.00    +0.000 A 
ATOM     15  C   UNL     1      52.958  -3.016  20.065  0.00  0.00    +0.000 A 
ATOM     16  N   UNL     1      53.096  -1.789  19.517  0.00  0.00    +0.000 NA
ENDBRANCH  10  11
BRANCH  10  17
ATOM     17  C   UNL     1      54.349  -0.265  16.470  0.00  0.00    +0.000 C 
BRANCH  17  19
ATOM     18  C   UNL     1      55.774   1.348  15.534  0.00  0.00    +0.000 C 
ATOM     19  O   UNL     1      55.682   0.007  16.012  0.00  0.00    +0.000 OA
ENDBRANCH  17  19
ENDBRANCH  10  17
ENDBRANCH   8  10
ENDBRANCH   7   8
ENDBRANCH   1   7
BRANCH   4  20
ATOM     20  C   UNL     1      47.463   3.400  17.206  0.00  0.00    +0.000 C 
BRANCH  20  21
ATOM     21  N   UNL     1      47.278   4.484  16.276  0.00  0.00    +0.000 N 
ATOM     22  C   UNL     1      47.216   4.265  14.924  0.00  0.00    +0.000 C 
ATOM     23  O   UNL     1      47.242   3.135  14.446  0.00  0.00    +0.000 OA
ATOM     24  H   UNL     1      47.391   5.425  16.628  0.00  0.00    +0.000 HD
BRANCH  22  25
ATOM     25  C   UNL     1      47.050   5.453  14.082  0.00  0.00    +0.000 A 
ATOM     26  C   UNL     1      48.017   6.448  14.113  0.00  0.00    +0.000 A 
ATOM     27  S   UNL     1      47.715   7.722  13.026  0.00  0.00    +0.000 S 
ATOM     28  C   UNL     1      46.255   7.012  12.522  0.00  0.00    +0.000 A 
ATOM     29  N   UNL     1      45.500   7.627  11.595  0.00  0.00    +0.000 NA
ATOM     30  C   UNL     1      44.379   6.961  11.320  0.00  0.00    +0.000 A 
ATOM     31  N   UNL     1      43.966   5.810  11.864  0.00  0.00    +0.000 NA
ATOM     32  C   UNL     1      44.755   5.230  12.791  0.00  0.00    +0.000 A 
ATOM     33  C   UNL     1      45.980   5.811  13.160  0.00  0.00    +0.000 A 
BRANCH  32  34
ATOM     34  O   UNL     1      44.344   4.053  13.380  0.00  0.00    +0.000 OA
ATOM     35  C   UNL     1      43.758   3.125  12.471  0.00  0.00    +0.000 C 
ENDBRANCH  32  34
ENDBRANCH  22  25
ENDBRANCH  20  21
ENDBRANCH   4  20
TORSDOF 10
ENDMDL
MODEL 7
REMARK VINA RESULT:    -6.011      5.282     10.108
REMARK INTER + INTRA:         -11.055
REMARK INTER:                  -9.673
REMARK INTRA:                  -1.382
REMARK UNBOUND:                -1.529
REMARK  Name = 
REMARK  12 active torsions:
REMARK  status: ('A' for Active; 'I' for Inactive)
REMARK    1  A    between atoms: C_1  and  O_2
REMARK    2  A    between atoms: O_2  and  C_3
REMARK    3  A    between atoms: C_3  and  C_4
REMARK    4  A    between atoms: C_4  and  N_5
REMARK    5  A    between atoms: C_4  and  C_28
REMARK    6  A    between atoms: N_5  and  C_6
REMARK    7  A    between atoms: C_6  and  C_7
REMARK    8  A    between atoms: C_10  and  C_11
REMARK    9  A    between atoms: C_11  and  N_12
REMARK   10  A    between atoms: C_13  and  C_15
REMARK   11  A    between atoms: C_22  and  O_23
REMARK   12  A    between atoms: O_23  and  C_24
REMARK                            x       y       z     vdW  Elec       q    Type
REMARK                         _______ _______ _______ _____ _____    ______ ____
ROOT
ATOM      1  C   UNL     1      51.415   2.663  17.684  0.00  0.00    +0.000 A 
ATOM      2  C   UNL     1      50.903   3.906  18.083  0.00  0.00    +0.000 A 
ATOM      3  C   UNL     1      49.570   4.243  17.834  0.00  0.00    +0.000 A 
ATOM      4  C   UNL     1      48.718   3.345  17.179  0.00  0.00    +0.000 A 
ATOM      5  C   UNL     1      49.237   2.119  16.745  0.00  0.00    +0.000 A 
ATOM      6  C   UNL     1      50.569   1.779  16.998  0.00  0.00    +0.000 A 
ENDROOT
BRANCH   1   7
ATOM      7  C   UNL     1      52.860   2.290  17.946  0.00  0.00    +0.000 C 
BRANCH   7   8
ATOM      8  N   UNL     1      53.027   0.846  18.140  0.00  0.00    +0.000 NA
ATOM      9  H   UNL     1      52.448   0.572  18.936  0.00  0.00    +0.000 HD
BRANCH   8  10
ATOM     10  C   UNL     1      54.418   0.465  18.500  0.00  0.00    +0.000 C 
BRANCH  10  11
ATOM     11  C   UNL     1      54.521  -0.907  19.160  0.00  0.00    +0.000 A 
ATOM     12  C   UNL     1      55.732  -1.344  19.694  0.00  0.00    +0.000 A 
ATOM     13  C   UNL     1      55.775  -2.577  20.341  0.00  0.00    +0.000 A 
ATOM     14  C   UNL     1      54.612  -3.332  20.452  0.00  0.00    +0.000 A 
ATOM     15  C   UNL     1      53.450  -2.827  19.906  0.00  0.00    +0.000 A 
ATOM     16  N   UNL     1      53.377  -1.640  19.265  0.00  0.00    +0.000 NA
ENDBRANCH  10  11
BRANCH  10  17
ATOM     17  C   UNL     1      55.430   0.573  17.330  0.00  0.00    +0.000 C 
BRANCH  17  19
ATOM     18  C   UNL     1      55.639  -1.220  15.830  0.00  0.00    +0.000 C 
ATOM     19  O   UNL     1      54.907  -0.036  16.138  0.00  0.00    +0.000 OA
ENDBRANCH  17  19
ENDBRANCH  10  17
ENDBRANCH   8  10
ENDBRANCH   7   8
ENDBRANCH   1   7
BRANCH   4  20
ATOM     20  C   UNL     1      47.280   3.704  16.914  0.00  0.00    +0.000 C 
BRANCH  20  21
ATOM     21  N   UNL     1      47.173   4.670  15.850  0.00  0.00    +0.000 N 
ATOM     22  C   UNL     1      47.174   4.289  14.534  0.00  0.00    +0.000 C 
ATOM     23  O   UNL     1      47.193   3.108  14.198  0.00  0.00    +0.000 OA
ATOM     24  H   UNL     1      47.293   5.645  16.092  0.00  0.00    +0.000 HD
BRANCH  22  25
ATOM     25  C   UNL     1      47.085   5.369  13.546  0.00  0.00    +0.000 A 
ATOM     26  C   UNL     1      46.123   5.298  12.548  0.00  0.00    +0.000 A 
ATOM     27  S   UNL     1      46.102   6.660  11.529  0.00  0.00    +0.000 S 
ATOM     28  C   UNL     1      47.413   7.360  12.355  0.00  0.00    +0.000 A 
ATOM     29  N   UNL     1      47.891   8.552  11.957  0.00  0.00    +0.000 NA
ATOM     30  C   UNL     1      48.930   8.959  12.686  0.00  0.00    +0.000 A 
ATOM     31  N   UNL     1      49.504   8.314  13.709  0.00  0.00    +0.000 NA
ATOM     32  C   UNL     1      48.991   7.121  14.072  0.00  0.00    +0.000 A 
ATOM     33  C   UNL     1      47.879   6.582  13.405  0.00  0.00    +0.000 A 
BRANCH  32  34
ATOM     34  O   UNL     1      49.575   6.428  15.112  0.00  0.00    +0.000 OA
ATOM     35  C   UNL     1      50.583   7.162  15.803  0.00  0.00    +0.000 C 
ENDBRANCH  32  34
ENDBRANCH  22  25
ENDBRANCH  20  21
ENDBRANCH   4  20
TORSDOF 10
ENDMDL
MODEL 8
REMARK VINA RESULT:    -5.968      3.825      6.390
REMARK INTER + INTRA:         -10.987
REMARK INTER:                  -9.514
REMARK INTRA:                  -1.473
REMARK UNBOUND:                -1.529
REMARK  Name = 
REMARK  12 active torsions:
REMARK  status: ('A' for Active; 'I' for Inactive)
REMARK    1  A    between atoms: C_1  and  O_2
REMARK    2  A    between atoms: O_2  and  C_3
REMARK    3  A    between atoms: C_3  and  C_4
REMARK    4  A    between atoms: C_4  and  N_5
REMARK    5  A    between atoms: C_4  and  C_28
REMARK    6  A    between atoms: N_5  and  C_6
REMARK    7  A    between atoms: C_6  and  C_7
REMARK    8  A    between atoms: C_10  and  C_11
REMARK    9  A    between atoms: C_11  and  N_12
REMARK   10  A    between atoms: C_13  and  C_15
REMARK   11  A    between atoms: C_22  and  O_23
REMARK   12  A    between atoms: O_23  and  C_24
REMARK                            x       y       z     vdW  Elec       q    Type
REMARK                         _______ _______ _______ _____ _____    ______ ____
ROOT
ATOM      1  C   UNL     1      47.679   4.688  16.082  0.00  0.00    +0.000 A 
ATOM      2  C   UNL     1      47.407   3.751  17.089  0.00  0.00    +0.000 A 
ATOM      3  C   UNL     1      47.999   3.866  18.350  0.00  0.00    +0.000 A 
ATOM      4  C   UNL     1      48.876   4.921  18.632  0.00  0.00    +0.000 A 
ATOM      5  C   UNL     1      49.180   5.835  17.615  0.00  0.00    +0.000 A 
ATOM      6  C   UNL     1      48.584   5.723  16.356  0.00  0.00    +0.000 A 
ENDROOT
BRANCH   1   7
ATOM      7  C   UNL     1      47.045   4.569  14.710  0.00  0.00    +0.000 C 
BRANCH   7   8
ATOM      8  N   UNL     1      46.794   5.881  14.107  0.00  0.00    +0.000 NA
ATOM      9  H   UNL     1      45.911   6.231  14.483  0.00  0.00    +0.000 HD
BRANCH   8  10
ATOM     10  C   UNL     1      46.611   5.818  12.633  0.00  0.00    +0.000 C 
BRANCH  10  11
ATOM     11  C   UNL     1      45.176   5.517  12.212  0.00  0.00    +0.000 A 
ATOM     12  C   UNL     1      44.895   5.099  10.912  0.00  0.00    +0.000 A 
ATOM     13  C   UNL     1      43.581   4.777  10.579  0.00  0.00    +0.000 A 
ATOM     14  C   UNL     1      42.589   4.865  11.549  0.00  0.00    +0.000 A 
ATOM     15  C   UNL     1      42.947   5.276  12.816  0.00  0.00    +0.000 A 
ATOM     16  N   UNL     1      44.210   5.604  13.168  0.00  0.00    +0.000 NA
ENDBRANCH  10  11
BRANCH  10  17
ATOM     17  C   UNL     1      47.143   7.060  11.872  0.00  0.00    +0.000 C 
BRANCH  17  19
ATOM     18  C   UNL     1      46.045   9.053  12.448  0.00  0.00    +0.000 C 
ATOM     19  O   UNL     1      47.166   8.216  12.723  0.00  0.00    +0.000 OA
ENDBRANCH  17  19
ENDBRANCH  10  17
ENDBRANCH   8  10
ENDBRANCH   7   8
ENDBRANCH   1   7
BRANCH   4  20
ATOM     20  C   UNL     1      49.511   5.050  19.992  0.00  0.00    +0.000 C 
BRANCH  20  21
ATOM     21  N   UNL     1      50.721   4.272  20.076  0.00  0.00    +0.000 N 
ATOM     22  C   UNL     1      51.957   4.861  20.009  0.00  0.00    +0.000 C 
ATOM     23  O   UNL     1      52.095   6.079  19.947  0.00  0.00    +0.000 OA
ATOM     24  H   UNL     1      50.637   3.268  19.990  0.00  0.00    +0.000 HD
BRANCH  22  25
ATOM     25  C   UNL     1      53.110   3.958  20.082  0.00  0.00    +0.000 A 
ATOM     26  C   UNL     1      54.058   4.147  21.078  0.00  0.00    +0.000 A 
ATOM     27  S   UNL     1      55.291   2.975  21.071  0.00  0.00    +0.000 S 
ATOM     28  C   UNL     1      54.627   2.212  19.705  0.00  0.00    +0.000 A 
ATOM     29  N   UNL     1      55.232   1.128  19.187  0.00  0.00    +0.000 NA
ATOM     30  C   UNL     1      54.607   0.657  18.108  0.00  0.00    +0.000 A 
ATOM     31  N   UNL     1      53.504   1.149  17.530  0.00  0.00    +0.000 NA
ATOM     32  C   UNL     1      52.933   2.238  18.084  0.00  0.00    +0.000 A 
ATOM     33  C   UNL     1      53.472   2.826  19.240  0.00  0.00    +0.000 A 
BRANCH  32  34
ATOM     34  O   UNL     1      51.806   2.775  17.498  0.00  0.00    +0.000 OA
ATOM     35  C   UNL     1      50.804   1.813  17.180  0.00  0.00    +0.000 C 
ENDBRANCH  32  34
ENDBRANCH  22  25
ENDBRANCH  20  21
ENDBRANCH   4  20
TORSDOF 10
ENDMDL
MODEL 9
REMARK VINA RESULT:    -5.862      1.926      2.847
REMARK INTER + INTRA:         -10.818
REMARK INTER:                  -9.672
REMARK INTRA:                  -1.145
REMARK UNBOUND:                -1.529
REMARK  Name = 
REMARK  12 active torsions:
REMARK  status: ('A' for Active; 'I' for Inactive)
REMARK    1  A    between atoms: C_1  and  O_2
REMARK    2  A    between atoms: O_2  and  C_3
REMARK    3  A    between atoms: C_3  and  C_4
REMARK    4  A    between atoms: C_4  and  N_5
REMARK    5  A    between atoms: C_4  and  C_28
REMARK    6  A    between atoms: N_5  and  C_6
REMARK    7  A    between atoms: C_6  and  C_7
REMARK    8  A    between atoms: C_10  and  C_11
REMARK    9  A    between atoms: C_11  and  N_12
REMARK   10  A    between atoms: C_13  and  C_15
REMARK   11  A    between atoms: C_22  and  O_23
REMARK   12  A    between atoms: O_23  and  C_24
REMARK                            x       y       z     vdW  Elec       q    Type
REMARK                         _______ _______ _______ _____ _____    ______ ____
ROOT
ATOM      1  C   UNL     1      46.961   7.402  12.155  0.00  0.00    +0.000 A 
ATOM      2  C   UNL     1      47.807   6.412  12.674  0.00  0.00    +0.000 A 
ATOM      3  C   UNL     1      48.966   6.758  13.374  0.00  0.00    +0.000 A 
ATOM      4  C   UNL     1      49.305   8.103  13.571  0.00  0.00    +0.000 A 
ATOM      5  C   UNL     1      48.482   9.092  13.020  0.00  0.00    +0.000 A 
ATOM      6  C   UNL     1      47.320   8.746  12.324  0.00  0.00    +0.000 A 
ENDROOT
BRANCH   1   7
ATOM      7  C   UNL     1      45.704   7.035  11.391  0.00  0.00    +0.000 C 
BRANCH   7   8
ATOM      8  N   UNL     1      45.374   5.613  11.529  0.00  0.00    +0.000 NA
ATOM      9  H   UNL     1      46.239   5.081  11.409  0.00  0.00    +0.000 HD
BRANCH   8  10
ATOM     10  C   UNL     1      44.449   5.126  10.472  0.00  0.00    +0.000 C 
BRANCH  10  11
ATOM     11  C   UNL     1      45.094   4.130   9.512  0.00  0.00    +0.000 A 
ATOM     12  C   UNL     1      44.957   2.759   9.721  0.00  0.00    +0.000 A 
ATOM     13  C   UNL     1      45.509   1.879   8.793  0.00  0.00    +0.000 A 
ATOM     14  C   UNL     1      46.169   2.386   7.679  0.00  0.00    +0.000 A 
ATOM     15  C   UNL     1      46.255   3.756   7.537  0.00  0.00    +0.000 A 
ATOM     16  N   UNL     1      45.738   4.635   8.423  0.00  0.00    +0.000 NA
ENDBRANCH  10  11
BRANCH  10  17
ATOM     17  C   UNL     1      43.110   4.560  11.010  0.00  0.00    +0.000 C 
BRANCH  17  19
ATOM     18  C   UNL     1      43.447   3.561  13.107  0.00  0.00    +0.000 C 
ATOM     19  O   UNL     1      43.009   4.738  12.432  0.00  0.00    +0.000 OA
ENDBRANCH  17  19
ENDBRANCH  10  17
ENDBRANCH   8  10
ENDBRANCH   7   8
ENDBRANCH   1   7
BRANCH   4  20
ATOM     20  C   UNL     1      50.550   8.478  14.330  0.00  0.00    +0.000 C 
BRANCH  20  21
ATOM     21  N   UNL     1      50.377   8.276  15.746  0.00  0.00    +0.000 N 
ATOM     22  C   UNL     1      51.132   7.363  16.437  0.00  0.00    +0.000 C 
ATOM     23  O   UNL     1      52.037   6.730  15.902  0.00  0.00    +0.000 OA
ATOM     24  H   UNL     1      49.556   8.679  16.178  0.00  0.00    +0.000 HD
BRANCH  22  25
ATOM     25  C   UNL     1      50.842   7.233  17.868  0.00  0.00    +0.000 A 
ATOM     26  C   UNL     1      51.397   8.142  18.758  0.00  0.00    +0.000 A 
ATOM     27  S   UNL     1      50.906   7.900  20.369  0.00  0.00    +0.000 S 
ATOM     28  C   UNL     1      49.983   6.539  19.935  0.00  0.00    +0.000 A 
ATOM     29  N   UNL     1      49.310   5.861  20.882  0.00  0.00    +0.000 NA
ATOM     30  C   UNL     1      48.653   4.810  20.392  0.00  0.00    +0.000 A 
ATOM     31  N   UNL     1      48.620   4.396  19.119  0.00  0.00    +0.000 NA
ATOM     32  C   UNL     1      49.311   5.106  18.206  0.00  0.00    +0.000 A 
ATOM     33  C   UNL     1      50.031   6.254  18.578  0.00  0.00    +0.000 A 
BRANCH  32  34
ATOM     34  O   UNL     1      49.308   4.691  16.890  0.00  0.00    +0.000 OA
ATOM     35  C   UNL     1      48.043   4.820  16.246  0.00  0.00    +0.000 C 
ENDBRANCH  32  34
ENDBRANCH  22  25
ENDBRANCH  20  21
ENDBRANCH   4  20
TORSDOF 10
ENDMDL
