MODEL 1
REMARK VINA RESULT:    -7.186      0.000      0.000
REMARK INTER + INTRA:         -10.421
REMARK INTER:                 -10.127
REMARK INTRA:                  -0.294
REMARK UNBOUND:                -0.294
REMARK  Name = 
REMARK  8 active torsions:
REMARK  status: ('A' for Active; 'I' for Inactive)
REMARK    1  A    between atoms: N_1  and  C_2
REMARK    2  A    between atoms: C_2  and  C_3
REMARK    3  A    between atoms: C_2  and  C_19
REMARK    4  A    between atoms: C_3  and  C_4
REMARK    5  A    between atoms: C_7  and  C_8
REMARK    6  A    between atoms: C_8  and  O_9
REMARK    7  A    between atoms: C_8  and  C_10
REMARK    8  A    between atoms: C_10  and  N_11
REMARK                            x       y       z     vdW  Elec       q    Type
REMARK                         _______ _______ _______ _____ _____    ______ ____
ROOT
ATOM      1  C   UNL     1      47.720   3.581  15.215  0.00  0.00    +0.000 C 
ENDROOT
BRANCH   1   2
ATOM      2  C   UNL     1      46.944   4.037  14.008  0.00  0.00    +0.000 A 
ATOM      3  C   UNL     1      46.052   3.179  13.361  0.00  0.00    +0.000 A 
ATOM      4  C   UNL     1      45.401   3.598  12.204  0.00  0.00    +0.000 A 
ATOM      5  C   UNL     1      45.665   4.871  11.709  0.00  0.00    +0.000 A 
ATOM      6  N   UNL     1      46.496   5.738  12.345  0.00  0.00    +0.000 NA
ATOM      7  C   UNL     1      47.118   5.303  13.463  0.00  0.00    +0.000 A 
BRANCH   5   8
ATOM      8  C   UNL     1      44.993   5.335  10.427  0.00  0.00    +0.000 C 
BRANCH   8   9
ATOM      9  O   UNL     1      44.789   6.749  10.489  0.00  0.00    +0.000 OA
ATOM     10  H   UNL     1      45.378   7.127   9.811  0.00  0.00    +0.000 HD
ENDBRANCH   8   9
BRANCH   8  11
ATOM     11  C   UNL     1      45.844   4.940   9.186  0.00  0.00    +0.000 C 
BRANCH  11  12
ATOM     12  N   UNL     1      45.145   4.205   8.103  0.00  0.00    +0.000 NA
ATOM     13  C   UNL     1      44.406   3.018   8.578  0.00  0.00    +0.000 C 
ATOM     14  C   UNL     1      45.321   1.875   9.046  0.00  0.00    +0.000 C 
ATOM     15  O   UNL     1      46.221   1.471   8.006  0.00  0.00    +0.000 OA
ATOM     16  C   UNL     1      47.004   2.578   7.541  0.00  0.00    +0.000 C 
ATOM     17  C   UNL     1      46.116   3.749   7.078  0.00  0.00    +0.000 C 
ENDBRANCH  11  12
ENDBRANCH   8  11
ENDBRANCH   5   8
ENDBRANCH   1   2
BRANCH   1  18
ATOM     18  C   UNL     1      47.199   4.094  16.576  0.00  0.00    +0.000 C 
BRANCH  18  19
ATOM     19  C   UNL     1      48.312   4.756  17.365  0.00  0.00    +0.000 A 
ATOM     20  C   UNL     1      48.277   6.031  17.912  0.00  0.00    +0.000 A 
ATOM     21  S   UNL     1      49.725   6.469  18.706  0.00  0.00    +0.000 S 
ATOM     22  C   UNL     1      50.432   4.955  18.382  0.00  0.00    +0.000 A 
ATOM     23  N   UNL     1      51.695   4.661  18.789  0.00  0.00    +0.000 NA
ATOM     24  C   UNL     1      52.085   3.469  18.485  0.00  0.00    +0.000 A 
ATOM     25  N   UNL     1      51.326   2.538  17.818  0.00  0.00    +0.000 N 
ATOM     26  C   UNL     1      50.033   2.777  17.415  0.00  0.00    +0.000 A 
ATOM     27  O   UNL     1      49.346   1.906  16.889  0.00  0.00    +0.000 OA
ATOM     28  C   UNL     1      49.567   4.124  17.696  0.00  0.00    +0.000 A 
ATOM     29  H   UNL     1      51.684   1.611  17.639  0.00  0.00    +0.000 HD
ENDBRANCH  18  19
BRANCH  18  30
ATOM     30  N   UNL     1      46.614   3.025  17.392  0.00  0.00    +0.000 NA
ATOM     31  H   UNL     1      45.747   3.354  17.813  0.00  0.00    +0.000 HD
ATOM     32  H   UNL     1      47.243   2.769  18.148  0.00  0.00    +0.000 HD
ENDBRANCH  18  30
ENDBRANCH   1  18
TORSDOF 8
ENDMDL
MODEL 2
REMARK VINA RESULT:    -7.008      3.035      4.070
REMARK INTER + INTRA:         -10.170
REMARK INTER:                  -9.049
REMARK INTRA:                  -1.120
REMARK UNBOUND:                -0.294
REMARK  Name = 
REMARK  8 active torsions:
REMARK  status: ('A' for Active; 'I' for Inactive)
REMARK    1  A    between atoms: N_1  and  C_2
REMARK    2  A    between atoms: C_2  and  C_3
REMARK    3  A    between atoms: C_2  and  C_19
REMARK    4  A    between atoms: C_3  and  C_4
REMARK    5  A    between atoms: C_7  and  C_8
REMARK    6  A    between atoms: C_8  and  O_9
REMARK    7  A    between atoms: C_8  and  C_10
REMARK    8  A    between atoms: C_10  and  N_11
REMARK                            x       y       z     vdW  Elec       q    Type
REMARK                         _______ _______ _______ _____ _____    ______ ____
ROOT
ATOM      1  C   UNL     1      49.817   8.331  14.042  0.00  0.00    +0.000 C 
ENDROOT
BRANCH   1   2
ATOM      2  C   UNL     1      48.480   7.960  13.458  0.00  0.00    +0.000 A 
ATOM      3  C   UNL     1      48.360   6.900  12.556  0.00  0.00    +0.000 A 
ATOM      4  C   UNL     1      47.127   6.621  11.973  0.00  0.00    +0.000 A 
ATOM      5  C   UNL     1      46.035   7.419  12.298  0.00  0.00    +0.000 A 
ATOM      6  N   UNL     1      46.119   8.428  13.204  0.00  0.00    +0.000 NA
ATOM      7  C   UNL     1      47.329   8.680  13.752  0.00  0.00    +0.000 A 
BRANCH   5   8
ATOM      8  C   UNL     1      44.688   7.156  11.645  0.00  0.00    +0.000 C 
BRANCH   8   9
ATOM      9  O   UNL     1      44.320   8.289  10.855  0.00  0.00    +0.000 OA
ATOM     10  H   UNL     1      45.157   8.650  10.511  0.00  0.00    +0.000 HD
ENDBRANCH   8   9
BRANCH   8  11
ATOM     11  C   UNL     1      44.737   5.859  10.786  0.00  0.00    +0.000 C 
BRANCH  11  12
ATOM     12  N   UNL     1      43.494   5.053  10.721  0.00  0.00    +0.000 NA
ATOM     13  C   UNL     1      42.673   5.136  11.946  0.00  0.00    +0.000 C 
ATOM     14  C   UNL     1      43.310   4.437  13.158  0.00  0.00    +0.000 C 
ATOM     15  O   UNL     1      43.580   3.058  12.879  0.00  0.00    +0.000 OA
ATOM     16  C   UNL     1      44.419   2.919  11.724  0.00  0.00    +0.000 C 
ATOM     17  C   UNL     1      43.817   3.623  10.493  0.00  0.00    +0.000 C 
ENDBRANCH  11  12
ENDBRANCH   8  11
ENDBRANCH   5   8
ENDBRANCH   1   2
BRANCH   1  18
ATOM     18  C   UNL     1      50.390   7.342  15.080  0.00  0.00    +0.000 C 
BRANCH  18  19
ATOM     19  C   UNL     1      49.810   7.606  16.457  0.00  0.00    +0.000 A 
ATOM     20  C   UNL     1      50.104   8.690  17.270  0.00  0.00    +0.000 A 
ATOM     21  S   UNL     1      49.296   8.648  18.775  0.00  0.00    +0.000 S 
ATOM     22  C   UNL     1      48.495   7.200  18.373  0.00  0.00    +0.000 A 
ATOM     23  N   UNL     1      47.637   6.600  19.240  0.00  0.00    +0.000 NA
ATOM     24  C   UNL     1      47.096   5.521  18.786  0.00  0.00    +0.000 A 
ATOM     25  N   UNL     1      47.325   4.988  17.540  0.00  0.00    +0.000 N 
ATOM     26  C   UNL     1      48.158   5.575  16.617  0.00  0.00    +0.000 A 
ATOM     27  O   UNL     1      48.290   5.125  15.483  0.00  0.00    +0.000 OA
ATOM     28  C   UNL     1      48.826   6.770  17.103  0.00  0.00    +0.000 A 
ATOM     29  H   UNL     1      46.842   4.154  17.238  0.00  0.00    +0.000 HD
ENDBRANCH  18  19
BRANCH  18  30
ATOM     30  N   UNL     1      51.853   7.402  15.165  0.00  0.00    +0.000 NA
ATOM     31  H   UNL     1      52.127   7.724  16.092  0.00  0.00    +0.000 HD
ATOM     32  H   UNL     1      52.222   8.065  14.490  0.00  0.00    +0.000 HD
ENDBRANCH  18  30
ENDBRANCH   1  18
TORSDOF 8
ENDMDL
MODEL 3
REMARK VINA RESULT:    -6.931      2.009      2.695
REMARK INTER + INTRA:         -10.061
REMARK INTER:                  -9.386
REMARK INTRA:                  -0.676
REMARK UNBOUND:                -0.294
REMARK  Name = 
REMARK  8 active torsions:
REMARK  status: ('A' for Active; 'I' for Inactive)
REMARK    1  A    between atoms: N_1  and  C_2
REMARK    2  A    between atoms: C_2  and  C_3
REMARK    3  A    between atoms: C_2  and  C_19
REMARK    4  A    between atoms: C_3  and  C_4
REMARK    5  A    between atoms: C_7  and  C_8
REMARK    6  A    between atoms: C_8  and  O_9
REMARK    7  A    between atoms: C_8  and  C_10
REMARK    8  A    between atoms: C_10  and  N_11
REMARK                            x       y       z     vdW  Elec       q    Type
REMARK                         _______ _______ _______ _____ _____    ______ ____
ROOT
ATOM      1  C   UNL     1      48.332   7.322  14.434  0.00  0.00    +0.000 C 
ENDROOT
BRANCH   1   2
ATOM      2  C   UNL     1      47.364   6.407  13.732  0.00  0.00    +0.000 A 
ATOM      3  C   UNL     1      46.710   6.811  12.566  0.00  0.00    +0.000 A 
ATOM      4  C   UNL     1      45.765   5.976  11.976  0.00  0.00    +0.000 A 
ATOM      5  C   UNL     1      45.485   4.751  12.573  0.00  0.00    +0.000 A 
ATOM      6  N   UNL     1      46.140   4.319  13.682  0.00  0.00    +0.000 NA
ATOM      7  C   UNL     1      47.049   5.152  14.237  0.00  0.00    +0.000 A 
BRANCH   5   8
ATOM      8  C   UNL     1      44.430   3.841  11.965  0.00  0.00    +0.000 C 
BRANCH   8   9
ATOM      9  O   UNL     1      43.362   4.640  11.450  0.00  0.00    +0.000 OA
ATOM     10  H   UNL     1      42.681   4.646  12.147  0.00  0.00    +0.000 HD
ENDBRANCH   8   9
BRANCH   8  11
ATOM     11  C   UNL     1      45.050   2.943  10.857  0.00  0.00    +0.000 C 
BRANCH  11  12
ATOM     12  N   UNL     1      44.299   2.839   9.583  0.00  0.00    +0.000 NA
ATOM     13  C   UNL     1      44.595   1.608   8.822  0.00  0.00    +0.000 C 
ATOM     14  C   UNL     1      46.013   1.583   8.228  0.00  0.00    +0.000 C 
ATOM     15  O   UNL     1      46.240   2.714   7.378  0.00  0.00    +0.000 OA
ATOM     16  C   UNL     1      46.015   3.943   8.082  0.00  0.00    +0.000 C 
ATOM     17  C   UNL     1      44.607   3.994   8.705  0.00  0.00    +0.000 C 
ENDBRANCH  11  12
ENDBRANCH   8  11
ENDBRANCH   5   8
ENDBRANCH   1   2
BRANCH   1  18
ATOM     18  C   UNL     1      49.339   6.630  15.379  0.00  0.00    +0.000 C 
BRANCH  18  19
ATOM     19  C   UNL     1      48.994   6.903  16.831  0.00  0.00    +0.000 A 
ATOM     20  C   UNL     1      48.677   8.139  17.375  0.00  0.00    +0.000 A 
ATOM     21  S   UNL     1      48.379   8.084  19.057  0.00  0.00    +0.000 S 
ATOM     22  C   UNL     1      48.622   6.400  19.105  0.00  0.00    +0.000 A 
ATOM     23  N   UNL     1      48.522   5.703  20.268  0.00  0.00    +0.000 NA
ATOM     24  C   UNL     1      48.716   4.434  20.143  0.00  0.00    +0.000 A 
ATOM     25  N   UNL     1      48.994   3.792  18.959  0.00  0.00    +0.000 N 
ATOM     26  C   UNL     1      49.074   4.449  17.753  0.00  0.00    +0.000 A 
ATOM     27  O   UNL     1      49.247   3.848  16.698  0.00  0.00    +0.000 OA
ATOM     28  C   UNL     1      48.907   5.889  17.854  0.00  0.00    +0.000 A 
ATOM     29  H   UNL     1      49.105   2.789  18.929  0.00  0.00    +0.000 HD
ENDBRANCH  18  19
BRANCH  18  30
ATOM     30  N   UNL     1      50.722   7.056  15.135  0.00  0.00    +0.000 NA
ATOM     31  H   UNL     1      51.341   6.248  15.190  0.00  0.00    +0.000 HD
ATOM     32  H   UNL     1      51.021   7.718  15.845  0.00  0.00    +0.000 HD
ENDBRANCH  18  30
ENDBRANCH   1  18
TORSDOF 8
ENDMDL
MODEL 4
REMARK VINA RESULT:    -6.801      2.741      8.796
REMARK INTER + INTRA:          -9.879
REMARK INTER:                  -9.336
REMARK INTRA:                  -0.542
REMARK UNBOUND:                -0.294
REMARK  Name = 
REMARK  8 active torsions:
REMARK  status: ('A' for Active; 'I' for Inactive)
REMARK    1  A    between atoms: N_1  and  C_2
REMARK    2  A    between atoms: C_2  and  C_3
REMARK    3  A    between atoms: C_2  and  C_19
REMARK    4  A    between atoms: C_3  and  C_4
REMARK    5  A    between atoms: C_7  and  C_8
REMARK    6  A    between atoms: C_8  and  O_9
REMARK    7  A    between atoms: C_8  and  C_10
REMARK    8  A    between atoms: C_10  and  N_11
REMARK                            x       y       z     vdW  Elec       q    Type
REMARK                         _______ _______ _______ _____ _____    ______ ____
ROOT
ATOM      1  C   UNL     1      46.689   6.561  11.887  0.00  0.00    +0.000 C 
ENDROOT
BRANCH   1   2
ATOM      2  C   UNL     1      47.357   6.624  13.234  0.00  0.00    +0.000 A 
ATOM      3  C   UNL     1      47.923   7.814  13.700  0.00  0.00    +0.000 A 
ATOM      4  C   UNL     1      48.600   7.830  14.916  0.00  0.00    +0.000 A 
ATOM      5  C   UNL     1      48.706   6.648  15.641  0.00  0.00    +0.000 A 
ATOM      6  N   UNL     1      48.128   5.490  15.229  0.00  0.00    +0.000 NA
ATOM      7  C   UNL     1      47.481   5.501  14.042  0.00  0.00    +0.000 A 
BRANCH   5   8
ATOM      8  C   UNL     1      49.473   6.636  16.954  0.00  0.00    +0.000 C 
BRANCH   8   9
ATOM      9  O   UNL     1      48.545   6.696  18.040  0.00  0.00    +0.000 OA
ATOM     10  H   UNL     1      48.925   6.133  18.739  0.00  0.00    +0.000 HD
ENDBRANCH   8   9
BRANCH   8  11
ATOM     11  C   UNL     1      50.377   5.374  17.052  0.00  0.00    +0.000 C 
BRANCH  11  12
ATOM     12  N   UNL     1      50.206   4.521  18.253  0.00  0.00    +0.000 NA
ATOM     13  C   UNL     1      51.477   3.990  18.785  0.00  0.00    +0.000 C 
ATOM     14  C   UNL     1      52.128   2.936  17.875  0.00  0.00    +0.000 C 
ATOM     15  O   UNL     1      51.238   1.839  17.631  0.00  0.00    +0.000 OA
ATOM     16  C   UNL     1      50.002   2.293  17.064  0.00  0.00    +0.000 C 
ATOM     17  C   UNL     1      49.330   3.364  17.945  0.00  0.00    +0.000 C 
ENDBRANCH  11  12
ENDBRANCH   8  11
ENDBRANCH   5   8
ENDBRANCH   1   2
BRANCH   1  18
ATOM     18  C   UNL     1      45.145   6.528  11.909  0.00  0.00    +0.000 C 
BRANCH  18  19
ATOM     19  C   UNL     1      44.631   5.117  11.689  0.00  0.00    +0.000 A 
ATOM     20  C   UNL     1      43.856   4.384  12.576  0.00  0.00    +0.000 A 
ATOM     21  S   UNL     1      43.490   2.811  12.018  0.00  0.00    +0.000 S 
ATOM     22  C   UNL     1      44.320   3.073  10.554  0.00  0.00    +0.000 A 
ATOM     23  N   UNL     1      44.401   2.105   9.604  0.00  0.00    +0.000 NA
ATOM     24  C   UNL     1      45.047   2.456   8.544  0.00  0.00    +0.000 A 
ATOM     25  N   UNL     1      45.614   3.693   8.340  0.00  0.00    +0.000 N 
ATOM     26  C   UNL     1      45.529   4.714   9.258  0.00  0.00    +0.000 A 
ATOM     27  O   UNL     1      45.975   5.833   9.025  0.00  0.00    +0.000 OA
ATOM     28  C   UNL     1      44.849   4.347  10.488  0.00  0.00    +0.000 A 
ATOM     29  H   UNL     1      46.079   3.911   7.472  0.00  0.00    +0.000 HD
ENDBRANCH  18  19
BRANCH  18  30
ATOM     30  N   UNL     1      44.549   7.409  10.899  0.00  0.00    +0.000 NA
ATOM     31  H   UNL     1      45.289   7.857  10.360  0.00  0.00    +0.000 HD
ATOM     32  H   UNL     1      44.007   8.144  11.343  0.00  0.00    +0.000 HD
ENDBRANCH  18  30
ENDBRANCH   1  18
TORSDOF 8
ENDMDL
MODEL 5
REMARK VINA RESULT:    -6.737      3.433      8.744
REMARK INTER + INTRA:          -9.787
REMARK INTER:                  -8.821
REMARK INTRA:                  -0.966
REMARK UNBOUND:                -0.294
REMARK  Name = 
REMARK  8 active torsions:
REMARK  status: ('A' for Active; 'I' for Inactive)
REMARK    1  A    between atoms: N_1  and  C_2
REMARK    2  A    between atoms: C_2  and  C_3
REMARK    3  A    between atoms: C_2  and  C_19
REMARK    4  A    between atoms: C_3  and  C_4
REMARK    5  A    between atoms: C_7  and  C_8
REMARK    6  A    between atoms: C_8  and  O_9
REMARK    7  A    between atoms: C_8  and  C_10
REMARK    8  A    between atoms: C_10  and  N_11
REMARK                            x       y       z     vdW  Elec       q    Type
REMARK                         _______ _______ _______ _____ _____    ______ ____
ROOT
ATOM      1  C   UNL     1      47.523   6.984  11.566  0.00  0.00    +0.000 C 
ENDROOT
BRANCH   1   2
ATOM      2  C   UNL     1      48.345   7.060  12.825  0.00  0.00    +0.000 A 
ATOM      3  C   UNL     1      49.469   7.886  12.901  0.00  0.00    +0.000 A 
ATOM      4  C   UNL     1      50.255   7.884  14.050  0.00  0.00    +0.000 A 
ATOM      5  C   UNL     1      49.905   7.044  15.101  0.00  0.00    +0.000 A 
ATOM      6  N   UNL     1      48.794   6.264  15.067  0.00  0.00    +0.000 NA
ATOM      7  C   UNL     1      48.051   6.282  13.938  0.00  0.00    +0.000 A 
BRANCH   5   8
ATOM      8  C   UNL     1      50.772   6.999  16.350  0.00  0.00    +0.000 C 
BRANCH   8   9
ATOM      9  O   UNL     1      51.263   8.313  16.627  0.00  0.00    +0.000 OA
ATOM     10  H   UNL     1      50.975   8.863  15.877  0.00  0.00    +0.000 HD
ENDBRANCH   8   9
BRANCH   8  11
ATOM     11  C   UNL     1      49.971   6.429  17.555  0.00  0.00    +0.000 C 
BRANCH  11  12
ATOM     12  N   UNL     1      50.601   5.320  18.312  0.00  0.00    +0.000 NA
ATOM     13  C   UNL     1      50.611   4.037  17.579  0.00  0.00    +0.000 C 
ATOM     14  C   UNL     1      49.215   3.413  17.423  0.00  0.00    +0.000 C 
ATOM     15  O   UNL     1      48.590   3.210  18.696  0.00  0.00    +0.000 OA
ATOM     16  C   UNL     1      48.508   4.438  19.433  0.00  0.00    +0.000 C 
ATOM     17  C   UNL     1      49.890   5.099  19.595  0.00  0.00    +0.000 C 
ENDBRANCH  11  12
ENDBRANCH   8  11
ENDBRANCH   5   8
ENDBRANCH   1   2
BRANCH   1  18
ATOM     18  C   UNL     1      46.011   6.747  11.770  0.00  0.00    +0.000 C 
BRANCH  18  19
ATOM     19  C   UNL     1      45.518   5.615  10.889  0.00  0.00    +0.000 A 
ATOM     20  C   UNL     1      45.694   5.514   9.517  0.00  0.00    +0.000 A 
ATOM     21  S   UNL     1      44.972   4.121   8.840  0.00  0.00    +0.000 S 
ATOM     22  C   UNL     1      44.436   3.585  10.365  0.00  0.00    +0.000 A 
ATOM     23  N   UNL     1      43.730   2.432  10.502  0.00  0.00    +0.000 NA
ATOM     24  C   UNL     1      43.408   2.149  11.719  0.00  0.00    +0.000 A 
ATOM     25  N   UNL     1      43.736   2.910  12.817  0.00  0.00    +0.000 N 
ATOM     26  C   UNL     1      44.476   4.067  12.732  0.00  0.00    +0.000 A 
ATOM     27  O   UNL     1      44.822   4.689  13.731  0.00  0.00    +0.000 OA
ATOM     28  C   UNL     1      44.820   4.447  11.373  0.00  0.00    +0.000 A 
ATOM     29  H   UNL     1      43.478   2.613  13.747  0.00  0.00    +0.000 HD
ENDBRANCH  18  19
BRANCH  18  30
ATOM     30  N   UNL     1      45.211   7.944  11.491  0.00  0.00    +0.000 NA
ATOM     31  H   UNL     1      44.370   7.680  10.979  0.00  0.00    +0.000 HD
ATOM     32  H   UNL     1      45.732   8.592  10.907  0.00  0.00    +0.000 HD
ENDBRANCH  18  30
ENDBRANCH   1  18
TORSDOF 8
ENDMDL
MODEL 6
REMARK VINA RESULT:    -6.724      3.102      9.298
REMARK INTER + INTRA:          -9.770
REMARK INTER:                  -9.572
REMARK INTRA:                  -0.198
REMARK UNBOUND:                -0.294
REMARK  Name = 
REMARK  8 active torsions:
REMARK  status: ('A' for Active; 'I' for Inactive)
REMARK    1  A    between atoms: N_1  and  C_2
REMARK    2  A    between atoms: C_2  and  C_3
REMARK    3  A    between atoms: C_2  and  C_19
REMARK    4  A    between atoms: C_3  and  C_4
REMARK    5  A    between atoms: C_7  and  C_8
REMARK    6  A    between atoms: C_8  and  O_9
REMARK    7  A    between atoms: C_8  and  C_10
REMARK    8  A    between atoms: C_10  and  N_11
REMARK                            x       y       z     vdW  Elec       q    Type
REMARK                         _______ _______ _______ _____ _____    ______ ____
ROOT
ATOM      1  C   UNL     1      46.589   6.388  12.110  0.00  0.00    +0.000 C 
ENDROOT
BRANCH   1   2
ATOM      2  C   UNL     1      47.164   5.893  13.410  0.00  0.00    +0.000 A 
ATOM      3  C   UNL     1      46.643   4.760  14.041  0.00  0.00    +0.000 A 
ATOM      4  C   UNL     1      47.143   4.364  15.278  0.00  0.00    +0.000 A 
ATOM      5  C   UNL     1      48.151   5.119  15.868  0.00  0.00    +0.000 A 
ATOM      6  N   UNL     1      48.702   6.198  15.254  0.00  0.00    +0.000 NA
ATOM      7  C   UNL     1      48.195   6.564  14.056  0.00  0.00    +0.000 A 
BRANCH   5   8
ATOM      8  C   UNL     1      48.685   4.724  17.236  0.00  0.00    +0.000 C 
BRANCH   8   9
ATOM      9  O   UNL     1      49.904   3.995  17.072  0.00  0.00    +0.000 OA
ATOM     10  H   UNL     1      50.609   4.593  17.379  0.00  0.00    +0.000 HD
ENDBRANCH   8   9
BRANCH   8  11
ATOM     11  C   UNL     1      48.894   5.981  18.128  0.00  0.00    +0.000 C 
BRANCH  11  12
ATOM     12  N   UNL     1      47.674   6.614  18.687  0.00  0.00    +0.000 NA
ATOM     13  C   UNL     1      47.723   8.090  18.686  0.00  0.00    +0.000 C 
ATOM     14  C   UNL     1      48.734   8.669  19.689  0.00  0.00    +0.000 C 
ATOM     15  O   UNL     1      48.460   8.219  21.022  0.00  0.00    +0.000 OA
ATOM     16  C   UNL     1      48.451   6.787  21.092  0.00  0.00    +0.000 C 
ATOM     17  C   UNL     1      47.458   6.173  20.087  0.00  0.00    +0.000 C 
ENDBRANCH  11  12
ENDBRANCH   8  11
ENDBRANCH   5   8
ENDBRANCH   1   2
BRANCH   1  18
ATOM     18  C   UNL     1      45.048   6.370  12.012  0.00  0.00    +0.000 C 
BRANCH  18  19
ATOM     19  C   UNL     1      44.545   4.983  11.657  0.00  0.00    +0.000 A 
ATOM     20  C   UNL     1      43.712   4.194  12.437  0.00  0.00    +0.000 A 
ATOM     21  S   UNL     1      43.378   2.668  11.743  0.00  0.00    +0.000 S 
ATOM     22  C   UNL     1      44.302   3.029  10.359  0.00  0.00    +0.000 A 
ATOM     23  N   UNL     1      44.442   2.131   9.348  0.00  0.00    +0.000 NA
ATOM     24  C   UNL     1      45.156   2.554   8.360  0.00  0.00    +0.000 A 
ATOM     25  N   UNL     1      45.738   3.797   8.284  0.00  0.00    +0.000 N 
ATOM     26  C   UNL     1      45.598   4.750   9.267  0.00  0.00    +0.000 A 
ATOM     27  O   UNL     1      46.061   5.880   9.145  0.00  0.00    +0.000 OA
ATOM     28  C   UNL     1      44.838   4.300  10.420  0.00  0.00    +0.000 A 
ATOM     29  H   UNL     1      46.260   4.074   7.466  0.00  0.00    +0.000 HD
ENDBRANCH  18  19
BRANCH  18  30
ATOM     30  N   UNL     1      44.536   7.324  11.023  0.00  0.00    +0.000 NA
ATOM     31  H   UNL     1      45.173   8.117  10.953  0.00  0.00    +0.000 HD
ATOM     32  H   UNL     1      43.630   7.684  11.310  0.00  0.00    +0.000 HD
ENDBRANCH  18  30
ENDBRANCH   1  18
TORSDOF 8
ENDMDL
MODEL 7
REMARK VINA RESULT:    -6.637      2.702      8.975
REMARK INTER + INTRA:          -9.647
REMARK INTER:                  -9.221
REMARK INTRA:                  -0.425
REMARK UNBOUND:                -0.294
REMARK  Name = 
REMARK  8 active torsions:
REMARK  status: ('A' for Active; 'I' for Inactive)
REMARK    1  A    between atoms: N_1  and  C_2
REMARK    2  A    between atoms: C_2  and  C_3
REMARK    3  A    between atoms: C_2  and  C_19
REMARK    4  A    between atoms: C_3  and  C_4
REMARK    5  A    between atoms: C_7  and  C_8
REMARK    6  A    between atoms: C_8  and  O_9
REMARK    7  A    between atoms: C_8  and  C_10
REMARK    8  A    between atoms: C_10  and  N_11
REMARK                            x       y       z     vdW  Elec       q    Type
REMARK                         _______ _______ _______ _____ _____    ______ ____
ROOT
ATOM      1  C   UNL     1      46.853   5.588  13.358  0.00  0.00    +0.000 C 
ENDROOT
BRANCH   1   2
ATOM      2  C   UNL     1      47.411   5.211  14.704  0.00  0.00    +0.000 A 
ATOM      3  C   UNL     1      47.137   3.964  15.271  0.00  0.00    +0.000 A 
ATOM      4  C   UNL     1      47.603   3.665  16.548  0.00  0.00    +0.000 A 
ATOM      5  C   UNL     1      48.329   4.629  17.240  0.00  0.00    +0.000 A 
ATOM      6  N   UNL     1      48.644   5.831  16.693  0.00  0.00    +0.000 NA
ATOM      7  C   UNL     1      48.175   6.097  15.453  0.00  0.00    +0.000 A 
BRANCH   5   8
ATOM      8  C   UNL     1      48.815   4.337  18.651  0.00  0.00    +0.000 C 
BRANCH   8   9
ATOM      9  O   UNL     1      48.279   3.083  19.082  0.00  0.00    +0.000 OA
ATOM     10  H   UNL     1      47.529   2.902  18.487  0.00  0.00    +0.000 HD
ENDBRANCH   8   9
BRANCH   8  11
ATOM     11  C   UNL     1      50.370   4.337  18.708  0.00  0.00    +0.000 C 
BRANCH  11  12
ATOM     12  N   UNL     1      51.085   4.050  17.441  0.00  0.00    +0.000 NA
ATOM     13  C   UNL     1      51.647   2.685  17.377  0.00  0.00    +0.000 C 
ATOM     14  C   UNL     1      52.829   2.466  18.335  0.00  0.00    +0.000 C 
ATOM     15  O   UNL     1      53.880   3.408  18.089  0.00  0.00    +0.000 OA
ATOM     16  C   UNL     1      53.400   4.755  18.189  0.00  0.00    +0.000 C 
ATOM     17  C   UNL     1      52.204   5.006  17.251  0.00  0.00    +0.000 C 
ENDBRANCH  11  12
ENDBRANCH   8  11
ENDBRANCH   5   8
ENDBRANCH   1   2
BRANCH   1  18
ATOM     18  C   UNL     1      45.318   5.745  13.292  0.00  0.00    +0.000 C 
BRANCH  18  19
ATOM     19  C   UNL     1      44.701   4.667  12.420  0.00  0.00    +0.000 A 
ATOM     20  C   UNL     1      43.832   3.674  12.845  0.00  0.00    +0.000 A 
ATOM     21  S   UNL     1      43.364   2.603  11.598  0.00  0.00    +0.000 S 
ATOM     22  C   UNL     1      44.275   3.457  10.441  0.00  0.00    +0.000 A 
ATOM     23  N   UNL     1      44.320   3.060   9.141  0.00  0.00    +0.000 NA
ATOM     24  C   UNL     1      45.038   3.816   8.382  0.00  0.00    +0.000 A 
ATOM     25  N   UNL     1      45.711   4.940   8.798  0.00  0.00    +0.000 N 
ATOM     26  C   UNL     1      45.670   5.399  10.095  0.00  0.00    +0.000 A 
ATOM     27  O   UNL     1      46.215   6.446  10.430  0.00  0.00    +0.000 OA
ATOM     28  C   UNL     1      44.909   4.551  10.996  0.00  0.00    +0.000 A 
ATOM     29  H   UNL     1      46.231   5.505   8.143  0.00  0.00    +0.000 HD
ENDBRANCH  18  19
BRANCH  18  30
ATOM     30  N   UNL     1      44.908   7.057  12.780  0.00  0.00    +0.000 NA
ATOM     31  H   UNL     1      44.844   7.021  11.763  0.00  0.00    +0.000 HD
ATOM     32  H   UNL     1      45.599   7.763  13.017  0.00  0.00    +0.000 HD
ENDBRANCH  18  30
ENDBRANCH   1  18
TORSDOF 8
ENDMDL
MODEL 8
REMARK VINA RESULT:    -6.457      2.931      4.561
REMARK INTER + INTRA:          -9.394
REMARK INTER:                  -8.451
REMARK INTRA:                  -0.942
REMARK UNBOUND:                -0.294
REMARK  Name = 
REMARK  8 active torsions:
REMARK  status: ('A' for Active; 'I' for Inactive)
REMARK    1  A    between atoms: N_1  and  C_2
REMARK    2  A    between atoms: C_2  and  C_3
REMARK    3  A    between atoms: C_2  and  C_19
REMARK    4  A    between atoms: C_3  and  C_4
REMARK    5  A    between atoms: C_7  and  C_8
REMARK    6  A    between atoms: C_8  and  O_9
REMARK    7  A    between atoms: C_8  and  C_10
REMARK    8  A    between atoms: C_10  and  N_11
REMARK                            x       y       z     vdW  Elec       q    Type
REMARK                         _______ _______ _______ _____ _____    ______ ____
ROOT
ATOM      1  C   UNL     1      49.276   3.795  18.348  0.00  0.00    +0.000 C 
ENDROOT
BRANCH   1   2
ATOM      2  C   UNL     1      48.598   4.178  17.059  0.00  0.00    +0.000 A 
ATOM      3  C   UNL     1      48.647   5.491  16.584  0.00  0.00    +0.000 A 
ATOM      4  C   UNL     1      47.952   5.836  15.428  0.00  0.00    +0.000 A 
ATOM      5  C   UNL     1      47.209   4.859  14.774  0.00  0.00    +0.000 A 
ATOM      6  N   UNL     1      47.182   3.567  15.193  0.00  0.00    +0.000 NA
ATOM      7  C   UNL     1      47.862   3.260  16.321  0.00  0.00    +0.000 A 
BRANCH   5   8
ATOM      8  C   UNL     1      46.413   5.224  13.532  0.00  0.00    +0.000 C 
BRANCH   8   9
ATOM      9  O   UNL     1      47.267   5.904  12.609  0.00  0.00    +0.000 OA
ATOM     10  H   UNL     1      47.612   6.677  13.094  0.00  0.00    +0.000 HD
ENDBRANCH   8   9
BRANCH   8  11
ATOM     11  C   UNL     1      45.783   3.955  12.889  0.00  0.00    +0.000 C 
BRANCH  11  12
ATOM     12  N   UNL     1      44.310   3.814  12.993  0.00  0.00    +0.000 NA
ATOM     13  C   UNL     1      43.726   2.944  11.953  0.00  0.00    +0.000 C 
ATOM     14  C   UNL     1      43.775   3.557  10.545  0.00  0.00    +0.000 C 
ATOM     15  O   UNL     1      43.111   4.827  10.507  0.00  0.00    +0.000 OA
ATOM     16  C   UNL     1      43.674   5.732  11.466  0.00  0.00    +0.000 C 
ATOM     17  C   UNL     1      43.655   5.141  12.889  0.00  0.00    +0.000 C 
ENDBRANCH  11  12
ENDBRANCH   8  11
ENDBRANCH   5   8
ENDBRANCH   1   2
BRANCH   1  18
ATOM     18  C   UNL     1      48.790   4.548  19.606  0.00  0.00    +0.000 C 
BRANCH  18  19
ATOM     19  C   UNL     1      49.838   5.534  20.085  0.00  0.00    +0.000 A 
ATOM     20  C   UNL     1      51.136   5.224  20.465  0.00  0.00    +0.000 A 
ATOM     21  S   UNL     1      52.033   6.582  20.988  0.00  0.00    +0.000 S 
ATOM     22  C   UNL     1      50.730   7.635  20.683  0.00  0.00    +0.000 A 
ATOM     23  N   UNL     1      50.826   8.969  20.924  0.00  0.00    +0.000 NA
ATOM     24  C   UNL     1      49.764   9.639  20.628  0.00  0.00    +0.000 A 
ATOM     25  N   UNL     1      48.614   9.099  20.103  0.00  0.00    +0.000 N 
ATOM     26  C   UNL     1      48.480   7.761  19.812  0.00  0.00    +0.000 A 
ATOM     27  O   UNL     1      47.473   7.313  19.273  0.00  0.00    +0.000 OA
ATOM     28  C   UNL     1      49.638   6.961  20.173  0.00  0.00    +0.000 A 
ATOM     29  H   UNL     1      47.829   9.687  19.865  0.00  0.00    +0.000 HD
ENDBRANCH  18  19
BRANCH  18  30
ATOM     30  N   UNL     1      48.457   3.641  20.710  0.00  0.00    +0.000 NA
ATOM     31  H   UNL     1      48.448   2.680  20.370  0.00  0.00    +0.000 HD
ATOM     32  H   UNL     1      47.530   3.846  21.072  0.00  0.00    +0.000 HD
ENDBRANCH  18  30
ENDBRANCH   1  18
TORSDOF 8
ENDMDL
MODEL 9
REMARK VINA RESULT:    -6.401      3.706      9.247
REMARK INTER + INTRA:          -9.314
REMARK INTER:                  -8.313
REMARK INTRA:                  -1.000
REMARK UNBOUND:                -0.294
REMARK  Name = 
REMARK  8 active torsions:
REMARK  status: ('A' for Active; 'I' for Inactive)
REMARK    1  A    between atoms: N_1  and  C_2
REMARK    2  A    between atoms: C_2  and  C_3
REMARK    3  A    between atoms: C_2  and  C_19
REMARK    4  A    between atoms: C_3  and  C_4
REMARK    5  A    between atoms: C_7  and  C_8
REMARK    6  A    between atoms: C_8  and  O_9
REMARK    7  A    between atoms: C_8  and  C_10
REMARK    8  A    between atoms: C_10  and  N_11
REMARK                            x       y       z     vdW  Elec       q    Type
REMARK                         _______ _______ _______ _____ _____    ______ ____
ROOT
ATOM      1  C   UNL     1      46.992   7.303  11.880  0.00  0.00    +0.000 C 
ENDROOT
BRANCH   1   2
ATOM      2  C   UNL     1      47.509   6.957  13.251  0.00  0.00    +0.000 A 
ATOM      3  C   UNL     1      48.077   7.934  14.072  0.00  0.00    +0.000 A 
ATOM      4  C   UNL     1      48.614   7.577  15.306  0.00  0.00    +0.000 A 
ATOM      5  C   UNL     1      48.580   6.240  15.691  0.00  0.00    +0.000 A 
ATOM      6  N   UNL     1      47.995   5.281  14.929  0.00  0.00    +0.000 NA
ATOM      7  C   UNL     1      47.486   5.655  13.733  0.00  0.00    +0.000 A 
BRANCH   5   8
ATOM      8  C   UNL     1      49.194   5.823  17.018  0.00  0.00    +0.000 C 
BRANCH   8   9
ATOM      9  O   UNL     1      50.252   4.893  16.774  0.00  0.00    +0.000 OA
ATOM     10  H   UNL     1      50.130   4.182  17.428  0.00  0.00    +0.000 HD
ENDBRANCH   8   9
BRANCH   8  11
ATOM     11  C   UNL     1      49.703   7.066  17.803  0.00  0.00    +0.000 C 
BRANCH  11  12
ATOM     12  N   UNL     1      49.070   7.331  19.118  0.00  0.00    +0.000 NA
ATOM     13  C   UNL     1      47.713   7.905  19.013  0.00  0.00    +0.000 C 
ATOM     14  C   UNL     1      47.698   9.347  18.482  0.00  0.00    +0.000 C 
ATOM     15  O   UNL     1      48.500  10.210  19.299  0.00  0.00    +0.000 OA
ATOM     16  C   UNL     1      49.847   9.726  19.394  0.00  0.00    +0.000 C 
ATOM     17  C   UNL     1      49.897   8.275  19.909  0.00  0.00    +0.000 C 
ENDBRANCH  11  12
ENDBRANCH   8  11
ENDBRANCH   5   8
ENDBRANCH   1   2
BRANCH   1  18
ATOM     18  C   UNL     1      45.484   7.061  11.654  0.00  0.00    +0.000 C 
BRANCH  18  19
ATOM     19  C   UNL     1      45.254   5.805  10.835  0.00  0.00    +0.000 A 
ATOM     20  C   UNL     1      45.677   5.593   9.531  0.00  0.00    +0.000 A 
ATOM     21  S   UNL     1      45.210   4.074   8.903  0.00  0.00    +0.000 S 
ATOM     22  C   UNL     1      44.464   3.631  10.368  0.00  0.00    +0.000 A 
ATOM     23  N   UNL     1      43.848   2.428  10.515  0.00  0.00    +0.000 NA
ATOM     24  C   UNL     1      43.344   2.230  11.685  0.00  0.00    +0.000 A 
ATOM     25  N   UNL     1      43.405   3.122  12.730  0.00  0.00    +0.000 N 
ATOM     26  C   UNL     1      44.044   4.337  12.641  0.00  0.00    +0.000 A 
ATOM     27  O   UNL     1      44.154   5.084  13.607  0.00  0.00    +0.000 OA
ATOM     28  C   UNL     1      44.588   4.621  11.324  0.00  0.00    +0.000 A 
ATOM     29  H   UNL     1      43.015   2.889  13.632  0.00  0.00    +0.000 HD
ENDBRANCH  18  19
BRANCH  18  30
ATOM     30  N   UNL     1      44.828   8.188  10.982  0.00  0.00    +0.000 NA
ATOM     31  H   UNL     1      45.465   8.982  10.950  0.00  0.00    +0.000 HD
ATOM     32  H   UNL     1      44.003   8.479  11.499  0.00  0.00    +0.000 HD
ENDBRANCH  18  30
ENDBRANCH   1  18
TORSDOF 8
ENDMDL
