MODEL 1
REMARK VINA RESULT:    -7.650      0.000      0.000
REMARK INTER + INTRA:         -10.386
REMARK INTER:                  -9.439
REMARK INTRA:                  -0.946
REMARK UNBOUND:                -0.946
REMARK  Name = 
REMARK  6 active torsions:
REMARK  status: ('A' for Active; 'I' for Inactive)
REMARK    1  A    between atoms: C_1  and  C_2
REMARK    2  A    between atoms: N_4  and  C_5
REMARK    3  A    between atoms: C_9  and  C_10
REMARK    4  A    between atoms: C_10  and  C_11
REMARK    5  A    between atoms: C_11  and  C_12
REMARK    6  A    between atoms: C_20  and  C_21
REMARK                            x       y       z     vdW  Elec       q    Type
REMARK                         _______ _______ _______ _____ _____    ______ ____
ROOT
ATOM      1  C   UNL     1      46.708   6.282  12.845  0.00  0.00    +0.000 A 
ATOM      2  C   UNL     1      46.000   5.351  13.615  0.00  0.00    +0.000 A 
ATOM      3  C   UNL     1      45.154   4.400  13.035  0.00  0.00    +0.000 A 
ATOM      4  C   UNL     1      44.977   4.367  11.655  0.00  0.00    +0.000 A 
ATOM      5  C   UNL     1      45.631   5.296  10.845  0.00  0.00    +0.000 A 
ATOM      6  C   UNL     1      46.502   6.220  11.456  0.00  0.00    +0.000 A 
ENDROOT
BRANCH   1  10
ATOM      7  C   UNL     1      50.103   7.788  11.541  0.00  0.00    +0.000 C 
ATOM      8  C   UNL     1      49.893   8.020  13.040  0.00  0.00    +0.000 C 
ATOM      9  C   UNL     1      48.990   6.915  13.661  0.00  0.00    +0.000 C 
ATOM     10  N   UNL     1      47.571   7.200  13.413  0.00  0.00    +0.000 N 
ATOM     11  C   UNL     1      47.144   8.538  13.842  0.00  0.00    +0.000 C 
ATOM     12  C   UNL     1      48.018   9.638  13.188  0.00  0.00    +0.000 C 
ATOM     13  C   UNL     1      47.617   9.904  11.735  0.00  0.00    +0.000 C 
ATOM     14  N   UNL     1      49.478   9.416  13.337  0.00  0.00    +0.000 NA
ATOM     15  H   UNL     1      49.694   9.577  14.323  0.00  0.00    +0.000 HD
ENDBRANCH   1  10
BRANCH   5  16
ATOM     16  C   UNL     1      45.499   5.311   9.337  0.00  0.00    +0.000 C 
BRANCH  16  17
ATOM     17  C   UNL     1      44.767   4.103   8.741  0.00  0.00    +0.000 C 
BRANCH  17  18
ATOM     18  C   UNL     1      45.707   3.143   8.055  0.00  0.00    +0.000 A 
ATOM     19  C   UNL     1      45.786   1.808   8.475  0.00  0.00    +0.000 A 
ATOM     20  C   UNL     1      46.636   0.912   7.824  0.00  0.00    +0.000 A 
ATOM     21  C   UNL     1      47.421   1.345   6.757  0.00  0.00    +0.000 A 
ATOM     22  C   UNL     1      47.365   2.675   6.346  0.00  0.00    +0.000 A 
ATOM     23  C   UNL     1      46.514   3.572   6.994  0.00  0.00    +0.000 A 
ENDBRANCH  17  18
ENDBRANCH  16  17
ENDBRANCH   5  16
TORSDOF 4
ENDMDL
MODEL 2
REMARK VINA RESULT:    -7.517      1.050      1.880
REMARK INTER + INTRA:         -10.220
REMARK INTER:                  -9.184
REMARK INTRA:                  -1.037
REMARK UNBOUND:                -0.946
REMARK  Name = 
REMARK  6 active torsions:
REMARK  status: ('A' for Active; 'I' for Inactive)
REMARK    1  A    between atoms: C_1  and  C_2
REMARK    2  A    between atoms: N_4  and  C_5
REMARK    3  A    between atoms: C_9  and  C_10
REMARK    4  A    between atoms: C_10  and  C_11
REMARK    5  A    between atoms: C_11  and  C_12
REMARK    6  A    between atoms: C_20  and  C_21
REMARK                            x       y       z     vdW  Elec       q    Type
REMARK                         _______ _______ _______ _____ _____    ______ ____
ROOT
ATOM      1  C   UNL     1      46.288   6.069  12.246  0.00  0.00    +0.000 A 
ATOM      2  C   UNL     1      46.555   5.185  13.298  0.00  0.00    +0.000 A 
ATOM      3  C   UNL     1      46.095   3.863  13.291  0.00  0.00    +0.000 A 
ATOM      4  C   UNL     1      45.331   3.392  12.228  0.00  0.00    +0.000 A 
ATOM      5  C   UNL     1      45.005   4.243  11.171  0.00  0.00    +0.000 A 
ATOM      6  C   UNL     1      45.511   5.559  11.191  0.00  0.00    +0.000 A 
ENDROOT
BRANCH   1  10
ATOM      7  C   UNL     1      48.293   8.104  14.954  0.00  0.00    +0.000 C 
ATOM      8  C   UNL     1      47.686   9.002  13.872  0.00  0.00    +0.000 C 
ATOM      9  C   UNL     1      46.411   8.358  13.254  0.00  0.00    +0.000 C 
ATOM     10  N   UNL     1      46.770   7.364  12.234  0.00  0.00    +0.000 N 
ATOM     11  C   UNL     1      47.668   7.873  11.189  0.00  0.00    +0.000 C 
ATOM     12  C   UNL     1      48.956   8.474  11.807  0.00  0.00    +0.000 C 
ATOM     13  C   UNL     1      49.952   7.392  12.227  0.00  0.00    +0.000 C 
ATOM     14  N   UNL     1      48.703   9.459  12.889  0.00  0.00    +0.000 NA
ATOM     15  H   UNL     1      48.315  10.289  12.438  0.00  0.00    +0.000 HD
ENDBRANCH   1  10
BRANCH   5  16
ATOM     16  C   UNL     1      44.192   3.797   9.975  0.00  0.00    +0.000 C 
BRANCH  16  17
ATOM     17  C   UNL     1      44.513   2.386   9.467  0.00  0.00    +0.000 C 
BRANCH  17  18
ATOM     18  C   UNL     1      45.559   2.392   8.379  0.00  0.00    +0.000 A 
ATOM     19  C   UNL     1      46.337   1.252   8.140  0.00  0.00    +0.000 A 
ATOM     20  C   UNL     1      47.288   1.248   7.117  0.00  0.00    +0.000 A 
ATOM     21  C   UNL     1      47.474   2.384   6.333  0.00  0.00    +0.000 A 
ATOM     22  C   UNL     1      46.718   3.531   6.577  0.00  0.00    +0.000 A 
ATOM     23  C   UNL     1      45.767   3.536   7.598  0.00  0.00    +0.000 A 
ENDBRANCH  17  18
ENDBRANCH  16  17
ENDBRANCH   5  16
TORSDOF 4
ENDMDL
MODEL 3
REMARK VINA RESULT:    -6.842      3.357      7.469
REMARK INTER + INTRA:          -9.388
REMARK INTER:                  -8.427
REMARK INTRA:                  -0.961
REMARK UNBOUND:                -0.946
REMARK  Name = 
REMARK  6 active torsions:
REMARK  status: ('A' for Active; 'I' for Inactive)
REMARK    1  A    between atoms: C_1  and  C_2
REMARK    2  A    between atoms: N_4  and  C_5
REMARK    3  A    between atoms: C_9  and  C_10
REMARK    4  A    between atoms: C_10  and  C_11
REMARK    5  A    between atoms: C_11  and  C_12
REMARK    6  A    between atoms: C_20  and  C_21
REMARK                            x       y       z     vdW  Elec       q    Type
REMARK                         _______ _______ _______ _____ _____    ______ ____
ROOT
ATOM      1  C   UNL     1      46.326   5.538  12.794  0.00  0.00    +0.000 A 
ATOM      2  C   UNL     1      46.688   6.363  11.722  0.00  0.00    +0.000 A 
ATOM      3  C   UNL     1      47.768   7.249  11.800  0.00  0.00    +0.000 A 
ATOM      4  C   UNL     1      48.511   7.347  12.972  0.00  0.00    +0.000 A 
ATOM      5  C   UNL     1      48.170   6.574  14.082  0.00  0.00    +0.000 A 
ATOM      6  C   UNL     1      47.097   5.668  13.962  0.00  0.00    +0.000 A 
ENDROOT
BRANCH   1  10
ATOM      7  C   UNL     1      42.688   5.934  11.343  0.00  0.00    +0.000 C 
ATOM      8  C   UNL     1      42.837   4.695  12.231  0.00  0.00    +0.000 C 
ATOM      9  C   UNL     1      43.958   4.893  13.292  0.00  0.00    +0.000 C 
ATOM     10  N   UNL     1      45.281   4.638  12.707  0.00  0.00    +0.000 N 
ATOM     11  C   UNL     1      45.402   3.334  12.042  0.00  0.00    +0.000 C 
ATOM     12  C   UNL     1      44.310   3.159  10.956  0.00  0.00    +0.000 C 
ATOM     13  C   UNL     1      44.648   3.919   9.672  0.00  0.00    +0.000 C 
ATOM     14  N   UNL     1      42.934   3.445  11.435  0.00  0.00    +0.000 NA
ATOM     15  H   UNL     1      42.684   2.681  12.066  0.00  0.00    +0.000 HD
ENDBRANCH   1  10
BRANCH   5  16
ATOM     16  C   UNL     1      48.941   6.617  15.385  0.00  0.00    +0.000 C 
BRANCH  16  17
ATOM     17  C   UNL     1      48.297   5.841  16.540  0.00  0.00    +0.000 C 
BRANCH  17  18
ATOM     18  C   UNL     1      49.033   4.561  16.852  0.00  0.00    +0.000 A 
ATOM     19  C   UNL     1      48.420   3.321  16.631  0.00  0.00    +0.000 A 
ATOM     20  C   UNL     1      49.109   2.135  16.894  0.00  0.00    +0.000 A 
ATOM     21  C   UNL     1      50.411   2.180  17.388  0.00  0.00    +0.000 A 
ATOM     22  C   UNL     1      51.022   3.409  17.631  0.00  0.00    +0.000 A 
ATOM     23  C   UNL     1      50.335   4.595  17.367  0.00  0.00    +0.000 A 
ENDBRANCH  17  18
ENDBRANCH  16  17
ENDBRANCH   5  16
TORSDOF 4
ENDMDL
MODEL 4
REMARK VINA RESULT:    -6.771      3.633      7.445
REMARK INTER + INTRA:          -9.300
REMARK INTER:                  -8.374
REMARK INTRA:                  -0.926
REMARK UNBOUND:                -0.946
REMARK  Name = 
REMARK  6 active torsions:
REMARK  status: ('A' for Active; 'I' for Inactive)
REMARK    1  A    between atoms: C_1  and  C_2
REMARK    2  A    between atoms: N_4  and  C_5
REMARK    3  A    between atoms: C_9  and  C_10
REMARK    4  A    between atoms: C_10  and  C_11
REMARK    5  A    between atoms: C_11  and  C_12
REMARK    6  A    between atoms: C_20  and  C_21
REMARK                            x       y       z     vdW  Elec       q    Type
REMARK                         _______ _______ _______ _____ _____    ______ ____
ROOT
ATOM      1  C   UNL     1      46.467   6.246  12.585  0.00  0.00    +0.000 A 
ATOM      2  C   UNL     1      47.404   7.273  12.756  0.00  0.00    +0.000 A 
ATOM      3  C   UNL     1      48.319   7.273  13.814  0.00  0.00    +0.000 A 
ATOM      4  C   UNL     1      48.309   6.245  14.750  0.00  0.00    +0.000 A 
ATOM      5  C   UNL     1      47.372   5.215  14.647  0.00  0.00    +0.000 A 
ATOM      6  C   UNL     1      46.485   5.226  13.552  0.00  0.00    +0.000 A 
ENDROOT
BRANCH   1  10
ATOM      7  C   UNL     1      44.818   3.239  10.653  0.00  0.00    +0.000 C 
ATOM      8  C   UNL     1      44.707   4.562   9.889  0.00  0.00    +0.000 C 
ATOM      9  C   UNL     1      45.870   5.527  10.261  0.00  0.00    +0.000 C 
ATOM     10  N   UNL     1      45.585   6.226  11.522  0.00  0.00    +0.000 N 
ATOM     11  C   UNL     1      44.291   6.919  11.544  0.00  0.00    +0.000 C 
ATOM     12  C   UNL     1      43.131   5.945  11.215  0.00  0.00    +0.000 C 
ATOM     13  C   UNL     1      42.757   5.069  12.413  0.00  0.00    +0.000 C 
ATOM     14  N   UNL     1      43.346   5.148   9.980  0.00  0.00    +0.000 NA
ATOM     15  H   UNL     1      43.260   5.801   9.199  0.00  0.00    +0.000 HD
ENDBRANCH   1  10
BRANCH   5  16
ATOM     16  C   UNL     1      47.311   4.056  15.619  0.00  0.00    +0.000 C 
BRANCH  16  17
ATOM     17  C   UNL     1      47.877   4.352  17.013  0.00  0.00    +0.000 C 
BRANCH  17  18
ATOM     18  C   UNL     1      49.236   3.730  17.224  0.00  0.00    +0.000 A 
ATOM     19  C   UNL     1      50.322   4.521  17.621  0.00  0.00    +0.000 A 
ATOM     20  C   UNL     1      51.573   3.943  17.842  0.00  0.00    +0.000 A 
ATOM     21  C   UNL     1      51.751   2.573  17.659  0.00  0.00    +0.000 A 
ATOM     22  C   UNL     1      50.681   1.781  17.244  0.00  0.00    +0.000 A 
ATOM     23  C   UNL     1      49.430   2.357  17.024  0.00  0.00    +0.000 A 
ENDBRANCH  17  18
ENDBRANCH  16  17
ENDBRANCH   5  16
TORSDOF 4
ENDMDL
MODEL 5
REMARK VINA RESULT:    -6.665      1.376      2.259
REMARK INTER + INTRA:          -9.170
REMARK INTER:                  -8.283
REMARK INTRA:                  -0.887
REMARK UNBOUND:                -0.946
REMARK  Name = 
REMARK  6 active torsions:
REMARK  status: ('A' for Active; 'I' for Inactive)
REMARK    1  A    between atoms: C_1  and  C_2
REMARK    2  A    between atoms: N_4  and  C_5
REMARK    3  A    between atoms: C_9  and  C_10
REMARK    4  A    between atoms: C_10  and  C_11
REMARK    5  A    between atoms: C_11  and  C_12
REMARK    6  A    between atoms: C_20  and  C_21
REMARK                            x       y       z     vdW  Elec       q    Type
REMARK                         _______ _______ _______ _____ _____    ______ ____
ROOT
ATOM      1  C   UNL     1      47.268   7.478  12.234  0.00  0.00    +0.000 A 
ATOM      2  C   UNL     1      46.366   8.546  12.151  0.00  0.00    +0.000 A 
ATOM      3  C   UNL     1      45.023   8.356  11.806  0.00  0.00    +0.000 A 
ATOM      4  C   UNL     1      44.547   7.083  11.514  0.00  0.00    +0.000 A 
ATOM      5  C   UNL     1      45.412   5.988  11.546  0.00  0.00    +0.000 A 
ATOM      6  C   UNL     1      46.752   6.206  11.929  0.00  0.00    +0.000 A 
ENDROOT
BRANCH   1  10
ATOM      7  C   UNL     1      49.891  10.230  11.213  0.00  0.00    +0.000 C 
ATOM      8  C   UNL     1      50.543   9.006  11.863  0.00  0.00    +0.000 C 
ATOM      9  C   UNL     1      49.688   7.725  11.639  0.00  0.00    +0.000 C 
ATOM     10  N   UNL     1      48.586   7.657  12.608  0.00  0.00    +0.000 N 
ATOM     11  C   UNL     1      49.011   7.775  14.009  0.00  0.00    +0.000 C 
ATOM     12  C   UNL     1      49.825   9.074  14.237  0.00  0.00    +0.000 C 
ATOM     13  C   UNL     1      48.926  10.308  14.337  0.00  0.00    +0.000 C 
ATOM     14  N   UNL     1      50.938   9.264  13.272  0.00  0.00    +0.000 NA
ATOM     15  H   UNL     1      51.645   8.565  13.507  0.00  0.00    +0.000 HD
ENDBRANCH   1  10
BRANCH   5  16
ATOM     16  C   UNL     1      44.963   4.572  11.255  0.00  0.00    +0.000 C 
BRANCH  16  17
ATOM     17  C   UNL     1      44.315   4.371   9.880  0.00  0.00    +0.000 C 
BRANCH  17  18
ATOM     18  C   UNL     1      45.188   3.568   8.947  0.00  0.00    +0.000 A 
ATOM     19  C   UNL     1      45.940   4.208   7.954  0.00  0.00    +0.000 A 
ATOM     20  C   UNL     1      46.767   3.468   7.108  0.00  0.00    +0.000 A 
ATOM     21  C   UNL     1      46.842   2.084   7.241  0.00  0.00    +0.000 A 
ATOM     22  C   UNL     1      46.081   1.434   8.212  0.00  0.00    +0.000 A 
ATOM     23  C   UNL     1      45.255   2.173   9.060  0.00  0.00    +0.000 A 
ENDBRANCH  17  18
ENDBRANCH  16  17
ENDBRANCH   5  16
TORSDOF 4
ENDMDL
MODEL 6
REMARK VINA RESULT:    -6.595      3.347      4.902
REMARK INTER + INTRA:          -9.083
REMARK INTER:                  -8.236
REMARK INTRA:                  -0.847
REMARK UNBOUND:                -0.946
REMARK  Name = 
REMARK  6 active torsions:
REMARK  status: ('A' for Active; 'I' for Inactive)
REMARK    1  A    between atoms: C_1  and  C_2
REMARK    2  A    between atoms: N_4  and  C_5
REMARK    3  A    between atoms: C_9  and  C_10
REMARK    4  A    between atoms: C_10  and  C_11
REMARK    5  A    between atoms: C_11  and  C_12
REMARK    6  A    between atoms: C_20  and  C_21
REMARK                            x       y       z     vdW  Elec       q    Type
REMARK                         _______ _______ _______ _____ _____    ______ ____
ROOT
ATOM      1  C   UNL     1      48.027   5.481  15.655  0.00  0.00    +0.000 A 
ATOM      2  C   UNL     1      48.544   6.595  14.983  0.00  0.00    +0.000 A 
ATOM      3  C   UNL     1      48.159   6.917  13.676  0.00  0.00    +0.000 A 
ATOM      4  C   UNL     1      47.250   6.114  12.995  0.00  0.00    +0.000 A 
ATOM      5  C   UNL     1      46.731   4.972  13.606  0.00  0.00    +0.000 A 
ATOM      6  C   UNL     1      47.113   4.692  14.934  0.00  0.00    +0.000 A 
ENDROOT
BRANCH   1  10
ATOM      7  C   UNL     1      49.869   2.352  17.175  0.00  0.00    +0.000 C 
ATOM      8  C   UNL     1      49.159   3.193  18.240  0.00  0.00    +0.000 C 
ATOM      9  C   UNL     1      47.942   3.955  17.639  0.00  0.00    +0.000 C 
ATOM     10  N   UNL     1      48.379   5.181  16.957  0.00  0.00    +0.000 N 
ATOM     11  C   UNL     1      49.205   6.068  17.786  0.00  0.00    +0.000 C 
ATOM     12  C   UNL     1      50.439   5.316  18.347  0.00  0.00    +0.000 C 
ATOM     13  C   UNL     1      51.543   5.159  17.300  0.00  0.00    +0.000 C 
ATOM     14  N   UNL     1      50.109   4.031  19.016  0.00  0.00    +0.000 NA
ATOM     15  H   UNL     1      49.635   4.275  19.888  0.00  0.00    +0.000 HD
ENDBRANCH   1  10
BRANCH   5  16
ATOM     16  C   UNL     1      45.727   4.060  12.933  0.00  0.00    +0.000 C 
BRANCH  16  17
ATOM     17  C   UNL     1      44.802   4.753  11.926  0.00  0.00    +0.000 C 
BRANCH  17  18
ATOM     18  C   UNL     1      44.940   4.185  10.535  0.00  0.00    +0.000 A 
ATOM     19  C   UNL     1      45.523   4.947   9.514  0.00  0.00    +0.000 A 
ATOM     20  C   UNL     1      45.675   4.413   8.233  0.00  0.00    +0.000 A 
ATOM     21  C   UNL     1      45.239   3.118   7.961  0.00  0.00    +0.000 A 
ATOM     22  C   UNL     1      44.639   2.359   8.965  0.00  0.00    +0.000 A 
ATOM     23  C   UNL     1      44.487   2.891  10.246  0.00  0.00    +0.000 A 
ENDBRANCH  17  18
ENDBRANCH  16  17
ENDBRANCH   5  16
TORSDOF 4
ENDMDL
MODEL 7
REMARK VINA RESULT:    -6.279      3.035      7.372
REMARK INTER + INTRA:          -8.694
REMARK INTER:                  -7.692
REMARK INTRA:                  -1.001
REMARK UNBOUND:                -0.946
REMARK  Name = 
REMARK  6 active torsions:
REMARK  status: ('A' for Active; 'I' for Inactive)
REMARK    1  A    between atoms: C_1  and  C_2
REMARK    2  A    between atoms: N_4  and  C_5
REMARK    3  A    between atoms: C_9  and  C_10
REMARK    4  A    between atoms: C_10  and  C_11
REMARK    5  A    between atoms: C_11  and  C_12
REMARK    6  A    between atoms: C_20  and  C_21
REMARK                            x       y       z     vdW  Elec       q    Type
REMARK                         _______ _______ _______ _____ _____    ______ ____
ROOT
ATOM      1  C   UNL     1      45.290   6.822  12.606  0.00  0.00    +0.000 A 
ATOM      2  C   UNL     1      45.247   8.174  12.245  0.00  0.00    +0.000 A 
ATOM      3  C   UNL     1      46.309   9.046  12.513  0.00  0.00    +0.000 A 
ATOM      4  C   UNL     1      47.445   8.588  13.171  0.00  0.00    +0.000 A 
ATOM      5  C   UNL     1      47.523   7.257  13.585  0.00  0.00    +0.000 A 
ATOM      6  C   UNL     1      46.452   6.396  13.272  0.00  0.00    +0.000 A 
ENDROOT
BRANCH   1  10
ATOM      7  C   UNL     1      44.729   4.418   9.539  0.00  0.00    +0.000 C 
ATOM      8  C   UNL     1      43.451   4.647  10.350  0.00  0.00    +0.000 C 
ATOM      9  C   UNL     1      43.478   6.027  11.070  0.00  0.00    +0.000 C 
ATOM     10  N   UNL     1      44.258   5.951  12.313  0.00  0.00    +0.000 N 
ATOM     11  C   UNL     1      43.830   4.883  13.226  0.00  0.00    +0.000 C 
ATOM     12  C   UNL     1      43.845   3.505  12.517  0.00  0.00    +0.000 C 
ATOM     13  C   UNL     1      45.259   2.931  12.403  0.00  0.00    +0.000 C 
ATOM     14  N   UNL     1      43.124   3.487  11.219  0.00  0.00    +0.000 NA
ATOM     15  H   UNL     1      42.130   3.564  11.442  0.00  0.00    +0.000 HD
ENDBRANCH   1  10
BRANCH   5  16
ATOM     16  C   UNL     1      48.733   6.684  14.292  0.00  0.00    +0.000 C 
BRANCH  16  17
ATOM     17  C   UNL     1      48.693   6.783  15.821  0.00  0.00    +0.000 C 
BRANCH  17  18
ATOM     18  C   UNL     1      48.673   5.428  16.484  0.00  0.00    +0.000 A 
ATOM     19  C   UNL     1      49.742   5.020  17.292  0.00  0.00    +0.000 A 
ATOM     20  C   UNL     1      49.714   3.777  17.927  0.00  0.00    +0.000 A 
ATOM     21  C   UNL     1      48.622   2.929  17.752  0.00  0.00    +0.000 A 
ATOM     22  C   UNL     1      47.562   3.317  16.933  0.00  0.00    +0.000 A 
ATOM     23  C   UNL     1      47.589   4.560  16.299  0.00  0.00    +0.000 A 
ENDBRANCH  17  18
ENDBRANCH  16  17
ENDBRANCH   5  16
TORSDOF 4
ENDMDL
MODEL 8
REMARK VINA RESULT:    -6.258      3.368      5.712
REMARK INTER + INTRA:          -8.668
REMARK INTER:                  -7.716
REMARK INTRA:                  -0.951
REMARK UNBOUND:                -0.946
REMARK  Name = 
REMARK  6 active torsions:
REMARK  status: ('A' for Active; 'I' for Inactive)
REMARK    1  A    between atoms: C_1  and  C_2
REMARK    2  A    between atoms: N_4  and  C_5
REMARK    3  A    between atoms: C_9  and  C_10
REMARK    4  A    between atoms: C_10  and  C_11
REMARK    5  A    between atoms: C_11  and  C_12
REMARK    6  A    between atoms: C_20  and  C_21
REMARK                            x       y       z     vdW  Elec       q    Type
REMARK                         _______ _______ _______ _____ _____    ______ ____
ROOT
ATOM      1  C   UNL     1      48.514   5.983  15.728  0.00  0.00    +0.000 A 
ATOM      2  C   UNL     1      49.671   6.772  15.736  0.00  0.00    +0.000 A 
ATOM      3  C   UNL     1      50.071   7.512  14.618  0.00  0.00    +0.000 A 
ATOM      4  C   UNL     1      49.326   7.468  13.444  0.00  0.00    +0.000 A 
ATOM      5  C   UNL     1      48.184   6.669  13.371  0.00  0.00    +0.000 A 
ATOM      6  C   UNL     1      47.789   5.960  14.524  0.00  0.00    +0.000 A 
ENDROOT
BRANCH   1  10
ATOM      7  C   UNL     1      49.011   2.208  16.729  0.00  0.00    +0.000 C 
ATOM      8  C   UNL     1      47.916   2.896  17.549  0.00  0.00    +0.000 C 
ATOM      9  C   UNL     1      47.269   4.068  16.756  0.00  0.00    +0.000 C 
ATOM     10  N   UNL     1      48.099   5.278  16.841  0.00  0.00    +0.000 N 
ATOM     11  C   UNL     1      48.430   5.683  18.213  0.00  0.00    +0.000 C 
ATOM     12  C   UNL     1      49.113   4.527  18.986  0.00  0.00    +0.000 C 
ATOM     13  C   UNL     1      50.587   4.372  18.607  0.00  0.00    +0.000 C 
ATOM     14  N   UNL     1      48.376   3.239  18.920  0.00  0.00    +0.000 NA
ATOM     15  H   UNL     1      47.534   3.360  19.485  0.00  0.00    +0.000 HD
ENDBRANCH   1  10
BRANCH   5  16
ATOM     16  C   UNL     1      47.316   6.583  12.133  0.00  0.00    +0.000 C 
BRANCH  16  17
ATOM     17  C   UNL     1      45.808   6.668  12.396  0.00  0.00    +0.000 C 
BRANCH  17  18
ATOM     18  C   UNL     1      45.075   5.429  11.943  0.00  0.00    +0.000 A 
ATOM     19  C   UNL     1      44.419   4.615  12.875  0.00  0.00    +0.000 A 
ATOM     20  C   UNL     1      43.719   3.483  12.454  0.00  0.00    +0.000 A 
ATOM     21  C   UNL     1      43.677   3.151  11.102  0.00  0.00    +0.000 A 
ATOM     22  C   UNL     1      44.344   3.944  10.169  0.00  0.00    +0.000 A 
ATOM     23  C   UNL     1      45.043   5.077  10.588  0.00  0.00    +0.000 A 
ENDBRANCH  17  18
ENDBRANCH  16  17
ENDBRANCH   5  16
TORSDOF 4
ENDMDL
MODEL 9
REMARK VINA RESULT:    -6.153      3.529      8.481
REMARK INTER + INTRA:          -8.538
REMARK INTER:                  -7.709
REMARK INTRA:                  -0.829
REMARK UNBOUND:                -0.946
REMARK  Name = 
REMARK  6 active torsions:
REMARK  status: ('A' for Active; 'I' for Inactive)
REMARK    1  A    between atoms: C_1  and  C_2
REMARK    2  A    between atoms: N_4  and  C_5
REMARK    3  A    between atoms: C_9  and  C_10
REMARK    4  A    between atoms: C_10  and  C_11
REMARK    5  A    between atoms: C_11  and  C_12
REMARK    6  A    between atoms: C_20  and  C_21
REMARK                            x       y       z     vdW  Elec       q    Type
REMARK                         _______ _______ _______ _____ _____    ______ ____
ROOT
ATOM      1  C   UNL     1      46.353   5.495  12.840  0.00  0.00    +0.000 A 
ATOM      2  C   UNL     1      46.750   6.362  11.814  0.00  0.00    +0.000 A 
ATOM      3  C   UNL     1      47.849   7.217  11.948  0.00  0.00    +0.000 A 
ATOM      4  C   UNL     1      48.578   7.241  13.133  0.00  0.00    +0.000 A 
ATOM      5  C   UNL     1      48.203   6.424  14.201  0.00  0.00    +0.000 A 
ATOM      6  C   UNL     1      47.111   5.550  14.023  0.00  0.00    +0.000 A 
ENDROOT
BRANCH   1  10
ATOM      7  C   UNL     1      42.770   6.029  11.302  0.00  0.00    +0.000 C 
ATOM      8  C   UNL     1      42.862   4.761  12.155  0.00  0.00    +0.000 C 
ATOM      9  C   UNL     1      43.957   4.897  13.252  0.00  0.00    +0.000 C 
ATOM     10  N   UNL     1      45.289   4.626  12.697  0.00  0.00    +0.000 N 
ATOM     11  C   UNL     1      45.397   3.340  11.996  0.00  0.00    +0.000 C 
ATOM     12  C   UNL     1      44.333   3.226  10.875  0.00  0.00    +0.000 C 
ATOM     13  C   UNL     1      44.726   4.015   9.625  0.00  0.00    +0.000 C 
ATOM     14  N   UNL     1      42.950   3.532  11.324  0.00  0.00    +0.000 NA
ATOM     15  H   UNL     1      42.664   2.757  11.924  0.00  0.00    +0.000 HD
ENDBRANCH   1  10
BRANCH   5  16
ATOM     16  C   UNL     1      48.957   6.386  15.513  0.00  0.00    +0.000 C 
BRANCH  16  17
ATOM     17  C   UNL     1      48.812   7.644  16.377  0.00  0.00    +0.000 C 
BRANCH  17  18
ATOM     18  C   UNL     1      48.354   7.328  17.780  0.00  0.00    +0.000 A 
ATOM     19  C   UNL     1      48.299   6.000  18.224  0.00  0.00    +0.000 A 
ATOM     20  C   UNL     1      47.901   5.708  19.529  0.00  0.00    +0.000 A 
ATOM     21  C   UNL     1      47.546   6.738  20.397  0.00  0.00    +0.000 A 
ATOM     22  C   UNL     1      47.578   8.061  19.959  0.00  0.00    +0.000 A 
ATOM     23  C   UNL     1      47.977   8.355  18.654  0.00  0.00    +0.000 A 
ENDBRANCH  17  18
ENDBRANCH  16  17
ENDBRANCH   5  16
TORSDOF 4
ENDMDL
