MODEL 1
REMARK VINA RESULT:    -7.965      0.000      0.000
REMARK INTER + INTRA:         -11.888
REMARK INTER:                 -10.759
REMARK INTRA:                  -1.129
REMARK UNBOUND:                -1.129
REMARK  Name = 
REMARK  6 active torsions:
REMARK  status: ('A' for Active; 'I' for Inactive)
REMARK    1  A    between atoms: C_2  and  C_20
REMARK    2  A    between atoms: N_3  and  C_4
REMARK    3  A    between atoms: C_4  and  C_5
REMARK    4  A    between atoms: C_8  and  C_9
REMARK    5  A    between atoms: C_9  and  O_10
REMARK    6  A    between atoms: O_10  and  C_11
REMARK                            x       y       z     vdW  Elec       q    Type
REMARK                         _______ _______ _______ _____ _____    ______ ____
ROOT
ATOM      1  C   UNL     1      47.052   8.073  13.382  0.00  0.00    +0.000 C 
ENDROOT
BRANCH   1   2
ATOM      2  C   UNL     1      46.210   7.199  12.490  0.00  0.00    +0.000 A 
ATOM      3  C   UNL     1      44.863   6.964  12.798  0.00  0.00    +0.000 A 
ATOM      4  C   UNL     1      44.074   6.158  11.974  0.00  0.00    +0.000 A 
ATOM      5  C   UNL     1      44.616   5.558  10.831  0.00  0.00    +0.000 A 
ATOM      6  C   UNL     1      45.970   5.765  10.538  0.00  0.00    +0.000 A 
ATOM      7  C   UNL     1      46.760   6.573  11.363  0.00  0.00    +0.000 A 
BRANCH   5   8
ATOM      8  C   UNL     1      43.747   4.705   9.936  0.00  0.00    +0.000 C 
BRANCH   8   9
ATOM      9  O   UNL     1      44.474   4.200   8.806  0.00  0.00    +0.000 OA
BRANCH   9  10
ATOM     10  C   UNL     1      44.842   2.893   8.890  0.00  0.00    +0.000 C 
ATOM     11  O   UNL     1      44.303   2.063   9.609  0.00  0.00    +0.000 OA
ATOM     12  N   UNL     1      45.889   2.606   8.063  0.00  0.00    +0.000 N 
ATOM     13  C   UNL     1      46.456   1.301   7.932  0.00  0.00    +0.000 C 
ATOM     14  C   UNL     1      47.234   1.433   6.646  0.00  0.00    +0.000 C 
ATOM     15  O   UNL     1      47.598   2.824   6.550  0.00  0.00    +0.000 OA
ATOM     16  C   UNL     1      46.727   3.565   7.417  0.00  0.00    +0.000 C 
ENDBRANCH   9  10
ENDBRANCH   8   9
ENDBRANCH   5   8
ENDBRANCH   1   2
BRANCH   1  19
ATOM     17  O   UNL     1      49.514   6.796  13.668  0.00  0.00    +0.000 OA
ATOM     18  C   UNL     1      48.742   6.802  14.623  0.00  0.00    +0.000 C 
ATOM     19  N   UNL     1      47.487   7.348  14.547  0.00  0.00    +0.000 N 
ATOM     20  H   UNL     1      46.972   7.523  15.403  0.00  0.00    +0.000 HD
BRANCH  18  21
ATOM     21  C   UNL     1      49.096   6.171  15.901  0.00  0.00    +0.000 A 
ATOM     22  C   UNL     1      50.131   6.687  16.668  0.00  0.00    +0.000 A 
ATOM     23  S   UNL     1      50.437   5.794  18.090  0.00  0.00    +0.000 S 
ATOM     24  C   UNL     1      49.159   4.721  17.757  0.00  0.00    +0.000 A 
ATOM     25  N   UNL     1      48.860   3.702  18.606  0.00  0.00    +0.000 NA
ATOM     26  C   UNL     1      47.842   2.991  18.249  0.00  0.00    +0.000 A 
ATOM     27  N   UNL     1      47.097   3.205  17.120  0.00  0.00    +0.000 N 
ATOM     28  C   UNL     1      47.386   4.195  16.213  0.00  0.00    +0.000 A 
ATOM     29  O   UNL     1      46.736   4.326  15.181  0.00  0.00    +0.000 OA
ATOM     30  C   UNL     1      48.516   5.032  16.573  0.00  0.00    +0.000 A 
ATOM     31  H   UNL     1      46.318   2.606  16.891  0.00  0.00    +0.000 HD
ENDBRANCH  18  21
ENDBRANCH   1  19
TORSDOF 6
ENDMDL
MODEL 2
REMARK VINA RESULT:    -7.604      1.722      2.116
REMARK INTER + INTRA:         -11.400
REMARK INTER:                 -10.784
REMARK INTRA:                  -0.616
REMARK UNBOUND:                -1.129
REMARK  Name = 
REMARK  6 active torsions:
REMARK  status: ('A' for Active; 'I' for Inactive)
REMARK    1  A    between atoms: C_2  and  C_20
REMARK    2  A    between atoms: N_3  and  C_4
REMARK    3  A    between atoms: C_4  and  C_5
REMARK    4  A    between atoms: C_8  and  C_9
REMARK    5  A    between atoms: C_9  and  O_10
REMARK    6  A    between atoms: O_10  and  C_11
REMARK                            x       y       z     vdW  Elec       q    Type
REMARK                         _______ _______ _______ _____ _____    ______ ____
ROOT
ATOM      1  C   UNL     1      48.123   7.133  13.403  0.00  0.00    +0.000 C 
ENDROOT
BRANCH   1   2
ATOM      2  C   UNL     1      47.137   6.240  12.695  0.00  0.00    +0.000 A 
ATOM      3  C   UNL     1      46.590   6.627  11.465  0.00  0.00    +0.000 A 
ATOM      4  C   UNL     1      45.677   5.804  10.800  0.00  0.00    +0.000 A 
ATOM      5  C   UNL     1      45.280   4.582  11.357  0.00  0.00    +0.000 A 
ATOM      6  C   UNL     1      45.802   4.207  12.603  0.00  0.00    +0.000 A 
ATOM      7  C   UNL     1      46.716   5.032  13.268  0.00  0.00    +0.000 A 
BRANCH   5   8
ATOM      8  C   UNL     1      44.310   3.690  10.620  0.00  0.00    +0.000 C 
BRANCH   8   9
ATOM      9  O   UNL     1      44.977   2.820   9.694  0.00  0.00    +0.000 OA
BRANCH   9  10
ATOM     10  C   UNL     1      45.167   3.335   8.449  0.00  0.00    +0.000 C 
ATOM     11  O   UNL     1      44.621   4.342   8.021  0.00  0.00    +0.000 OA
ATOM     12  N   UNL     1      46.058   2.596   7.724  0.00  0.00    +0.000 N 
ATOM     13  C   UNL     1      46.463   2.928   6.395  0.00  0.00    +0.000 C 
ATOM     14  C   UNL     1      47.711   2.095   6.238  0.00  0.00    +0.000 C 
ATOM     15  O   UNL     1      47.530   0.953   7.097  0.00  0.00    +0.000 OA
ATOM     16  C   UNL     1      46.513   1.283   8.054  0.00  0.00    +0.000 C 
ENDBRANCH   9  10
ENDBRANCH   8   9
ENDBRANCH   5   8
ENDBRANCH   1   2
BRANCH   1  19
ATOM     17  O   UNL     1      50.144   6.663  15.265  0.00  0.00    +0.000 OA
ATOM     18  C   UNL     1      49.010   6.888  15.676  0.00  0.00    +0.000 C 
ATOM     19  N   UNL     1      47.945   7.063  14.830  0.00  0.00    +0.000 N 
ATOM     20  H   UNL     1      47.084   7.455  15.194  0.00  0.00    +0.000 HD
BRANCH  18  21
ATOM     21  C   UNL     1      48.707   6.931  17.112  0.00  0.00    +0.000 A 
ATOM     22  C   UNL     1      48.272   8.113  17.696  0.00  0.00    +0.000 A 
ATOM     23  S   UNL     1      48.023   7.990  19.380  0.00  0.00    +0.000 S 
ATOM     24  C   UNL     1      48.433   6.338  19.376  0.00  0.00    +0.000 A 
ATOM     25  N   UNL     1      48.407   5.607  20.522  0.00  0.00    +0.000 NA
ATOM     26  C   UNL     1      48.702   4.358  20.365  0.00  0.00    +0.000 A 
ATOM     27  N   UNL     1      49.021   3.776  19.168  0.00  0.00    +0.000 N 
ATOM     28  C   UNL     1      49.100   4.482  17.992  0.00  0.00    +0.000 A 
ATOM     29  O   UNL     1      49.445   3.944  16.945  0.00  0.00    +0.000 OA
ATOM     30  C   UNL     1      48.765   5.889  18.111  0.00  0.00    +0.000 A 
ATOM     31  H   UNL     1      49.253   2.796  19.113  0.00  0.00    +0.000 HD
ENDBRANCH  18  21
ENDBRANCH   1  19
TORSDOF 6
ENDMDL
MODEL 3
REMARK VINA RESULT:    -7.519      2.282      2.765
REMARK INTER + INTRA:         -11.285
REMARK INTER:                 -10.557
REMARK INTRA:                  -0.728
REMARK UNBOUND:                -1.129
REMARK  Name = 
REMARK  6 active torsions:
REMARK  status: ('A' for Active; 'I' for Inactive)
REMARK    1  A    between atoms: C_2  and  C_20
REMARK    2  A    between atoms: N_3  and  C_4
REMARK    3  A    between atoms: C_4  and  C_5
REMARK    4  A    between atoms: C_8  and  C_9
REMARK    5  A    between atoms: C_9  and  O_10
REMARK    6  A    between atoms: O_10  and  C_11
REMARK                            x       y       z     vdW  Elec       q    Type
REMARK                         _______ _______ _______ _____ _____    ______ ____
ROOT
ATOM      1  C   UNL     1      47.858   6.931  13.754  0.00  0.00    +0.000 C 
ENDROOT
BRANCH   1   2
ATOM      2  C   UNL     1      46.929   6.061  12.948  0.00  0.00    +0.000 A 
ATOM      3  C   UNL     1      46.427   6.511  11.720  0.00  0.00    +0.000 A 
ATOM      4  C   UNL     1      45.568   5.709  10.964  0.00  0.00    +0.000 A 
ATOM      5  C   UNL     1      45.180   4.445  11.425  0.00  0.00    +0.000 A 
ATOM      6  C   UNL     1      45.655   4.006  12.668  0.00  0.00    +0.000 A 
ATOM      7  C   UNL     1      46.516   4.809  13.424  0.00  0.00    +0.000 A 
BRANCH   5   8
ATOM      8  C   UNL     1      44.268   3.578  10.589  0.00  0.00    +0.000 C 
BRANCH   8   9
ATOM      9  O   UNL     1      45.002   2.760   9.667  0.00  0.00    +0.000 OA
BRANCH   9  10
ATOM     10  C   UNL     1      45.206   3.309   8.439  0.00  0.00    +0.000 C 
ATOM     11  O   UNL     1      44.670   4.332   8.037  0.00  0.00    +0.000 OA
ATOM     12  N   UNL     1      46.097   2.585   7.700  0.00  0.00    +0.000 N 
ATOM     13  C   UNL     1      46.514   2.954   6.384  0.00  0.00    +0.000 C 
ATOM     14  C   UNL     1      47.758   2.117   6.212  0.00  0.00    +0.000 C 
ATOM     15  O   UNL     1      47.563   0.952   7.036  0.00  0.00    +0.000 OA
ATOM     16  C   UNL     1      46.541   1.260   7.995  0.00  0.00    +0.000 C 
ENDBRANCH   9  10
ENDBRANCH   8   9
ENDBRANCH   5   8
ENDBRANCH   1   2
BRANCH   1  19
ATOM     17  O   UNL     1      50.133   6.686  15.346  0.00  0.00    +0.000 OA
ATOM     18  C   UNL     1      49.036   6.490  15.860  0.00  0.00    +0.000 C 
ATOM     19  N   UNL     1      47.872   6.523  15.135  0.00  0.00    +0.000 N 
ATOM     20  H   UNL     1      46.986   6.570  15.626  0.00  0.00    +0.000 HD
BRANCH  18  21
ATOM     21  C   UNL     1      48.902   6.149  17.281  0.00  0.00    +0.000 A 
ATOM     22  C   UNL     1      49.307   4.903  17.739  0.00  0.00    +0.000 A 
ATOM     23  S   UNL     1      49.025   4.663  19.404  0.00  0.00    +0.000 S 
ATOM     24  C   UNL     1      48.404   6.237  19.582  0.00  0.00    +0.000 A 
ATOM     25  N   UNL     1      47.984   6.692  20.793  0.00  0.00    +0.000 NA
ATOM     26  C   UNL     1      47.574   7.918  20.789  0.00  0.00    +0.000 A 
ATOM     27  N   UNL     1      47.545   8.728  19.686  0.00  0.00    +0.000 N 
ATOM     28  C   UNL     1      47.920   8.300  18.436  0.00  0.00    +0.000 A 
ATOM     29  O   UNL     1      47.829   9.032  17.456  0.00  0.00    +0.000 OA
ATOM     30  C   UNL     1      48.401   6.932  18.387  0.00  0.00    +0.000 A 
ATOM     31  H   UNL     1      47.203   9.675  19.747  0.00  0.00    +0.000 HD
ENDBRANCH  18  21
ENDBRANCH   1  19
TORSDOF 6
ENDMDL
MODEL 4
REMARK VINA RESULT:    -7.315      1.885      2.433
REMARK INTER + INTRA:         -11.010
REMARK INTER:                  -9.898
REMARK INTRA:                  -1.112
REMARK UNBOUND:                -1.129
REMARK  Name = 
REMARK  6 active torsions:
REMARK  status: ('A' for Active; 'I' for Inactive)
REMARK    1  A    between atoms: C_2  and  C_20
REMARK    2  A    between atoms: N_3  and  C_4
REMARK    3  A    between atoms: C_4  and  C_5
REMARK    4  A    between atoms: C_8  and  C_9
REMARK    5  A    between atoms: C_9  and  O_10
REMARK    6  A    between atoms: O_10  and  C_11
REMARK                            x       y       z     vdW  Elec       q    Type
REMARK                         _______ _______ _______ _____ _____    ______ ____
ROOT
ATOM      1  C   UNL     1      48.750   7.048  13.601  0.00  0.00    +0.000 C 
ENDROOT
BRANCH   1   2
ATOM      2  C   UNL     1      47.354   6.515  13.406  0.00  0.00    +0.000 A 
ATOM      3  C   UNL     1      47.068   5.170  13.673  0.00  0.00    +0.000 A 
ATOM      4  C   UNL     1      45.776   4.668  13.498  0.00  0.00    +0.000 A 
ATOM      5  C   UNL     1      44.744   5.495  13.039  0.00  0.00    +0.000 A 
ATOM      6  C   UNL     1      45.035   6.834  12.741  0.00  0.00    +0.000 A 
ATOM      7  C   UNL     1      46.329   7.336  12.917  0.00  0.00    +0.000 A 
BRANCH   5   8
ATOM      8  C   UNL     1      43.346   4.947  12.874  0.00  0.00    +0.000 C 
BRANCH   8   9
ATOM      9  O   UNL     1      43.028   4.692  11.499  0.00  0.00    +0.000 OA
BRANCH   9  10
ATOM     10  C   UNL     1      43.419   3.478  11.028  0.00  0.00    +0.000 C 
ATOM     11  O   UNL     1      43.057   2.403  11.488  0.00  0.00    +0.000 OA
ATOM     12  N   UNL     1      44.265   3.594   9.963  0.00  0.00    +0.000 N 
ATOM     13  C   UNL     1      44.804   2.474   9.258  0.00  0.00    +0.000 C 
ATOM     14  C   UNL     1      45.284   3.119   7.980  0.00  0.00    +0.000 C 
ATOM     15  O   UNL     1      45.603   4.481   8.325  0.00  0.00    +0.000 OA
ATOM     16  C   UNL     1      44.932   4.789   9.556  0.00  0.00    +0.000 C 
ENDBRANCH   9  10
ENDBRANCH   8   9
ENDBRANCH   5   8
ENDBRANCH   1   2
BRANCH   1  19
ATOM     17  O   UNL     1      48.256   8.809  15.706  0.00  0.00    +0.000 OA
ATOM     18  C   UNL     1      48.840   7.757  15.948  0.00  0.00    +0.000 C 
ATOM     19  N   UNL     1      49.182   6.866  14.962  0.00  0.00    +0.000 N 
ATOM     20  H   UNL     1      49.463   5.927  15.222  0.00  0.00    +0.000 HD
BRANCH  18  21
ATOM     21  C   UNL     1      49.262   7.406  17.309  0.00  0.00    +0.000 A 
ATOM     22  C   UNL     1      50.065   8.277  18.034  0.00  0.00    +0.000 A 
ATOM     23  S   UNL     1      50.502   7.681  19.572  0.00  0.00    +0.000 S 
ATOM     24  C   UNL     1      49.585   6.265  19.345  0.00  0.00    +0.000 A 
ATOM     25  N   UNL     1      49.514   5.313  20.314  0.00  0.00    +0.000 NA
ATOM     26  C   UNL     1      48.751   4.312  20.022  0.00  0.00    +0.000 A 
ATOM     27  N   UNL     1      48.056   4.174  18.851  0.00  0.00    +0.000 N 
ATOM     28  C   UNL     1      48.129   5.089  17.828  0.00  0.00    +0.000 A 
ATOM     29  O   UNL     1      47.540   4.910  16.767  0.00  0.00    +0.000 OA
ATOM     30  C   UNL     1      48.965   6.242  18.110  0.00  0.00    +0.000 A 
ATOM     31  H   UNL     1      47.484   3.361  18.679  0.00  0.00    +0.000 HD
ENDBRANCH  18  21
ENDBRANCH   1  19
TORSDOF 6
ENDMDL
MODEL 5
REMARK VINA RESULT:    -7.138      4.856      9.244
REMARK INTER + INTRA:         -10.772
REMARK INTER:                  -9.994
REMARK INTRA:                  -0.777
REMARK UNBOUND:                -1.129
REMARK  Name = 
REMARK  6 active torsions:
REMARK  status: ('A' for Active; 'I' for Inactive)
REMARK    1  A    between atoms: C_2  and  C_20
REMARK    2  A    between atoms: N_3  and  C_4
REMARK    3  A    between atoms: C_4  and  C_5
REMARK    4  A    between atoms: C_8  and  C_9
REMARK    5  A    between atoms: C_9  and  O_10
REMARK    6  A    between atoms: O_10  and  C_11
REMARK                            x       y       z     vdW  Elec       q    Type
REMARK                         _______ _______ _______ _____ _____    ______ ____
ROOT
ATOM      1  C   UNL     1      47.144   3.444  16.824  0.00  0.00    +0.000 C 
ENDROOT
BRANCH   1   2
ATOM      2  C   UNL     1      48.616   3.463  17.145  0.00  0.00    +0.000 A 
ATOM      3  C   UNL     1      49.381   2.296  17.023  0.00  0.00    +0.000 A 
ATOM      4  C   UNL     1      50.747   2.305  17.315  0.00  0.00    +0.000 A 
ATOM      5  C   UNL     1      51.377   3.479  17.748  0.00  0.00    +0.000 A 
ATOM      6  C   UNL     1      50.608   4.640  17.901  0.00  0.00    +0.000 A 
ATOM      7  C   UNL     1      49.240   4.630  17.608  0.00  0.00    +0.000 A 
BRANCH   5   8
ATOM      8  C   UNL     1      52.859   3.483  18.040  0.00  0.00    +0.000 C 
BRANCH   8   9
ATOM      9  O   UNL     1      53.509   2.306  17.540  0.00  0.00    +0.000 OA
BRANCH   9  10
ATOM     10  C   UNL     1      54.048   1.493  18.488  0.00  0.00    +0.000 C 
ATOM     11  O   UNL     1      54.180   1.792  19.668  0.00  0.00    +0.000 OA
ATOM     12  N   UNL     1      54.419   0.286  17.972  0.00  0.00    +0.000 N 
ATOM     13  C   UNL     1      54.986  -0.767  18.754  0.00  0.00    +0.000 C 
ATOM     14  C   UNL     1      54.809  -1.956  17.842  0.00  0.00    +0.000 C 
ATOM     15  O   UNL     1      54.826  -1.428  16.502  0.00  0.00    +0.000 OA
ATOM     16  C   UNL     1      54.546  -0.022  16.583  0.00  0.00    +0.000 C 
ENDBRANCH   9  10
ENDBRANCH   8   9
ENDBRANCH   5   8
ENDBRANCH   1   2
BRANCH   1  19
ATOM     17  O   UNL     1      47.245   3.048  14.066  0.00  0.00    +0.000 OA
ATOM     18  C   UNL     1      46.843   4.129  14.488  0.00  0.00    +0.000 C 
ATOM     19  N   UNL     1      46.825   4.431  15.825  0.00  0.00    +0.000 N 
ATOM     20  H   UNL     1      46.294   5.235  16.143  0.00  0.00    +0.000 HD
BRANCH  18  21
ATOM     21  C   UNL     1      46.405   5.195  13.579  0.00  0.00    +0.000 A 
ATOM     22  C   UNL     1      47.271   6.230  13.252  0.00  0.00    +0.000 A 
ATOM     23  S   UNL     1      46.575   7.406  12.231  0.00  0.00    +0.000 S 
ATOM     24  C   UNL     1      45.111   6.543  12.144  0.00  0.00    +0.000 A 
ATOM     25  N   UNL     1      44.070   7.002  11.399  0.00  0.00    +0.000 NA
ATOM     26  C   UNL     1      43.036   6.227  11.392  0.00  0.00    +0.000 A 
ATOM     27  N   UNL     1      42.948   5.036  12.062  0.00  0.00    +0.000 N 
ATOM     28  C   UNL     1      43.957   4.552  12.859  0.00  0.00    +0.000 A 
ATOM     29  O   UNL     1      43.828   3.510  13.493  0.00  0.00    +0.000 OA
ATOM     30  C   UNL     1      45.149   5.381  12.892  0.00  0.00    +0.000 A 
ATOM     31  H   UNL     1      42.107   4.481  12.025  0.00  0.00    +0.000 HD
ENDBRANCH  18  21
ENDBRANCH   1  19
TORSDOF 6
ENDMDL
MODEL 6
REMARK VINA RESULT:    -7.079      2.589      3.795
REMARK INTER + INTRA:         -10.691
REMARK INTER:                  -9.736
REMARK INTRA:                  -0.955
REMARK UNBOUND:                -1.129
REMARK  Name = 
REMARK  6 active torsions:
REMARK  status: ('A' for Active; 'I' for Inactive)
REMARK    1  A    between atoms: C_2  and  C_20
REMARK    2  A    between atoms: N_3  and  C_4
REMARK    3  A    between atoms: C_4  and  C_5
REMARK    4  A    between atoms: C_8  and  C_9
REMARK    5  A    between atoms: C_9  and  O_10
REMARK    6  A    between atoms: O_10  and  C_11
REMARK                            x       y       z     vdW  Elec       q    Type
REMARK                         _______ _______ _______ _____ _____    ______ ____
ROOT
ATOM      1  C   UNL     1      47.650   4.002  15.630  0.00  0.00    +0.000 C 
ENDROOT
BRANCH   1   2
ATOM      2  C   UNL     1      46.963   4.357  14.338  0.00  0.00    +0.000 A 
ATOM      3  C   UNL     1      46.292   3.372  13.601  0.00  0.00    +0.000 A 
ATOM      4  C   UNL     1      45.648   3.693  12.403  0.00  0.00    +0.000 A 
ATOM      5  C   UNL     1      45.673   5.003  11.908  0.00  0.00    +0.000 A 
ATOM      6  C   UNL     1      46.371   5.983  12.626  0.00  0.00    +0.000 A 
ATOM      7  C   UNL     1      47.014   5.661  13.827  0.00  0.00    +0.000 A 
BRANCH   5   8
ATOM      8  C   UNL     1      44.956   5.343  10.622  0.00  0.00    +0.000 C 
BRANCH   8   9
ATOM      9  O   UNL     1      44.814   4.200   9.767  0.00  0.00    +0.000 OA
BRANCH   9  10
ATOM     10  C   UNL     1      45.676   4.152   8.715  0.00  0.00    +0.000 C 
ATOM     11  O   UNL     1      46.160   5.132   8.167  0.00  0.00    +0.000 OA
ATOM     12  N   UNL     1      45.951   2.868   8.342  0.00  0.00    +0.000 N 
ATOM     13  C   UNL     1      46.849   2.529   7.283  0.00  0.00    +0.000 C 
ATOM     14  C   UNL     1      47.117   1.071   7.565  0.00  0.00    +0.000 C 
ATOM     15  O   UNL     1      45.938   0.577   8.230  0.00  0.00    +0.000 OA
ATOM     16  C   UNL     1      45.223   1.709   8.749  0.00  0.00    +0.000 C 
ENDBRANCH   9  10
ENDBRANCH   8   9
ENDBRANCH   5   8
ENDBRANCH   1   2
BRANCH   1  19
ATOM     17  O   UNL     1      49.765   5.464  16.709  0.00  0.00    +0.000 OA
ATOM     18  C   UNL     1      48.619   5.778  17.018  0.00  0.00    +0.000 C 
ATOM     19  N   UNL     1      47.525   5.071  16.587  0.00  0.00    +0.000 N 
ATOM     20  H   UNL     1      46.603   5.481  16.684  0.00  0.00    +0.000 HD
BRANCH  18  21
ATOM     21  C   UNL     1      48.346   6.903  17.920  0.00  0.00    +0.000 A 
ATOM     22  C   UNL     1      48.177   6.680  19.280  0.00  0.00    +0.000 A 
ATOM     23  S   UNL     1      47.812   8.093  20.163  0.00  0.00    +0.000 S 
ATOM     24  C   UNL     1      47.923   9.061  18.767  0.00  0.00    +0.000 A 
ATOM     25  N   UNL     1      47.732  10.406  18.830  0.00  0.00    +0.000 NA
ATOM     26  C   UNL     1      47.886  11.019  17.703  0.00  0.00    +0.000 A 
ATOM     27  N   UNL     1      48.211  10.411  16.520  0.00  0.00    +0.000 N 
ATOM     28  C   UNL     1      48.373   9.052  16.400  0.00  0.00    +0.000 A 
ATOM     29  O   UNL     1      48.607   8.528  15.316  0.00  0.00    +0.000 OA
ATOM     30  C   UNL     1      48.223   8.315  17.642  0.00  0.00    +0.000 A 
ATOM     31  H   UNL     1      48.306  10.945  15.670  0.00  0.00    +0.000 HD
ENDBRANCH  18  21
ENDBRANCH   1  19
TORSDOF 6
ENDMDL
MODEL 7
REMARK VINA RESULT:    -7.026      2.803      8.155
REMARK INTER + INTRA:         -10.620
REMARK INTER:                  -9.320
REMARK INTRA:                  -1.300
REMARK UNBOUND:                -1.129
REMARK  Name = 
REMARK  6 active torsions:
REMARK  status: ('A' for Active; 'I' for Inactive)
REMARK    1  A    between atoms: C_2  and  C_20
REMARK    2  A    between atoms: N_3  and  C_4
REMARK    3  A    between atoms: C_4  and  C_5
REMARK    4  A    between atoms: C_8  and  C_9
REMARK    5  A    between atoms: C_9  and  O_10
REMARK    6  A    between atoms: O_10  and  C_11
REMARK                            x       y       z     vdW  Elec       q    Type
REMARK                         _______ _______ _______ _____ _____    ______ ____
ROOT
ATOM      1  C   UNL     1      47.601   7.796  11.763  0.00  0.00    +0.000 C 
ENDROOT
BRANCH   1   2
ATOM      2  C   UNL     1      48.182   7.946  13.145  0.00  0.00    +0.000 A 
ATOM      3  C   UNL     1      47.633   8.869  14.045  0.00  0.00    +0.000 A 
ATOM      4  C   UNL     1      48.163   9.012  15.330  0.00  0.00    +0.000 A 
ATOM      5  C   UNL     1      49.262   8.246  15.739  0.00  0.00    +0.000 A 
ATOM      6  C   UNL     1      49.832   7.345  14.830  0.00  0.00    +0.000 A 
ATOM      7  C   UNL     1      49.301   7.201  13.543  0.00  0.00    +0.000 A 
BRANCH   5   8
ATOM      8  C   UNL     1      49.812   8.394  17.138  0.00  0.00    +0.000 C 
BRANCH   8   9
ATOM      9  O   UNL     1      49.828   7.145  17.844  0.00  0.00    +0.000 OA
BRANCH   9  10
ATOM     10  C   UNL     1      48.604   6.636  18.150  0.00  0.00    +0.000 C 
ATOM     11  O   UNL     1      47.724   7.246  18.743  0.00  0.00    +0.000 OA
ATOM     12  N   UNL     1      48.461   5.353  17.706  0.00  0.00    +0.000 N 
ATOM     13  C   UNL     1      47.264   4.590  17.868  0.00  0.00    +0.000 C 
ATOM     14  C   UNL     1      47.472   3.477  16.871  0.00  0.00    +0.000 C 
ATOM     15  O   UNL     1      48.899   3.307  16.767  0.00  0.00    +0.000 OA
ATOM     16  C   UNL     1      49.519   4.503  17.261  0.00  0.00    +0.000 C 
ENDBRANCH   9  10
ENDBRANCH   8   9
ENDBRANCH   5   8
ENDBRANCH   1   2
BRANCH   1  19
ATOM     17  O   UNL     1      44.826   7.542  11.833  0.00  0.00    +0.000 OA
ATOM     18  C   UNL     1      45.501   6.537  11.629  0.00  0.00    +0.000 C 
ATOM     19  N   UNL     1      46.872   6.560  11.645  0.00  0.00    +0.000 N 
ATOM     20  H   UNL     1      47.383   5.771  11.265  0.00  0.00    +0.000 HD
BRANCH  18  21
ATOM     21  C   UNL     1      44.879   5.226  11.409  0.00  0.00    +0.000 A 
ATOM     22  C   UNL     1      44.087   4.656  12.397  0.00  0.00    +0.000 A 
ATOM     23  S   UNL     1      43.496   3.108  11.989  0.00  0.00    +0.000 S 
ATOM     24  C   UNL     1      44.231   3.171  10.455  0.00  0.00    +0.000 A 
ATOM     25  N   UNL     1      44.100   2.144   9.574  0.00  0.00    +0.000 NA
ATOM     26  C   UNL     1      44.677   2.343   8.434  0.00  0.00    +0.000 A 
ATOM     27  N   UNL     1      45.373   3.473   8.097  0.00  0.00    +0.000 N 
ATOM     28  C   UNL     1      45.565   4.517   8.969  0.00  0.00    +0.000 A 
ATOM     29  O   UNL     1      46.242   5.492   8.659  0.00  0.00    +0.000 OA
ATOM     30  C   UNL     1      44.927   4.350  10.261  0.00  0.00    +0.000 A 
ATOM     31  H   UNL     1      45.810   3.563   7.193  0.00  0.00    +0.000 HD
ENDBRANCH  18  21
ENDBRANCH   1  19
TORSDOF 6
ENDMDL
MODEL 8
REMARK VINA RESULT:    -6.865      1.758      2.470
REMARK INTER + INTRA:         -10.402
REMARK INTER:                  -9.536
REMARK INTRA:                  -0.867
REMARK UNBOUND:                -1.129
REMARK  Name = 
REMARK  6 active torsions:
REMARK  status: ('A' for Active; 'I' for Inactive)
REMARK    1  A    between atoms: C_2  and  C_20
REMARK    2  A    between atoms: N_3  and  C_4
REMARK    3  A    between atoms: C_4  and  C_5
REMARK    4  A    between atoms: C_8  and  C_9
REMARK    5  A    between atoms: C_9  and  O_10
REMARK    6  A    between atoms: O_10  and  C_11
REMARK                            x       y       z     vdW  Elec       q    Type
REMARK                         _______ _______ _______ _____ _____    ______ ____
ROOT
ATOM      1  C   UNL     1      47.652   7.281  13.662  0.00  0.00    +0.000 C 
ENDROOT
BRANCH   1   2
ATOM      2  C   UNL     1      46.623   6.567  12.824  0.00  0.00    +0.000 A 
ATOM      3  C   UNL     1      46.031   7.213  11.730  0.00  0.00    +0.000 A 
ATOM      4  C   UNL     1      45.080   6.557  10.945  0.00  0.00    +0.000 A 
ATOM      5  C   UNL     1      44.688   5.246  11.244  0.00  0.00    +0.000 A 
ATOM      6  C   UNL     1      45.255   4.610  12.356  0.00  0.00    +0.000 A 
ATOM      7  C   UNL     1      46.209   5.267  13.141  0.00  0.00    +0.000 A 
BRANCH   5   8
ATOM      8  C   UNL     1      43.674   4.539  10.375  0.00  0.00    +0.000 C 
BRANCH   8   9
ATOM      9  O   UNL     1      44.239   4.116   9.126  0.00  0.00    +0.000 OA
BRANCH   9  10
ATOM     10  C   UNL     1      44.715   2.842   9.106  0.00  0.00    +0.000 C 
ATOM     11  O   UNL     1      44.273   1.923   9.783  0.00  0.00    +0.000 OA
ATOM     12  N   UNL     1      45.749   2.700   8.227  0.00  0.00    +0.000 N 
ATOM     13  C   UNL     1      46.415   1.459   7.986  0.00  0.00    +0.000 C 
ATOM     14  C   UNL     1      47.130   1.742   6.687  0.00  0.00    +0.000 C 
ATOM     15  O   UNL     1      47.375   3.161   6.677  0.00  0.00    +0.000 OA
ATOM     16  C   UNL     1      46.480   3.767   7.622  0.00  0.00    +0.000 C 
ENDBRANCH   9  10
ENDBRANCH   8   9
ENDBRANCH   5   8
ENDBRANCH   1   2
BRANCH   1  19
ATOM     17  O   UNL     1      48.677   8.041  16.141  0.00  0.00    +0.000 OA
ATOM     18  C   UNL     1      48.649   6.846  15.860  0.00  0.00    +0.000 C 
ATOM     19  N   UNL     1      48.224   6.391  14.638  0.00  0.00    +0.000 N 
ATOM     20  H   UNL     1      48.015   5.406  14.524  0.00  0.00    +0.000 HD
BRANCH  18  21
ATOM     21  C   UNL     1      49.125   5.824  16.800  0.00  0.00    +0.000 A 
ATOM     22  C   UNL     1      48.214   5.014  17.465  0.00  0.00    +0.000 A 
ATOM     23  S   UNL     1      48.942   3.924  18.558  0.00  0.00    +0.000 S 
ATOM     24  C   UNL     1      50.502   4.458  18.137  0.00  0.00    +0.000 A 
ATOM     25  N   UNL     1      51.608   3.911  18.708  0.00  0.00    +0.000 NA
ATOM     26  C   UNL     1      52.727   4.384  18.266  0.00  0.00    +0.000 A 
ATOM     27  N   UNL     1      52.840   5.355  17.307  0.00  0.00    +0.000 N 
ATOM     28  C   UNL     1      51.751   5.965  16.732  0.00  0.00    +0.000 A 
ATOM     29  O   UNL     1      51.884   6.873  15.918  0.00  0.00    +0.000 OA
ATOM     30  C   UNL     1      50.468   5.461  17.186  0.00  0.00    +0.000 A 
ATOM     31  H   UNL     1      53.744   5.690  17.012  0.00  0.00    +0.000 HD
ENDBRANCH  18  21
ENDBRANCH   1  19
TORSDOF 6
ENDMDL
MODEL 9
REMARK VINA RESULT:    -6.654      2.483      3.568
REMARK INTER + INTRA:         -10.117
REMARK INTER:                  -9.106
REMARK INTRA:                  -1.010
REMARK UNBOUND:                -1.129
REMARK  Name = 
REMARK  6 active torsions:
REMARK  status: ('A' for Active; 'I' for Inactive)
REMARK    1  A    between atoms: C_2  and  C_20
REMARK    2  A    between atoms: N_3  and  C_4
REMARK    3  A    between atoms: C_4  and  C_5
REMARK    4  A    between atoms: C_8  and  C_9
REMARK    5  A    between atoms: C_9  and  O_10
REMARK    6  A    between atoms: O_10  and  C_11
REMARK                            x       y       z     vdW  Elec       q    Type
REMARK                         _______ _______ _______ _____ _____    ______ ____
ROOT
ATOM      1  C   UNL     1      48.910   7.577  13.145  0.00  0.00    +0.000 C 
ENDROOT
BRANCH   1   2
ATOM      2  C   UNL     1      47.545   6.945  13.059  0.00  0.00    +0.000 A 
ATOM      3  C   UNL     1      47.393   5.565  13.246  0.00  0.00    +0.000 A 
ATOM      4  C   UNL     1      46.130   4.971  13.172  0.00  0.00    +0.000 A 
ATOM      5  C   UNL     1      44.994   5.740  12.895  0.00  0.00    +0.000 A 
ATOM      6  C   UNL     1      45.148   7.116  12.676  0.00  0.00    +0.000 A 
ATOM      7  C   UNL     1      46.412   7.711  12.751  0.00  0.00    +0.000 A 
BRANCH   5   8
ATOM      8  C   UNL     1      43.631   5.091  12.839  0.00  0.00    +0.000 C 
BRANCH   8   9
ATOM      9  O   UNL     1      43.202   4.858  11.489  0.00  0.00    +0.000 OA
BRANCH   9  10
ATOM     10  C   UNL     1      43.499   3.628  10.990  0.00  0.00    +0.000 C 
ATOM     11  O   UNL     1      43.087   2.572  11.451  0.00  0.00    +0.000 OA
ATOM     12  N   UNL     1      44.311   3.705   9.896  0.00  0.00    +0.000 N 
ATOM     13  C   UNL     1      44.754   2.564   9.159  0.00  0.00    +0.000 C 
ATOM     14  C   UNL     1      45.227   3.196   7.872  0.00  0.00    +0.000 C 
ATOM     15  O   UNL     1      45.644   4.530   8.222  0.00  0.00    +0.000 OA
ATOM     16  C   UNL     1      45.039   4.862   9.480  0.00  0.00    +0.000 C 
ENDBRANCH   9  10
ENDBRANCH   8   9
ENDBRANCH   5   8
ENDBRANCH   1   2
BRANCH   1  19
ATOM     17  O   UNL     1      48.824   8.158  15.870  0.00  0.00    +0.000 OA
ATOM     18  C   UNL     1      49.553   7.247  15.488  0.00  0.00    +0.000 C 
ATOM     19  N   UNL     1      49.706   6.940  14.160  0.00  0.00    +0.000 N 
ATOM     20  H   UNL     1      50.140   6.059  13.904  0.00  0.00    +0.000 HD
BRANCH  18  21
ATOM     21  C   UNL     1      50.357   6.459  16.430  0.00  0.00    +0.000 A 
ATOM     22  C   UNL     1      49.733   5.633  17.355  0.00  0.00    +0.000 A 
ATOM     23  S   UNL     1      50.820   4.839  18.403  0.00  0.00    +0.000 S 
ATOM     24  C   UNL     1      52.165   5.527  17.620  0.00  0.00    +0.000 A 
ATOM     25  N   UNL     1      53.432   5.241  18.021  0.00  0.00    +0.000 NA
ATOM     26  C   UNL     1      54.356   5.802  17.312  0.00  0.00    +0.000 A 
ATOM     27  N   UNL     1      54.128   6.623  16.241  0.00  0.00    +0.000 N 
ATOM     28  C   UNL     1      52.866   6.974  15.825  0.00  0.00    +0.000 A 
ATOM     29  O   UNL     1      52.693   7.758  14.898  0.00  0.00    +0.000 OA
ATOM     30  C   UNL     1      51.790   6.360  16.582  0.00  0.00    +0.000 A 
ATOM     31  H   UNL     1      54.894   7.040  15.734  0.00  0.00    +0.000 HD
ENDBRANCH  18  21
ENDBRANCH   1  19
TORSDOF 6
ENDMDL
