MODEL 1
REMARK VINA RESULT:    -7.506      0.000      0.000
REMARK INTER + INTRA:          -9.111
REMARK INTER:                  -8.822
REMARK INTRA:                  -0.289
REMARK UNBOUND:                -0.289
REMARK  Name = 
REMARK  3 active torsions:
REMARK  status: ('A' for Active; 'I' for Inactive)
REMARK    1  A    between atoms: C_11  and  C_12
REMARK    2  A    between atoms: C_12  and  O_13
REMARK    3  A    between atoms: O_13  and  C_14
REMARK                            x       y       z     vdW  Elec       q    Type
REMARK                         _______ _______ _______ _____ _____    ______ ____
ROOT
ATOM      1  F   UNL     1      50.234   7.920  12.870  0.00  0.00    +0.000 F 
ATOM      2  C   UNL     1      48.991   8.429  13.088  0.00  0.00    +0.000 C 
ATOM      3  F   UNL     1      49.180   9.690  13.560  0.00  0.00    +0.000 F 
ATOM      4  C   UNL     1      48.300   7.602  14.157  0.00  0.00    +0.000 C 
ATOM      5  C   UNL     1      47.984   6.228  13.598  0.00  0.00    +0.000 C 
ATOM      6  N   UNL     1      47.204   6.411  12.380  0.00  0.00    +0.000 N 
ATOM      7  C   UNL     1      46.010   5.757  12.146  0.00  0.00    +0.000 A 
ATOM      8  C   UNL     1      45.144   5.466  13.185  0.00  0.00    +0.000 A 
ATOM      9  C   UNL     1      43.957   4.845  12.875  0.00  0.00    +0.000 A 
ATOM     10  N   UNL     1      43.609   4.500  11.631  0.00  0.00    +0.000 NA
ATOM     11  C   UNL     1      44.492   4.819  10.666  0.00  0.00    +0.000 A 
ATOM     12  N   UNL     1      45.673   5.444  10.883  0.00  0.00    +0.000 NA
ATOM     13  C   UNL     1      47.901   7.089  11.288  0.00  0.00    +0.000 C 
ATOM     14  C   UNL     1      48.243   8.495  11.770  0.00  0.00    +0.000 C 
ENDROOT
BRANCH  11  15
ATOM     15  C   UNL     1      44.169   4.371   9.257  0.00  0.00    +0.000 C 
BRANCH  15  16
ATOM     16  O   UNL     1      45.283   4.565   8.379  0.00  0.00    +0.000 OA
BRANCH  16  17
ATOM     17  C   UNL     1      45.946   3.435   7.993  0.00  0.00    +0.000 A 
ATOM     18  C   UNL     1      46.961   3.357   7.040  0.00  0.00    +0.000 A 
ATOM     19  C   UNL     1      47.544   2.123   6.748  0.00  0.00    +0.000 A 
ATOM     20  C   UNL     1      47.088   1.002   7.418  0.00  0.00    +0.000 A 
ATOM     21  N   UNL     1      46.108   1.032   8.345  0.00  0.00    +0.000 NA
ATOM     22  C   UNL     1      45.563   2.248   8.608  0.00  0.00    +0.000 A 
ENDBRANCH  16  17
ENDBRANCH  15  16
ENDBRANCH  11  15
TORSDOF 3
ENDMDL
MODEL 2
REMARK VINA RESULT:    -7.311      3.543      4.474
REMARK INTER + INTRA:          -8.883
REMARK INTER:                  -8.666
REMARK INTRA:                  -0.217
REMARK UNBOUND:                -0.289
REMARK  Name = 
REMARK  3 active torsions:
REMARK  status: ('A' for Active; 'I' for Inactive)
REMARK    1  A    between atoms: C_11  and  C_12
REMARK    2  A    between atoms: C_12  and  O_13
REMARK    3  A    between atoms: O_13  and  C_14
REMARK                            x       y       z     vdW  Elec       q    Type
REMARK                         _______ _______ _______ _____ _____    ______ ____
ROOT
ATOM      1  F   UNL     1      48.898   3.153  18.891  0.00  0.00    +0.000 F 
ATOM      2  C   UNL     1      49.590   3.383  17.742  0.00  0.00    +0.000 C 
ATOM      3  F   UNL     1      50.885   3.076  18.017  0.00  0.00    +0.000 F 
ATOM      4  C   UNL     1      49.496   4.858  17.398  0.00  0.00    +0.000 C 
ATOM      5  C   UNL     1      48.075   5.184  16.980  0.00  0.00    +0.000 C 
ATOM      6  N   UNL     1      47.715   4.287  15.888  0.00  0.00    +0.000 N 
ATOM      7  C   UNL     1      47.178   4.731  14.697  0.00  0.00    +0.000 A 
ATOM      8  C   UNL     1      47.549   5.951  14.160  0.00  0.00    +0.000 A 
ATOM      9  C   UNL     1      47.001   6.314  12.953  0.00  0.00    +0.000 A 
ATOM     10  N   UNL     1      46.124   5.558  12.284  0.00  0.00    +0.000 NA
ATOM     11  C   UNL     1      45.811   4.379  12.856  0.00  0.00    +0.000 A 
ATOM     12  N   UNL     1      46.316   3.940  14.032  0.00  0.00    +0.000 NA
ATOM     13  C   UNL     1      47.668   2.868  16.236  0.00  0.00    +0.000 C 
ATOM     14  C   UNL     1      49.075   2.456  16.657  0.00  0.00    +0.000 C 
ENDROOT
BRANCH  11  15
ATOM     15  C   UNL     1      44.760   3.535  12.170  0.00  0.00    +0.000 C 
BRANCH  15  16
ATOM     16  O   UNL     1      44.346   4.122  10.931  0.00  0.00    +0.000 OA
BRANCH  16  17
ATOM     17  C   UNL     1      44.959   3.645   9.808  0.00  0.00    +0.000 A 
ATOM     18  C   UNL     1      45.143   2.303   9.472  0.00  0.00    +0.000 A 
ATOM     19  C   UNL     1      45.795   1.969   8.285  0.00  0.00    +0.000 A 
ATOM     20  C   UNL     1      46.247   2.991   7.469  0.00  0.00    +0.000 A 
ATOM     21  N   UNL     1      46.092   4.300   7.755  0.00  0.00    +0.000 NA
ATOM     22  C   UNL     1      45.453   4.592   8.917  0.00  0.00    +0.000 A 
ENDBRANCH  16  17
ENDBRANCH  15  16
ENDBRANCH  11  15
TORSDOF 3
ENDMDL
MODEL 3
REMARK VINA RESULT:    -6.827      5.150      7.835
REMARK INTER + INTRA:          -8.314
REMARK INTER:                  -8.005
REMARK INTRA:                  -0.309
REMARK UNBOUND:                -0.289
REMARK  Name = 
REMARK  3 active torsions:
REMARK  status: ('A' for Active; 'I' for Inactive)
REMARK    1  A    between atoms: C_11  and  C_12
REMARK    2  A    between atoms: C_12  and  O_13
REMARK    3  A    between atoms: O_13  and  C_14
REMARK                            x       y       z     vdW  Elec       q    Type
REMARK                         _______ _______ _______ _____ _____    ______ ____
ROOT
ATOM      1  F   UNL     1      43.012   4.098  10.762  0.00  0.00    +0.000 F 
ATOM      2  C   UNL     1      43.070   5.172  11.596  0.00  0.00    +0.000 C 
ATOM      3  F   UNL     1      41.915   5.862  11.399  0.00  0.00    +0.000 F 
ATOM      4  C   UNL     1      44.242   6.047  11.192  0.00  0.00    +0.000 C 
ATOM      5  C   UNL     1      45.537   5.327  11.515  0.00  0.00    +0.000 C 
ATOM      6  N   UNL     1      45.509   4.974  12.930  0.00  0.00    +0.000 N 
ATOM      7  C   UNL     1      46.541   5.267  13.798  0.00  0.00    +0.000 A 
ATOM      8  C   UNL     1      47.292   6.419  13.647  0.00  0.00    +0.000 A 
ATOM      9  C   UNL     1      48.281   6.666  14.569  0.00  0.00    +0.000 A 
ATOM     10  N   UNL     1      48.559   5.846  15.589  0.00  0.00    +0.000 NA
ATOM     11  C   UNL     1      47.787   4.748  15.685  0.00  0.00    +0.000 A 
ATOM     12  N   UNL     1      46.784   4.439  14.830  0.00  0.00    +0.000 NA
ATOM     13  C   UNL     1      44.467   4.023  13.315  0.00  0.00    +0.000 C 
ATOM     14  C   UNL     1      43.122   4.685  13.032  0.00  0.00    +0.000 C 
ENDROOT
BRANCH  11  15
ATOM     15  C   UNL     1      48.125   3.757  16.777  0.00  0.00    +0.000 C 
BRANCH  15  16
ATOM     16  O   UNL     1      49.195   4.234  17.600  0.00  0.00    +0.000 OA
BRANCH  16  17
ATOM     17  C   UNL     1      50.302   3.436  17.667  0.00  0.00    +0.000 A 
ATOM     18  C   UNL     1      51.538   3.780  18.213  0.00  0.00    +0.000 A 
ATOM     19  C   UNL     1      52.581   2.854  18.206  0.00  0.00    +0.000 A 
ATOM     20  C   UNL     1      52.355   1.609  17.645  0.00  0.00    +0.000 A 
ATOM     21  N   UNL     1      51.177   1.235  17.104  0.00  0.00    +0.000 NA
ATOM     22  C   UNL     1      50.182   2.159  17.129  0.00  0.00    +0.000 A 
ENDBRANCH  16  17
ENDBRANCH  15  16
ENDBRANCH  11  15
TORSDOF 3
ENDMDL
MODEL 4
REMARK VINA RESULT:    -6.794      3.507      6.541
REMARK INTER + INTRA:          -8.275
REMARK INTER:                  -7.973
REMARK INTRA:                  -0.302
REMARK UNBOUND:                -0.289
REMARK  Name = 
REMARK  3 active torsions:
REMARK  status: ('A' for Active; 'I' for Inactive)
REMARK    1  A    between atoms: C_11  and  C_12
REMARK    2  A    between atoms: C_12  and  O_13
REMARK    3  A    between atoms: O_13  and  C_14
REMARK                            x       y       z     vdW  Elec       q    Type
REMARK                         _______ _______ _______ _____ _____    ______ ____
ROOT
ATOM      1  F   UNL     1      46.029   2.233   5.862  0.00  0.00    +0.000 F 
ATOM      2  C   UNL     1      46.813   2.112   6.968  0.00  0.00    +0.000 C 
ATOM      3  F   UNL     1      47.907   1.408   6.577  0.00  0.00    +0.000 F 
ATOM      4  C   UNL     1      46.062   1.315   8.018  0.00  0.00    +0.000 C 
ATOM      5  C   UNL     1      44.904   2.143   8.541  0.00  0.00    +0.000 C 
ATOM      6  N   UNL     1      45.443   3.411   9.019  0.00  0.00    +0.000 N 
ATOM      7  C   UNL     1      45.160   3.924  10.269  0.00  0.00    +0.000 A 
ATOM      8  C   UNL     1      44.971   3.089  11.355  0.00  0.00    +0.000 A 
ATOM      9  C   UNL     1      44.728   3.670  12.577  0.00  0.00    +0.000 A 
ATOM     10  N   UNL     1      44.653   4.992  12.762  0.00  0.00    +0.000 NA
ATOM     11  C   UNL     1      44.854   5.749  11.667  0.00  0.00    +0.000 A 
ATOM     12  N   UNL     1      45.114   5.259  10.433  0.00  0.00    +0.000 NA
ATOM     13  C   UNL     1      46.051   4.256   7.993  0.00  0.00    +0.000 C 
ATOM     14  C   UNL     1      47.244   3.494   7.424  0.00  0.00    +0.000 C 
ENDROOT
BRANCH  11  15
ATOM     15  C   UNL     1      44.694   7.246  11.822  0.00  0.00    +0.000 C 
BRANCH  15  16
ATOM     16  O   UNL     1      45.471   7.743  12.917  0.00  0.00    +0.000 OA
BRANCH  16  17
ATOM     17  C   UNL     1      46.827   7.693  12.761  0.00  0.00    +0.000 A 
ATOM     18  C   UNL     1      47.577   8.391  11.815  0.00  0.00    +0.000 A 
ATOM     19  C   UNL     1      48.962   8.234  11.777  0.00  0.00    +0.000 A 
ATOM     20  C   UNL     1      49.556   7.376  12.686  0.00  0.00    +0.000 A 
ATOM     21  N   UNL     1      48.869   6.680  13.615  0.00  0.00    +0.000 NA
ATOM     22  C   UNL     1      47.523   6.857  13.628  0.00  0.00    +0.000 A 
ENDBRANCH  16  17
ENDBRANCH  15  16
ENDBRANCH  11  15
TORSDOF 3
ENDMDL
MODEL 5
REMARK VINA RESULT:    -6.539      1.961      2.431
REMARK INTER + INTRA:          -7.975
REMARK INTER:                  -7.582
REMARK INTRA:                  -0.393
REMARK UNBOUND:                -0.289
REMARK  Name = 
REMARK  3 active torsions:
REMARK  status: ('A' for Active; 'I' for Inactive)
REMARK    1  A    between atoms: C_11  and  C_12
REMARK    2  A    between atoms: C_12  and  O_13
REMARK    3  A    between atoms: O_13  and  C_14
REMARK                            x       y       z     vdW  Elec       q    Type
REMARK                         _______ _______ _______ _____ _____    ______ ____
ROOT
ATOM      1  F   UNL     1      47.423   8.520  12.370  0.00  0.00    +0.000 F 
ATOM      2  C   UNL     1      46.079   8.448  12.165  0.00  0.00    +0.000 C 
ATOM      3  F   UNL     1      45.623   9.728  12.216  0.00  0.00    +0.000 F 
ATOM      4  C   UNL     1      45.450   7.655  13.296  0.00  0.00    +0.000 C 
ATOM      5  C   UNL     1      45.866   6.201  13.177  0.00  0.00    +0.000 C 
ATOM      6  N   UNL     1      45.500   5.741  11.842  0.00  0.00    +0.000 N 
ATOM      7  C   UNL     1      44.779   4.585  11.618  0.00  0.00    +0.000 A 
ATOM      8  C   UNL     1      43.806   4.170  12.509  0.00  0.00    +0.000 A 
ATOM      9  C   UNL     1      43.102   3.029  12.204  0.00  0.00    +0.000 A 
ATOM     10  N   UNL     1      43.319   2.301  11.103  0.00  0.00    +0.000 NA
ATOM     11  C   UNL     1      44.273   2.764  10.273  0.00  0.00    +0.000 A 
ATOM     12  N   UNL     1      45.000   3.885  10.491  0.00  0.00    +0.000 NA
ATOM     13  C   UNL     1      46.198   6.402  10.741  0.00  0.00    +0.000 C 
ATOM     14  C   UNL     1      45.817   7.878  10.783  0.00  0.00    +0.000 C 
ENDROOT
BRANCH  11  15
ATOM     15  C   UNL     1      44.603   1.922   9.060  0.00  0.00    +0.000 C 
BRANCH  15  16
ATOM     16  O   UNL     1      46.018   1.772   8.899  0.00  0.00    +0.000 OA
BRANCH  16  17
ATOM     17  C   UNL     1      46.522   2.119   7.678  0.00  0.00    +0.000 A 
ATOM     18  C   UNL     1      46.162   3.235   6.922  0.00  0.00    +0.000 A 
ATOM     19  C   UNL     1      46.766   3.457   5.684  0.00  0.00    +0.000 A 
ATOM     20  C   UNL     1      47.711   2.550   5.238  0.00  0.00    +0.000 A 
ATOM     21  N   UNL     1      48.087   1.458   5.935  0.00  0.00    +0.000 NA
ATOM     22  C   UNL     1      47.482   1.272   7.136  0.00  0.00    +0.000 A 
ENDBRANCH  16  17
ENDBRANCH  15  16
ENDBRANCH  11  15
TORSDOF 3
ENDMDL
MODEL 6
REMARK VINA RESULT:    -6.363      4.225      7.347
REMARK INTER + INTRA:          -7.768
REMARK INTER:                  -7.392
REMARK INTRA:                  -0.375
REMARK UNBOUND:                -0.289
REMARK  Name = 
REMARK  3 active torsions:
REMARK  status: ('A' for Active; 'I' for Inactive)
REMARK    1  A    between atoms: C_11  and  C_12
REMARK    2  A    between atoms: C_12  and  O_13
REMARK    3  A    between atoms: O_13  and  C_14
REMARK                            x       y       z     vdW  Elec       q    Type
REMARK                         _______ _______ _______ _____ _____    ______ ____
ROOT
ATOM      1  F   UNL     1      43.144   3.494  11.530  0.00  0.00    +0.000 F 
ATOM      2  C   UNL     1      43.133   4.841  11.729  0.00  0.00    +0.000 C 
ATOM      3  F   UNL     1      41.842   5.233  11.568  0.00  0.00    +0.000 F 
ATOM      4  C   UNL     1      43.986   5.502  10.662  0.00  0.00    +0.000 C 
ATOM      5  C   UNL     1      45.444   5.159  10.904  0.00  0.00    +0.000 C 
ATOM      6  N   UNL     1      45.773   5.553  12.269  0.00  0.00    +0.000 N 
ATOM      7  C   UNL     1      46.869   6.332  12.583  0.00  0.00    +0.000 A 
ATOM      8  C   UNL     1      47.310   7.320  11.721  0.00  0.00    +0.000 A 
ATOM      9  C   UNL     1      48.385   8.081  12.113  0.00  0.00    +0.000 A 
ATOM     10  N   UNL     1      49.029   7.905  13.272  0.00  0.00    +0.000 NA
ATOM     11  C   UNL     1      48.546   6.933  14.069  0.00  0.00    +0.000 A 
ATOM     12  N   UNL     1      47.484   6.151  13.766  0.00  0.00    +0.000 NA
ATOM     13  C   UNL     1      45.057   4.829  13.318  0.00  0.00    +0.000 C 
ATOM     14  C   UNL     1      43.573   5.137  13.151  0.00  0.00    +0.000 C 
ENDROOT
BRANCH  11  15
ATOM     15  C   UNL     1      49.299   6.650  15.350  0.00  0.00    +0.000 C 
BRANCH  15  16
ATOM     16  O   UNL     1      48.402   6.433  16.445  0.00  0.00    +0.000 OA
BRANCH  16  17
ATOM     17  C   UNL     1      48.348   5.158  16.931  0.00  0.00    +0.000 A 
ATOM     18  C   UNL     1      49.413   4.428  17.459  0.00  0.00    +0.000 A 
ATOM     19  C   UNL     1      49.203   3.127  17.916  0.00  0.00    +0.000 A 
ATOM     20  C   UNL     1      47.929   2.593  17.825  0.00  0.00    +0.000 A 
ATOM     21  N   UNL     1      46.872   3.261  17.320  0.00  0.00    +0.000 NA
ATOM     22  C   UNL     1      47.110   4.526  16.887  0.00  0.00    +0.000 A 
ENDBRANCH  16  17
ENDBRANCH  15  16
ENDBRANCH  11  15
TORSDOF 3
ENDMDL
MODEL 7
REMARK VINA RESULT:    -6.297      4.923      8.417
REMARK INTER + INTRA:          -7.691
REMARK INTER:                  -7.374
REMARK INTRA:                  -0.317
REMARK UNBOUND:                -0.289
REMARK  Name = 
REMARK  3 active torsions:
REMARK  status: ('A' for Active; 'I' for Inactive)
REMARK    1  A    between atoms: C_11  and  C_12
REMARK    2  A    between atoms: C_12  and  O_13
REMARK    3  A    between atoms: O_13  and  C_14
REMARK                            x       y       z     vdW  Elec       q    Type
REMARK                         _______ _______ _______ _____ _____    ______ ____
ROOT
ATOM      1  F   UNL     1      43.010   4.520  10.600  0.00  0.00    +0.000 F 
ATOM      2  C   UNL     1      43.167   5.576  11.444  0.00  0.00    +0.000 C 
ATOM      3  F   UNL     1      42.108   6.398  11.217  0.00  0.00    +0.000 F 
ATOM      4  C   UNL     1      44.446   6.309  11.084  0.00  0.00    +0.000 C 
ATOM      5  C   UNL     1      45.637   5.441  11.441  0.00  0.00    +0.000 C 
ATOM      6  N   UNL     1      45.523   5.087  12.851  0.00  0.00    +0.000 N 
ATOM      7  C   UNL     1      46.555   5.253  13.753  0.00  0.00    +0.000 A 
ATOM      8  C   UNL     1      47.440   6.309  13.634  0.00  0.00    +0.000 A 
ATOM      9  C   UNL     1      48.421   6.434  14.589  0.00  0.00    +0.000 A 
ATOM     10  N   UNL     1      48.569   5.583  15.610  0.00  0.00    +0.000 NA
ATOM     11  C   UNL     1      47.671   4.582  15.672  0.00  0.00    +0.000 A 
ATOM     12  N   UNL     1      46.666   4.397  14.785  0.00  0.00    +0.000 NA
ATOM     13  C   UNL     1      44.365   4.263  13.196  0.00  0.00    +0.000 C 
ATOM     14  C   UNL     1      43.117   5.079  12.877  0.00  0.00    +0.000 C 
ENDROOT
BRANCH  11  15
ATOM     15  C   UNL     1      47.856   3.553  16.766  0.00  0.00    +0.000 C 
BRANCH  15  16
ATOM     16  O   UNL     1      47.088   3.883  17.929  0.00  0.00    +0.000 OA
BRANCH  16  17
ATOM     17  C   UNL     1      47.652   4.789  18.781  0.00  0.00    +0.000 A 
ATOM     18  C   UNL     1      47.097   6.005  19.181  0.00  0.00    +0.000 A 
ATOM     19  C   UNL     1      47.798   6.831  20.060  0.00  0.00    +0.000 A 
ATOM     20  C   UNL     1      49.039   6.415  20.510  0.00  0.00    +0.000 A 
ATOM     21  N   UNL     1      49.613   5.249  20.148  0.00  0.00    +0.000 NA
ATOM     22  C   UNL     1      48.904   4.468  19.294  0.00  0.00    +0.000 A 
ENDBRANCH  16  17
ENDBRANCH  15  16
ENDBRANCH  11  15
TORSDOF 3
ENDMDL
MODEL 8
REMARK VINA RESULT:    -6.028      5.176      7.927
REMARK INTER + INTRA:          -7.375
REMARK INTER:                  -7.078
REMARK INTRA:                  -0.297
REMARK UNBOUND:                -0.289
REMARK  Name = 
REMARK  3 active torsions:
REMARK  status: ('A' for Active; 'I' for Inactive)
REMARK    1  A    between atoms: C_11  and  C_12
REMARK    2  A    between atoms: C_12  and  O_13
REMARK    3  A    between atoms: O_13  and  C_14
REMARK                            x       y       z     vdW  Elec       q    Type
REMARK                         _______ _______ _______ _____ _____    ______ ____
ROOT
ATOM      1  F   UNL     1      45.630   5.313  10.674  0.00  0.00    +0.000 F 
ATOM      2  C   UNL     1      45.307   6.188  11.666  0.00  0.00    +0.000 C 
ATOM      3  F   UNL     1      44.136   6.766  11.290  0.00  0.00    +0.000 F 
ATOM      4  C   UNL     1      46.381   7.256  11.749  0.00  0.00    +0.000 C 
ATOM      5  C   UNL     1      47.662   6.638  12.277  0.00  0.00    +0.000 C 
ATOM      6  N   UNL     1      47.354   5.994  13.549  0.00  0.00    +0.000 N 
ATOM      7  C   UNL     1      48.084   6.215  14.699  0.00  0.00    +0.000 A 
ATOM      8  C   UNL     1      48.649   7.451  14.956  0.00  0.00    +0.000 A 
ATOM      9  C   UNL     1      49.333   7.611  16.139  0.00  0.00    +0.000 A 
ATOM     10  N   UNL     1      49.489   6.632  17.037  0.00  0.00    +0.000 NA
ATOM     11  C   UNL     1      48.909   5.457  16.730  0.00  0.00    +0.000 A 
ATOM     12  N   UNL     1      48.206   5.221  15.598  0.00  0.00    +0.000 NA
ATOM     13  C   UNL     1      46.421   4.871  13.470  0.00  0.00    +0.000 C 
ATOM     14  C   UNL     1      45.093   5.418  12.956  0.00  0.00    +0.000 C 
ENDROOT
BRANCH  11  15
ATOM     15  C   UNL     1      49.134   4.304  17.684  0.00  0.00    +0.000 C 
BRANCH  15  16
ATOM     16  O   UNL     1      49.595   3.138  16.992  0.00  0.00    +0.000 OA
BRANCH  16  17
ATOM     17  C   UNL     1      50.813   2.654  17.380  0.00  0.00    +0.000 A 
ATOM     18  C   UNL     1      51.224   1.322  17.342  0.00  0.00    +0.000 A 
ATOM     19  C   UNL     1      52.504   0.979  17.776  0.00  0.00    +0.000 A 
ATOM     20  C   UNL     1      53.335   1.983  18.241  0.00  0.00    +0.000 A 
ATOM     21  N   UNL     1      52.979   3.283  18.296  0.00  0.00    +0.000 NA
ATOM     22  C   UNL     1      51.727   3.584  17.864  0.00  0.00    +0.000 A 
ENDBRANCH  16  17
ENDBRANCH  15  16
ENDBRANCH  11  15
TORSDOF 3
ENDMDL
MODEL 9
REMARK VINA RESULT:    -5.813      2.014      2.712
REMARK INTER + INTRA:          -7.121
REMARK INTER:                  -6.896
REMARK INTRA:                  -0.225
REMARK UNBOUND:                -0.289
REMARK  Name = 
REMARK  3 active torsions:
REMARK  status: ('A' for Active; 'I' for Inactive)
REMARK    1  A    between atoms: C_11  and  C_12
REMARK    2  A    between atoms: C_12  and  O_13
REMARK    3  A    between atoms: O_13  and  C_14
REMARK                            x       y       z     vdW  Elec       q    Type
REMARK                         _______ _______ _______ _____ _____    ______ ____
ROOT
ATOM      1  F   UNL     1      50.251   7.582  14.928  0.00  0.00    +0.000 F 
ATOM      2  C   UNL     1      50.057   8.137  13.700  0.00  0.00    +0.000 C 
ATOM      3  F   UNL     1      51.279   8.564  13.285  0.00  0.00    +0.000 F 
ATOM      4  C   UNL     1      49.138   9.336  13.841  0.00  0.00    +0.000 C 
ATOM      5  C   UNL     1      47.743   8.857  14.194  0.00  0.00    +0.000 C 
ATOM      6  N   UNL     1      47.330   7.898  13.176  0.00  0.00    +0.000 N 
ATOM      7  C   UNL     1      46.124   7.983  12.509  0.00  0.00    +0.000 A 
ATOM      8  C   UNL     1      45.560   9.210  12.212  0.00  0.00    +0.000 A 
ATOM      9  C   UNL     1      44.375   9.220  11.514  0.00  0.00    +0.000 A 
ATOM     10  N   UNL     1      43.741   8.110  11.124  0.00  0.00    +0.000 NA
ATOM     11  C   UNL     1      44.347   6.948  11.437  0.00  0.00    +0.000 A 
ATOM     12  N   UNL     1      45.519   6.851  12.105  0.00  0.00    +0.000 NA
ATOM     13  C   UNL     1      48.124   6.672  13.115  0.00  0.00    +0.000 C 
ATOM     14  C   UNL     1      49.549   7.071  12.747  0.00  0.00    +0.000 C 
ENDROOT
BRANCH  11  15
ATOM     15  C   UNL     1      43.617   5.671  11.083  0.00  0.00    +0.000 C 
BRANCH  15  16
ATOM     16  O   UNL     1      44.461   4.526  11.248  0.00  0.00    +0.000 OA
BRANCH  16  17
ATOM     17  C   UNL     1      44.898   3.933  10.098  0.00  0.00    +0.000 A 
ATOM     18  C   UNL     1      44.859   2.570   9.803  0.00  0.00    +0.000 A 
ATOM     19  C   UNL     1      45.348   2.111   8.580  0.00  0.00    +0.000 A 
ATOM     20  C   UNL     1      45.866   3.034   7.688  0.00  0.00    +0.000 A 
ATOM     21  N   UNL     1      45.925   4.359   7.932  0.00  0.00    +0.000 NA
ATOM     22  C   UNL     1      45.439   4.773   9.130  0.00  0.00    +0.000 A 
ENDBRANCH  16  17
ENDBRANCH  15  16
ENDBRANCH  11  15
TORSDOF 3
ENDMDL
