MODEL 1
REMARK VINA RESULT:    -7.779      0.000      0.000
REMARK INTER + INTRA:         -10.703
REMARK INTER:                 -10.053
REMARK INTRA:                  -0.650
REMARK UNBOUND:                -0.650
REMARK  Name = 
REMARK  6 active torsions:
REMARK  status: ('A' for Active; 'I' for Inactive)
REMARK    1  A    between atoms: N_1  and  C_2
REMARK    2  A    between atoms: C_2  and  C_3
REMARK    3  A    between atoms: C_6  and  N_7
REMARK    4  A    between atoms: N_7  and  C_8
REMARK    5  A    between atoms: C_8  and  C_9
REMARK    6  A    between atoms: C_13  and  O_14
REMARK                            x       y       z     vdW  Elec       q    Type
REMARK                         _______ _______ _______ _____ _____    ______ ____
ROOT
ATOM      1  N   UNL     1      43.935   4.705   9.635  0.00  0.00    +0.000 N 
ATOM      2  H   UNL     1      43.100   4.908   9.092  0.00  0.00    +0.000 HD
ENDROOT
BRANCH   1   6
ATOM      3  C   UNL     1      46.574   2.073   7.654  0.00  0.00    +0.000 A 
ATOM      4  C   UNL     1      45.615   1.561   8.538  0.00  0.00    +0.000 A 
ATOM      5  C   UNL     1      44.713   2.410   9.186  0.00  0.00    +0.000 A 
ATOM      6  C   UNL     1      44.762   3.790   8.984  0.00  0.00    +0.000 A 
ATOM      7  C   UNL     1      45.657   4.288   8.030  0.00  0.00    +0.000 A 
ATOM      8  C   UNL     1      46.568   3.446   7.386  0.00  0.00    +0.000 A 
BRANCH   3   9
ATOM      9  C   UNL     1      47.622   1.179   7.049  0.00  0.00    +0.000 C 
BRANCH   9  10
ATOM     10  N   UNL     1      48.312   1.818   5.934  0.00  0.00    +0.000 NA
ATOM     11  H   UNL     1      49.043   2.424   6.302  0.00  0.00    +0.000 HD
ATOM     12  H   UNL     1      47.654   2.424   5.450  0.00  0.00    +0.000 HD
ENDBRANCH   9  10
ENDBRANCH   3   9
ENDBRANCH   1   6
BRANCH   1  13
ATOM     13  C   UNL     1      43.642   4.500  11.048  0.00  0.00    +0.000 C 
BRANCH  13  14
ATOM     14  C   UNL     1      44.883   4.818  11.845  0.00  0.00    +0.000 A 
ATOM     15  C   UNL     1      45.432   6.113  11.803  0.00  0.00    +0.000 A 
ATOM     16  C   UNL     1      46.575   6.429  12.538  0.00  0.00    +0.000 A 
ATOM     17  C   UNL     1      47.186   5.455  13.327  0.00  0.00    +0.000 A 
ATOM     18  C   UNL     1      46.647   4.171  13.363  0.00  0.00    +0.000 A 
ATOM     19  C   UNL     1      45.516   3.843  12.624  0.00  0.00    +0.000 A 
BRANCH  18  20
ATOM     20  O   UNL     1      47.206   3.192  14.133  0.00  0.00    +0.000 OA
ATOM     21  H   UNL     1      48.057   2.944  13.738  0.00  0.00    +0.000 HD
ENDBRANCH  18  20
ENDBRANCH  13  14
ENDBRANCH   1  13
TORSDOF 6
ENDMDL
MODEL 2
REMARK VINA RESULT:    -7.643      2.479      5.781
REMARK INTER + INTRA:         -10.528
REMARK INTER:                 -10.040
REMARK INTRA:                  -0.488
REMARK UNBOUND:                -0.650
REMARK  Name = 
REMARK  6 active torsions:
REMARK  status: ('A' for Active; 'I' for Inactive)
REMARK    1  A    between atoms: N_1  and  C_2
REMARK    2  A    between atoms: C_2  and  C_3
REMARK    3  A    between atoms: C_6  and  N_7
REMARK    4  A    between atoms: N_7  and  C_8
REMARK    5  A    between atoms: C_8  and  C_9
REMARK    6  A    between atoms: C_13  and  O_14
REMARK                            x       y       z     vdW  Elec       q    Type
REMARK                         _______ _______ _______ _____ _____    ______ ____
ROOT
ATOM      1  N   UNL     1      45.122   5.097   9.236  0.00  0.00    +0.000 N 
ATOM      2  H   UNL     1      45.863   5.483   8.655  0.00  0.00    +0.000 HD
ENDROOT
BRANCH   1   6
ATOM      3  C   UNL     1      46.285   4.690  13.273  0.00  0.00    +0.000 A 
ATOM      4  C   UNL     1      46.609   5.859  12.571  0.00  0.00    +0.000 A 
ATOM      5  C   UNL     1      46.212   6.028  11.240  0.00  0.00    +0.000 A 
ATOM      6  C   UNL     1      45.503   5.026  10.575  0.00  0.00    +0.000 A 
ATOM      7  C   UNL     1      45.100   3.903  11.307  0.00  0.00    +0.000 A 
ATOM      8  C   UNL     1      45.502   3.724  12.633  0.00  0.00    +0.000 A 
BRANCH   3   9
ATOM      9  C   UNL     1      46.813   4.453  14.662  0.00  0.00    +0.000 C 
BRANCH   9  10
ATOM     10  N   UNL     1      47.521   3.183  14.770  0.00  0.00    +0.000 NA
ATOM     11  H   UNL     1      47.127   2.527  14.099  0.00  0.00    +0.000 HD
ATOM     12  H   UNL     1      47.345   2.791  15.692  0.00  0.00    +0.000 HD
ENDBRANCH   9  10
ENDBRANCH   3   9
ENDBRANCH   1   6
BRANCH   1  13
ATOM     13  C   UNL     1      44.492   3.933   8.626  0.00  0.00    +0.000 C 
BRANCH  13  14
ATOM     14  C   UNL     1      45.565   3.090   7.983  0.00  0.00    +0.000 A 
ATOM     15  C   UNL     1      46.437   3.663   7.037  0.00  0.00    +0.000 A 
ATOM     16  C   UNL     1      47.440   2.902   6.437  0.00  0.00    +0.000 A 
ATOM     17  C   UNL     1      47.589   1.557   6.774  0.00  0.00    +0.000 A 
ATOM     18  C   UNL     1      46.724   0.988   7.706  0.00  0.00    +0.000 A 
ATOM     19  C   UNL     1      45.712   1.735   8.300  0.00  0.00    +0.000 A 
BRANCH  18  20
ATOM     20  O   UNL     1      46.844  -0.321   8.073  0.00  0.00    +0.000 OA
ATOM     21  H   UNL     1      47.284  -0.799   7.354  0.00  0.00    +0.000 HD
ENDBRANCH  18  20
ENDBRANCH  13  14
ENDBRANCH   1  13
TORSDOF 6
ENDMDL
MODEL 3
REMARK VINA RESULT:    -7.393      2.763      5.997
REMARK INTER + INTRA:         -10.204
REMARK INTER:                  -9.773
REMARK INTRA:                  -0.431
REMARK UNBOUND:                -0.650
REMARK  Name = 
REMARK  6 active torsions:
REMARK  status: ('A' for Active; 'I' for Inactive)
REMARK    1  A    between atoms: N_1  and  C_2
REMARK    2  A    between atoms: C_2  and  C_3
REMARK    3  A    between atoms: C_6  and  N_7
REMARK    4  A    between atoms: N_7  and  C_8
REMARK    5  A    between atoms: C_8  and  C_9
REMARK    6  A    between atoms: C_13  and  O_14
REMARK                            x       y       z     vdW  Elec       q    Type
REMARK                         _______ _______ _______ _____ _____    ______ ____
ROOT
ATOM      1  N   UNL     1      45.234   5.209   9.274  0.00  0.00    +0.000 N 
ATOM      2  H   UNL     1      46.006   5.520   8.691  0.00  0.00    +0.000 HD
ENDROOT
BRANCH   1   6
ATOM      3  C   UNL     1      46.353   4.777  13.321  0.00  0.00    +0.000 A 
ATOM      4  C   UNL     1      46.742   5.921  12.611  0.00  0.00    +0.000 A 
ATOM      5  C   UNL     1      46.361   6.099  11.277  0.00  0.00    +0.000 A 
ATOM      6  C   UNL     1      45.603   5.130  10.616  0.00  0.00    +0.000 A 
ATOM      7  C   UNL     1      45.138   4.037  11.356  0.00  0.00    +0.000 A 
ATOM      8  C   UNL     1      45.523   3.847  12.686  0.00  0.00    +0.000 A 
BRANCH   3   9
ATOM      9  C   UNL     1      46.860   4.525  14.715  0.00  0.00    +0.000 C 
BRANCH   9  10
ATOM     10  N   UNL     1      47.537   3.238  14.828  0.00  0.00    +0.000 NA
ATOM     11  H   UNL     1      47.144   2.597  14.141  0.00  0.00    +0.000 HD
ATOM     12  H   UNL     1      47.329   2.841  15.741  0.00  0.00    +0.000 HD
ENDBRANCH   9  10
ENDBRANCH   3   9
ENDBRANCH   1   6
BRANCH   1  13
ATOM     13  C   UNL     1      44.507   4.093   8.683  0.00  0.00    +0.000 C 
BRANCH  13  14
ATOM     14  C   UNL     1      45.509   3.123   8.108  0.00  0.00    +0.000 A 
ATOM     15  C   UNL     1      45.547   1.794   8.572  0.00  0.00    +0.000 A 
ATOM     16  C   UNL     1      46.461   0.880   8.049  0.00  0.00    +0.000 A 
ATOM     17  C   UNL     1      47.352   1.279   7.052  0.00  0.00    +0.000 A 
ATOM     18  C   UNL     1      47.319   2.595   6.596  0.00  0.00    +0.000 A 
ATOM     19  C   UNL     1      46.420   3.517   7.121  0.00  0.00    +0.000 A 
BRANCH  18  20
ATOM     20  O   UNL     1      48.163   3.022   5.613  0.00  0.00    +0.000 OA
ATOM     21  H   UNL     1      47.990   3.963   5.451  0.00  0.00    +0.000 HD
ENDBRANCH  18  20
ENDBRANCH  13  14
ENDBRANCH   1  13
TORSDOF 6
ENDMDL
MODEL 4
REMARK VINA RESULT:    -6.896      1.280      1.663
REMARK INTER + INTRA:          -9.561
REMARK INTER:                  -8.963
REMARK INTRA:                  -0.599
REMARK UNBOUND:                -0.650
REMARK  Name = 
REMARK  6 active torsions:
REMARK  status: ('A' for Active; 'I' for Inactive)
REMARK    1  A    between atoms: N_1  and  C_2
REMARK    2  A    between atoms: C_2  and  C_3
REMARK    3  A    between atoms: C_6  and  N_7
REMARK    4  A    between atoms: N_7  and  C_8
REMARK    5  A    between atoms: C_8  and  C_9
REMARK    6  A    between atoms: C_13  and  O_14
REMARK                            x       y       z     vdW  Elec       q    Type
REMARK                         _______ _______ _______ _____ _____    ______ ____
ROOT
ATOM      1  N   UNL     1      44.278   4.928  10.210  0.00  0.00    +0.000 N 
ATOM      2  H   UNL     1      43.825   4.493  11.010  0.00  0.00    +0.000 HD
ENDROOT
BRANCH   1   6
ATOM      3  C   UNL     1      46.352   2.199   7.747  0.00  0.00    +0.000 A 
ATOM      4  C   UNL     1      45.502   1.720   8.752  0.00  0.00    +0.000 A 
ATOM      5  C   UNL     1      44.784   2.604   9.564  0.00  0.00    +0.000 A 
ATOM      6  C   UNL     1      44.915   3.984   9.405  0.00  0.00    +0.000 A 
ATOM      7  C   UNL     1      45.691   4.457   8.340  0.00  0.00    +0.000 A 
ATOM      8  C   UNL     1      46.420   3.579   7.532  0.00  0.00    +0.000 A 
BRANCH   3   9
ATOM      9  C   UNL     1      47.217   1.256   6.954  0.00  0.00    +0.000 C 
BRANCH   9  10
ATOM     10  N   UNL     1      48.467   1.880   6.535  0.00  0.00    +0.000 NA
ATOM     11  H   UNL     1      49.142   1.150   6.316  0.00  0.00    +0.000 HD
ATOM     12  H   UNL     1      48.850   2.398   7.322  0.00  0.00    +0.000 HD
ENDBRANCH   9  10
ENDBRANCH   3   9
ENDBRANCH   1   6
BRANCH   1  13
ATOM     13  C   UNL     1      45.002   6.138  10.576  0.00  0.00    +0.000 C 
BRANCH  13  14
ATOM     14  C   UNL     1      45.837   5.845  11.798  0.00  0.00    +0.000 A 
ATOM     15  C   UNL     1      45.306   5.060  12.840  0.00  0.00    +0.000 A 
ATOM     16  C   UNL     1      46.063   4.772  13.975  0.00  0.00    +0.000 A 
ATOM     17  C   UNL     1      47.364   5.262  14.086  0.00  0.00    +0.000 A 
ATOM     18  C   UNL     1      47.888   6.044  13.059  0.00  0.00    +0.000 A 
ATOM     19  C   UNL     1      47.136   6.347  11.929  0.00  0.00    +0.000 A 
BRANCH  18  20
ATOM     20  O   UNL     1      49.161   6.531  13.123  0.00  0.00    +0.000 OA
ATOM     21  H   UNL     1      49.149   7.343  13.653  0.00  0.00    +0.000 HD
ENDBRANCH  18  20
ENDBRANCH  13  14
ENDBRANCH   1  13
TORSDOF 6
ENDMDL
MODEL 5
REMARK VINA RESULT:    -6.690      2.613      6.132
REMARK INTER + INTRA:          -9.296
REMARK INTER:                  -8.815
REMARK INTRA:                  -0.481
REMARK UNBOUND:                -0.650
REMARK  Name = 
REMARK  6 active torsions:
REMARK  status: ('A' for Active; 'I' for Inactive)
REMARK    1  A    between atoms: N_1  and  C_2
REMARK    2  A    between atoms: C_2  and  C_3
REMARK    3  A    between atoms: C_6  and  N_7
REMARK    4  A    between atoms: N_7  and  C_8
REMARK    5  A    between atoms: C_8  and  C_9
REMARK    6  A    between atoms: C_13  and  O_14
REMARK                            x       y       z     vdW  Elec       q    Type
REMARK                         _______ _______ _______ _____ _____    ______ ____
ROOT
ATOM      1  N   UNL     1      44.978   3.643  11.286  0.00  0.00    +0.000 N 
ATOM      2  H   UNL     1      44.739   3.095  12.109  0.00  0.00    +0.000 HD
ENDROOT
BRANCH   1   6
ATOM      3  C   UNL     1      45.426   7.747  12.166  0.00  0.00    +0.000 A 
ATOM      4  C   UNL     1      44.255   7.294  11.546  0.00  0.00    +0.000 A 
ATOM      5  C   UNL     1      44.072   5.935  11.268  0.00  0.00    +0.000 A 
ATOM      6  C   UNL     1      45.062   5.003  11.583  0.00  0.00    +0.000 A 
ATOM      7  C   UNL     1      46.188   5.446  12.287  0.00  0.00    +0.000 A 
ATOM      8  C   UNL     1      46.382   6.804  12.558  0.00  0.00    +0.000 A 
BRANCH   3   9
ATOM      9  C   UNL     1      45.679   9.218  12.357  0.00  0.00    +0.000 C 
BRANCH   9  10
ATOM     10  N   UNL     1      44.450   9.955  12.626  0.00  0.00    +0.000 NA
ATOM     11  H   UNL     1      43.685   9.293  12.739  0.00  0.00    +0.000 HD
ATOM     12  H   UNL     1      44.223  10.518  11.810  0.00  0.00    +0.000 HD
ENDBRANCH   9  10
ENDBRANCH   3   9
ENDBRANCH   1   6
BRANCH   1  13
ATOM     13  C   UNL     1      44.228   3.229  10.108  0.00  0.00    +0.000 C 
BRANCH  13  14
ATOM     14  C   UNL     1      45.208   2.924   9.002  0.00  0.00    +0.000 A 
ATOM     15  C   UNL     1      45.678   3.960   8.173  0.00  0.00    +0.000 A 
ATOM     16  C   UNL     1      46.589   3.699   7.150  0.00  0.00    +0.000 A 
ATOM     17  C   UNL     1      47.045   2.398   6.938  0.00  0.00    +0.000 A 
ATOM     18  C   UNL     1      46.575   1.371   7.754  0.00  0.00    +0.000 A 
ATOM     19  C   UNL     1      45.657   1.619   8.768  0.00  0.00    +0.000 A 
BRANCH  18  20
ATOM     20  O   UNL     1      47.006   0.087   7.590  0.00  0.00    +0.000 OA
ATOM     21  H   UNL     1      46.477  -0.324   6.888  0.00  0.00    +0.000 HD
ENDBRANCH  18  20
ENDBRANCH  13  14
ENDBRANCH   1  13
TORSDOF 6
ENDMDL
MODEL 6
REMARK VINA RESULT:    -6.542      2.753      5.913
REMARK INTER + INTRA:          -9.104
REMARK INTER:                  -8.564
REMARK INTRA:                  -0.540
REMARK UNBOUND:                -0.650
REMARK  Name = 
REMARK  6 active torsions:
REMARK  status: ('A' for Active; 'I' for Inactive)
REMARK    1  A    between atoms: N_1  and  C_2
REMARK    2  A    between atoms: C_2  and  C_3
REMARK    3  A    between atoms: C_6  and  N_7
REMARK    4  A    between atoms: N_7  and  C_8
REMARK    5  A    between atoms: C_8  and  C_9
REMARK    6  A    between atoms: C_13  and  O_14
REMARK                            x       y       z     vdW  Elec       q    Type
REMARK                         _______ _______ _______ _____ _____    ______ ____
ROOT
ATOM      1  N   UNL     1      44.547   5.437  10.404  0.00  0.00    +0.000 N 
ATOM      2  H   UNL     1      45.062   5.970   9.708  0.00  0.00    +0.000 HD
ENDROOT
BRANCH   1   6
ATOM      3  C   UNL     1      46.846   5.012  13.919  0.00  0.00    +0.000 A 
ATOM      4  C   UNL     1      45.948   4.002  13.550  0.00  0.00    +0.000 A 
ATOM      5  C   UNL     1      45.194   4.108  12.376  0.00  0.00    +0.000 A 
ATOM      6  C   UNL     1      45.304   5.233  11.557  0.00  0.00    +0.000 A 
ATOM      7  C   UNL     1      46.270   6.194  11.879  0.00  0.00    +0.000 A 
ATOM      8  C   UNL     1      47.018   6.099  13.056  0.00  0.00    +0.000 A 
BRANCH   3   9
ATOM      9  C   UNL     1      47.567   4.959  15.238  0.00  0.00    +0.000 C 
BRANCH   9  10
ATOM     10  N   UNL     1      47.639   3.603  15.770  0.00  0.00    +0.000 NA
ATOM     11  H   UNL     1      48.132   3.623  16.661  0.00  0.00    +0.000 HD
ATOM     12  H   UNL     1      48.206   3.038  15.142  0.00  0.00    +0.000 HD
ENDBRANCH   9  10
ENDBRANCH   3   9
ENDBRANCH   1   6
BRANCH   1  13
ATOM     13  C   UNL     1      43.840   4.303   9.822  0.00  0.00    +0.000 C 
BRANCH  13  14
ATOM     14  C   UNL     1      44.806   3.530   8.958  0.00  0.00    +0.000 A 
ATOM     15  C   UNL     1      45.037   2.165   9.211  0.00  0.00    +0.000 A 
ATOM     16  C   UNL     1      45.921   1.431   8.420  0.00  0.00    +0.000 A 
ATOM     17  C   UNL     1      46.588   2.050   7.363  0.00  0.00    +0.000 A 
ATOM     18  C   UNL     1      46.365   3.403   7.116  0.00  0.00    +0.000 A 
ATOM     19  C   UNL     1      45.495   4.146   7.907  0.00  0.00    +0.000 A 
BRANCH  18  20
ATOM     20  O   UNL     1      46.986   4.044   6.084  0.00  0.00    +0.000 OA
ATOM     21  H   UNL     1      47.598   4.697   6.456  0.00  0.00    +0.000 HD
ENDBRANCH  18  20
ENDBRANCH  13  14
ENDBRANCH   1  13
TORSDOF 6
ENDMDL
MODEL 7
REMARK VINA RESULT:    -6.516      2.734      5.859
REMARK INTER + INTRA:          -9.070
REMARK INTER:                  -8.432
REMARK INTRA:                  -0.638
REMARK UNBOUND:                -0.650
REMARK  Name = 
REMARK  6 active torsions:
REMARK  status: ('A' for Active; 'I' for Inactive)
REMARK    1  A    between atoms: N_1  and  C_2
REMARK    2  A    between atoms: C_2  and  C_3
REMARK    3  A    between atoms: C_6  and  N_7
REMARK    4  A    between atoms: N_7  and  C_8
REMARK    5  A    between atoms: C_8  and  C_9
REMARK    6  A    between atoms: C_13  and  O_14
REMARK                            x       y       z     vdW  Elec       q    Type
REMARK                         _______ _______ _______ _____ _____    ______ ____
ROOT
ATOM      1  N   UNL     1      44.066   4.183  11.882  0.00  0.00    +0.000 N 
ATOM      2  H   UNL     1      43.281   4.121  12.526  0.00  0.00    +0.000 HD
ENDROOT
BRANCH   1   6
ATOM      3  C   UNL     1      47.354   6.261  13.521  0.00  0.00    +0.000 A 
ATOM      4  C   UNL     1      46.436   6.942  12.710  0.00  0.00    +0.000 A 
ATOM      5  C   UNL     1      45.325   6.281  12.177  0.00  0.00    +0.000 A 
ATOM      6  C   UNL     1      45.116   4.923  12.423  0.00  0.00    +0.000 A 
ATOM      7  C   UNL     1      45.982   4.271  13.309  0.00  0.00    +0.000 A 
ATOM      8  C   UNL     1      47.100   4.922  13.837  0.00  0.00    +0.000 A 
BRANCH   3   9
ATOM      9  C   UNL     1      48.612   6.935  13.997  0.00  0.00    +0.000 C 
BRANCH   9  10
ATOM     10  N   UNL     1      49.659   6.920  12.982  0.00  0.00    +0.000 NA
ATOM     11  H   UNL     1      49.239   6.723  12.076  0.00  0.00    +0.000 HD
ATOM     12  H   UNL     1      50.290   6.146  13.179  0.00  0.00    +0.000 HD
ENDBRANCH   9  10
ENDBRANCH   3   9
ENDBRANCH   1   6
BRANCH   1  13
ATOM     13  C   UNL     1      43.641   4.467  10.517  0.00  0.00    +0.000 C 
BRANCH  13  14
ATOM     14  C   UNL     1      44.548   3.721   9.570  0.00  0.00    +0.000 A 
ATOM     15  C   UNL     1      44.600   2.314   9.608  0.00  0.00    +0.000 A 
ATOM     16  C   UNL     1      45.427   1.606   8.737  0.00  0.00    +0.000 A 
ATOM     17  C   UNL     1      46.214   2.292   7.812  0.00  0.00    +0.000 A 
ATOM     18  C   UNL     1      46.167   3.683   7.777  0.00  0.00    +0.000 A 
ATOM     19  C   UNL     1      45.356   4.399   8.651  0.00  0.00    +0.000 A 
BRANCH  18  20
ATOM     20  O   UNL     1      46.910   4.392   6.878  0.00  0.00    +0.000 OA
ATOM     21  H   UNL     1      47.838   4.357   7.157  0.00  0.00    +0.000 HD
ENDBRANCH  18  20
ENDBRANCH  13  14
ENDBRANCH   1  13
TORSDOF 6
ENDMDL
MODEL 8
REMARK VINA RESULT:    -5.617      4.710      7.993
REMARK INTER + INTRA:          -7.908
REMARK INTER:                  -7.574
REMARK INTRA:                  -0.335
REMARK UNBOUND:                -0.650
REMARK  Name = 
REMARK  6 active torsions:
REMARK  status: ('A' for Active; 'I' for Inactive)
REMARK    1  A    between atoms: N_1  and  C_2
REMARK    2  A    between atoms: C_2  and  C_3
REMARK    3  A    between atoms: C_6  and  N_7
REMARK    4  A    between atoms: N_7  and  C_8
REMARK    5  A    between atoms: C_8  and  C_9
REMARK    6  A    between atoms: C_13  and  O_14
REMARK                            x       y       z     vdW  Elec       q    Type
REMARK                         _______ _______ _______ _____ _____    ______ ____
ROOT
ATOM      1  N   UNL     1      46.785   3.797  14.640  0.00  0.00    +0.000 N 
ATOM      2  H   UNL     1      46.012   3.140  14.707  0.00  0.00    +0.000 HD
ENDROOT
BRANCH   1   6
ATOM      3  C   UNL     1      48.710   4.356  18.354  0.00  0.00    +0.000 A 
ATOM      4  C   UNL     1      48.549   3.061  17.843  0.00  0.00    +0.000 A 
ATOM      5  C   UNL     1      47.938   2.853  16.602  0.00  0.00    +0.000 A 
ATOM      6  C   UNL     1      47.454   3.928  15.855  0.00  0.00    +0.000 A 
ATOM      7  C   UNL     1      47.701   5.223  16.325  0.00  0.00    +0.000 A 
ATOM      8  C   UNL     1      48.301   5.438  17.569  0.00  0.00    +0.000 A 
BRANCH   3   9
ATOM      9  C   UNL     1      49.255   4.576  19.739  0.00  0.00    +0.000 C 
BRANCH   9  10
ATOM     10  N   UNL     1      48.462   3.895  20.756  0.00  0.00    +0.000 NA
ATOM     11  H   UNL     1      47.634   3.498  20.317  0.00  0.00    +0.000 HD
ATOM     12  H   UNL     1      48.129   4.587  21.424  0.00  0.00    +0.000 HD
ENDBRANCH   9  10
ENDBRANCH   3   9
ENDBRANCH   1   6
BRANCH   1  13
ATOM     13  C   UNL     1      46.424   5.003  13.906  0.00  0.00    +0.000 C 
BRANCH  13  14
ATOM     14  C   UNL     1      45.244   4.688  13.021  0.00  0.00    +0.000 A 
ATOM     15  C   UNL     1      45.159   3.437  12.380  0.00  0.00    +0.000 A 
ATOM     16  C   UNL     1      44.074   3.124  11.563  0.00  0.00    +0.000 A 
ATOM     17  C   UNL     1      43.053   4.056  11.374  0.00  0.00    +0.000 A 
ATOM     18  C   UNL     1      43.139   5.297  12.002  0.00  0.00    +0.000 A 
ATOM     19  C   UNL     1      44.224   5.623  12.808  0.00  0.00    +0.000 A 
BRANCH  18  20
ATOM     20  O   UNL     1      42.156   6.232  11.854  0.00  0.00    +0.000 OA
ATOM     21  H   UNL     1      41.473   5.865  11.271  0.00  0.00    +0.000 HD
ENDBRANCH  18  20
ENDBRANCH  13  14
ENDBRANCH   1  13
TORSDOF 6
ENDMDL
MODEL 9
REMARK VINA RESULT:    -5.561      3.215      6.345
REMARK INTER + INTRA:          -7.837
REMARK INTER:                  -7.344
REMARK INTRA:                  -0.493
REMARK UNBOUND:                -0.650
REMARK  Name = 
REMARK  6 active torsions:
REMARK  status: ('A' for Active; 'I' for Inactive)
REMARK    1  A    between atoms: N_1  and  C_2
REMARK    2  A    between atoms: C_2  and  C_3
REMARK    3  A    between atoms: C_6  and  N_7
REMARK    4  A    between atoms: N_7  and  C_8
REMARK    5  A    between atoms: C_8  and  C_9
REMARK    6  A    between atoms: C_13  and  O_14
REMARK                            x       y       z     vdW  Elec       q    Type
REMARK                         _______ _______ _______ _____ _____    ______ ____
ROOT
ATOM      1  N   UNL     1      45.233   5.413  12.025  0.00  0.00    +0.000 N 
ATOM      2  H   UNL     1      44.907   5.083  12.930  0.00  0.00    +0.000 HD
ENDROOT
BRANCH   1   6
ATOM      3  C   UNL     1      47.331   9.071  12.209  0.00  0.00    +0.000 A 
ATOM      4  C   UNL     1      45.956   9.044  12.480  0.00  0.00    +0.000 A 
ATOM      5  C   UNL     1      45.245   7.840  12.451  0.00  0.00    +0.000 A 
ATOM      6  C   UNL     1      45.884   6.641  12.129  0.00  0.00    +0.000 A 
ATOM      7  C   UNL     1      47.272   6.659  11.953  0.00  0.00    +0.000 A 
ATOM      8  C   UNL     1      47.987   7.860  11.970  0.00  0.00    +0.000 A 
BRANCH   3   9
ATOM      9  C   UNL     1      48.074  10.376  12.120  0.00  0.00    +0.000 C 
BRANCH   9  10
ATOM     10  N   UNL     1      49.517  10.182  12.054  0.00  0.00    +0.000 NA
ATOM     11  H   UNL     1      49.977  10.956  12.529  0.00  0.00    +0.000 HD
ATOM     12  H   UNL     1      49.807  10.231  11.080  0.00  0.00    +0.000 HD
ENDBRANCH   9  10
ENDBRANCH   3   9
ENDBRANCH   1   6
BRANCH   1  13
ATOM     13  C   UNL     1      44.234   5.237  10.979  0.00  0.00    +0.000 C 
BRANCH  13  14
ATOM     14  C   UNL     1      44.788   4.291   9.943  0.00  0.00    +0.000 A 
ATOM     15  C   UNL     1      44.489   2.917  10.014  0.00  0.00    +0.000 A 
ATOM     16  C   UNL     1      44.986   2.027   9.063  0.00  0.00    +0.000 A 
ATOM     17  C   UNL     1      45.789   2.496   8.023  0.00  0.00    +0.000 A 
ATOM     18  C   UNL     1      46.091   3.855   7.955  0.00  0.00    +0.000 A 
ATOM     19  C   UNL     1      45.610   4.748   8.907  0.00  0.00    +0.000 A 
BRANCH  18  20
ATOM     20  O   UNL     1      46.861   4.357   6.947  0.00  0.00    +0.000 OA
ATOM     21  H   UNL     1      46.283   4.559   6.195  0.00  0.00    +0.000 HD
ENDBRANCH  18  20
ENDBRANCH  13  14
ENDBRANCH   1  13
TORSDOF 6
ENDMDL
