MODEL 1
REMARK VINA RESULT:    -6.995      0.000      0.000
REMARK INTER + INTRA:         -11.752
REMARK INTER:                 -10.675
REMARK INTRA:                  -1.077
REMARK UNBOUND:                -1.077
REMARK  Name = 
REMARK  13 active torsions:
REMARK  status: ('A' for Active; 'I' for Inactive)
REMARK    1  A    between atoms: C_1  and  N_2
REMARK    2  A    between atoms: N_2  and  C_3
REMARK    3  A    between atoms: N_2  and  C_4
REMARK    4  A    between atoms: C_4  and  C_5
REMARK    5  A    between atoms: C_5  and  N_6
REMARK    6  A    between atoms: C_7  and  C_9
REMARK    7  A    between atoms: C_12  and  N_13
REMARK    8  A    between atoms: N_13  and  C_14
REMARK    9  A    between atoms: C_14  and  C_15
REMARK   10  A    between atoms: C_15  and  C_16
REMARK   11  A    between atoms: C_15  and  C_17
REMARK   12  A    between atoms: C_15  and  C_18
REMARK   13  A    between atoms: C_22  and  C_23
REMARK                            x       y       z     vdW  Elec       q    Type
REMARK                         _______ _______ _______ _____ _____    ______ ____
ROOT
ATOM      1  N   UNL     1      45.272   4.897  13.124  0.00  0.00    +0.000 N 
ATOM      2  H   UNL     1      45.085   4.878  14.121  0.00  0.00    +0.000 HD
ENDROOT
BRANCH   1   6
ATOM      3  C   UNL     1      48.714   7.103  12.625  0.00  0.00    +0.000 A 
ATOM      4  C   UNL     1      47.642   7.261  11.755  0.00  0.00    +0.000 A 
ATOM      5  N   UNL     1      46.483   6.555  11.877  0.00  0.00    +0.000 NA
ATOM      6  C   UNL     1      46.421   5.666  12.893  0.00  0.00    +0.000 A 
ATOM      7  C   UNL     1      47.517   5.528  13.758  0.00  0.00    +0.000 A 
ATOM      8  N   UNL     1      48.677   6.224  13.658  0.00  0.00    +0.000 NA
BRANCH   3  10
ATOM      9  N   UNL     1      50.865   7.426  11.504  0.00  0.00    +0.000 N 
ATOM     10  C   UNL     1      49.960   7.886  12.440  0.00  0.00    +0.000 C 
ATOM     11  O   UNL     1      50.146   8.914  13.100  0.00  0.00    +0.000 OA
ATOM     12  H   UNL     1      50.563   6.728  10.836  0.00  0.00    +0.000 HD
BRANCH   9  13
ATOM     13  C   UNL     1      52.094   8.155  11.262  0.00  0.00    +0.000 C 
BRANCH  13  14
ATOM     14  C   UNL     1      52.556   8.157   9.788  0.00  0.00    +0.000 C 
BRANCH  14  16
ATOM     15  C   UNL     1      52.653   6.950   7.692  0.00  0.00    +0.000 C 
ATOM     16  N   UNL     1      52.482   6.826   9.143  0.00  0.00    +0.000 NA
ATOM     17  C   UNL     1      53.511   5.924   9.674  0.00  0.00    +0.000 C 
ENDBRANCH  14  16
ENDBRANCH  13  14
ENDBRANCH   9  13
ENDBRANCH   3  10
ENDBRANCH   1   6
BRANCH   1  18
ATOM     18  C   UNL     1      45.230   3.571  12.494  0.00  0.00    +0.000 C 
BRANCH  18  19
ATOM     19  C   UNL     1      44.184   3.504  11.327  0.00  0.00    +0.000 C 
ATOM     20  C   UNL     1      43.368   2.192  11.417  0.00  0.00    +0.000 C 
ATOM     21  C   UNL     1      43.194   4.686  11.481  0.00  0.00    +0.000 C 
BRANCH  19  22
ATOM     22  C   UNL     1      44.934   3.530   9.972  0.00  0.00    +0.000 A 
ATOM     23  C   UNL     1      45.185   4.727   9.276  0.00  0.00    +0.000 A 
ATOM     24  C   UNL     1      45.907   4.735   8.080  0.00  0.00    +0.000 A 
ATOM     25  C   UNL     1      46.414   3.547   7.561  0.00  0.00    +0.000 A 
ATOM     26  C   UNL     1      46.191   2.339   8.227  0.00  0.00    +0.000 A 
ATOM     27  C   UNL     1      45.425   2.331   9.403  0.00  0.00    +0.000 A 
BRANCH  26  28
ATOM     28  C   UNL     1      46.818   1.114   7.656  0.00  0.00    +0.000 C 
ATOM     29  N   UNL     1      47.751   1.267   6.666  0.00  0.00    +0.000 N 
ATOM     30  O   UNL     1      46.473  -0.003   8.008  0.00  0.00    +0.000 OA
ATOM     31  H   UNL     1      47.991   2.145   6.229  0.00  0.00    +0.000 HD
ATOM     32  H   UNL     1      48.067   0.415   6.217  0.00  0.00    +0.000 HD
ENDBRANCH  26  28
ENDBRANCH  19  22
ENDBRANCH  18  19
ENDBRANCH   1  18
TORSDOF 9
ENDMDL
MODEL 2
REMARK VINA RESULT:    -6.620      2.555      3.246
REMARK INTER + INTRA:         -11.180
REMARK INTER:                 -10.254
REMARK INTRA:                  -0.926
REMARK UNBOUND:                -1.077
REMARK  Name = 
REMARK  13 active torsions:
REMARK  status: ('A' for Active; 'I' for Inactive)
REMARK    1  A    between atoms: C_1  and  N_2
REMARK    2  A    between atoms: N_2  and  C_3
REMARK    3  A    between atoms: N_2  and  C_4
REMARK    4  A    between atoms: C_4  and  C_5
REMARK    5  A    between atoms: C_5  and  N_6
REMARK    6  A    between atoms: C_7  and  C_9
REMARK    7  A    between atoms: C_12  and  N_13
REMARK    8  A    between atoms: N_13  and  C_14
REMARK    9  A    between atoms: C_14  and  C_15
REMARK   10  A    between atoms: C_15  and  C_16
REMARK   11  A    between atoms: C_15  and  C_17
REMARK   12  A    between atoms: C_15  and  C_18
REMARK   13  A    between atoms: C_22  and  C_23
REMARK                            x       y       z     vdW  Elec       q    Type
REMARK                         _______ _______ _______ _____ _____    ______ ____
ROOT
ATOM      1  N   UNL     1      44.901   4.369  13.171  0.00  0.00    +0.000 N 
ATOM      2  H   UNL     1      44.562   4.089  14.086  0.00  0.00    +0.000 HD
ENDROOT
BRANCH   1   6
ATOM      3  C   UNL     1      48.019   6.988  13.788  0.00  0.00    +0.000 A 
ATOM      4  C   UNL     1      46.878   7.397  13.109  0.00  0.00    +0.000 A 
ATOM      5  N   UNL     1      45.821   6.569  12.879  0.00  0.00    +0.000 NA
ATOM      6  C   UNL     1      45.933   5.302  13.337  0.00  0.00    +0.000 A 
ATOM      7  C   UNL     1      47.096   4.916  14.021  0.00  0.00    +0.000 A 
ATOM      8  N   UNL     1      48.158   5.725  14.265  0.00  0.00    +0.000 NA
BRANCH   3  10
ATOM      9  N   UNL     1      50.366   7.379  14.361  0.00  0.00    +0.000 N 
ATOM     10  C   UNL     1      49.150   7.924  14.000  0.00  0.00    +0.000 C 
ATOM     11  O   UNL     1      48.984   9.137  13.836  0.00  0.00    +0.000 OA
ATOM     12  H   UNL     1      50.505   6.383  14.252  0.00  0.00    +0.000 HD
BRANCH   9  13
ATOM     13  C   UNL     1      51.515   8.238  14.567  0.00  0.00    +0.000 C 
BRANCH  13  14
ATOM     14  C   UNL     1      52.658   7.592  15.380  0.00  0.00    +0.000 C 
BRANCH  14  16
ATOM     15  C   UNL     1      52.196   9.426  16.889  0.00  0.00    +0.000 C 
ATOM     16  N   UNL     1      52.726   8.063  16.782  0.00  0.00    +0.000 NA
ATOM     17  C   UNL     1      51.966   7.179  17.674  0.00  0.00    +0.000 C 
ENDBRANCH  14  16
ENDBRANCH  13  14
ENDBRANCH   9  13
ENDBRANCH   3  10
ENDBRANCH   1   6
BRANCH   1  18
ATOM     18  C   UNL     1      45.174   3.238  12.275  0.00  0.00    +0.000 C 
BRANCH  18  19
ATOM     19  C   UNL     1      44.184   3.194  11.059  0.00  0.00    +0.000 C 
ATOM     20  C   UNL     1      43.408   1.855  11.051  0.00  0.00    +0.000 C 
ATOM     21  C   UNL     1      43.150   4.336  11.222  0.00  0.00    +0.000 C 
BRANCH  19  22
ATOM     22  C   UNL     1      44.993   3.308   9.743  0.00  0.00    +0.000 A 
ATOM     23  C   UNL     1      45.264   4.547   9.133  0.00  0.00    +0.000 A 
ATOM     24  C   UNL     1      46.037   4.633   7.973  0.00  0.00    +0.000 A 
ATOM     25  C   UNL     1      46.576   3.483   7.405  0.00  0.00    +0.000 A 
ATOM     26  C   UNL     1      46.334   2.234   7.986  0.00  0.00    +0.000 A 
ATOM     27  C   UNL     1      45.517   2.149   9.124  0.00  0.00    +0.000 A 
BRANCH  26  28
ATOM     28  C   UNL     1      46.995   1.050   7.369  0.00  0.00    +0.000 C 
ATOM     29  N   UNL     1      46.604  -0.197   7.780  0.00  0.00    +0.000 N 
ATOM     30  O   UNL     1      47.905   1.174   6.564  0.00  0.00    +0.000 OA
ATOM     31  H   UNL     1      45.958  -0.380   8.533  0.00  0.00    +0.000 HD
ATOM     32  H   UNL     1      47.155  -0.973   7.431  0.00  0.00    +0.000 HD
ENDBRANCH  26  28
ENDBRANCH  19  22
ENDBRANCH  18  19
ENDBRANCH   1  18
TORSDOF 9
ENDMDL
MODEL 3
REMARK VINA RESULT:    -6.613      3.976      8.183
REMARK INTER + INTRA:         -11.170
REMARK INTER:                 -10.070
REMARK INTRA:                  -1.100
REMARK UNBOUND:                -1.077
REMARK  Name = 
REMARK  13 active torsions:
REMARK  status: ('A' for Active; 'I' for Inactive)
REMARK    1  A    between atoms: C_1  and  N_2
REMARK    2  A    between atoms: N_2  and  C_3
REMARK    3  A    between atoms: N_2  and  C_4
REMARK    4  A    between atoms: C_4  and  C_5
REMARK    5  A    between atoms: C_5  and  N_6
REMARK    6  A    between atoms: C_7  and  C_9
REMARK    7  A    between atoms: C_12  and  N_13
REMARK    8  A    between atoms: N_13  and  C_14
REMARK    9  A    between atoms: C_14  and  C_15
REMARK   10  A    between atoms: C_15  and  C_16
REMARK   11  A    between atoms: C_15  and  C_17
REMARK   12  A    between atoms: C_15  and  C_18
REMARK   13  A    between atoms: C_22  and  C_23
REMARK                            x       y       z     vdW  Elec       q    Type
REMARK                         _______ _______ _______ _____ _____    ______ ____
ROOT
ATOM      1  N   UNL     1      49.052   7.860  14.861  0.00  0.00    +0.000 N 
ATOM      2  H   UNL     1      49.986   7.628  14.537  0.00  0.00    +0.000 HD
ENDROOT
BRANCH   1   6
ATOM      3  C   UNL     1      46.247   5.528  12.949  0.00  0.00    +0.000 A 
ATOM      4  C   UNL     1      47.139   4.961  13.851  0.00  0.00    +0.000 A 
ATOM      5  N   UNL     1      48.086   5.689  14.507  0.00  0.00    +0.000 NA
ATOM      6  C   UNL     1      48.131   7.011  14.232  0.00  0.00    +0.000 A 
ATOM      7  C   UNL     1      47.217   7.558  13.319  0.00  0.00    +0.000 A 
ATOM      8  N   UNL     1      46.264   6.854  12.657  0.00  0.00    +0.000 NA
BRANCH   3  10
ATOM      9  N   UNL     1      44.983   4.986  10.925  0.00  0.00    +0.000 N 
ATOM     10  C   UNL     1      45.245   4.689  12.248  0.00  0.00    +0.000 C 
ATOM     11  O   UNL     1      44.694   3.759  12.846  0.00  0.00    +0.000 OA
ATOM     12  H   UNL     1      45.621   5.592  10.426  0.00  0.00    +0.000 HD
BRANCH   9  13
ATOM     13  C   UNL     1      44.027   4.193  10.178  0.00  0.00    +0.000 C 
BRANCH  13  14
ATOM     14  C   UNL     1      44.395   3.981   8.692  0.00  0.00    +0.000 C 
BRANCH  14  16
ATOM     15  C   UNL     1      45.509   1.833   8.743  0.00  0.00    +0.000 C 
ATOM     16  N   UNL     1      45.678   3.269   8.497  0.00  0.00    +0.000 NA
ATOM     17  C   UNL     1      46.190   3.468   7.136  0.00  0.00    +0.000 C 
ENDBRANCH  14  16
ENDBRANCH  13  14
ENDBRANCH   9  13
ENDBRANCH   3  10
ENDBRANCH   1   6
BRANCH   1  18
ATOM     18  C   UNL     1      48.950   7.978  16.321  0.00  0.00    +0.000 C 
BRANCH  18  19
ATOM     19  C   UNL     1      50.147   7.282  17.056  0.00  0.00    +0.000 C 
ATOM     20  C   UNL     1      51.296   7.001  16.058  0.00  0.00    +0.000 C 
ATOM     21  C   UNL     1      50.691   8.248  18.140  0.00  0.00    +0.000 C 
BRANCH  19  22
ATOM     22  C   UNL     1      49.664   5.935  17.650  0.00  0.00    +0.000 A 
ATOM     23  C   UNL     1      48.659   5.865  18.632  0.00  0.00    +0.000 A 
ATOM     24  C   UNL     1      48.202   4.637  19.117  0.00  0.00    +0.000 A 
ATOM     25  C   UNL     1      48.725   3.449  18.618  0.00  0.00    +0.000 A 
ATOM     26  C   UNL     1      49.721   3.478  17.638  0.00  0.00    +0.000 A 
ATOM     27  C   UNL     1      50.210   4.714  17.188  0.00  0.00    +0.000 A 
BRANCH  26  28
ATOM     28  C   UNL     1      50.190   2.171  17.096  0.00  0.00    +0.000 C 
ATOM     29  N   UNL     1      51.144   1.485  17.801  0.00  0.00    +0.000 N 
ATOM     30  O   UNL     1      49.791   1.744  16.025  0.00  0.00    +0.000 OA
ATOM     31  H   UNL     1      51.619   1.833  18.620  0.00  0.00    +0.000 HD
ATOM     32  H   UNL     1      51.526   0.664  17.346  0.00  0.00    +0.000 HD
ENDBRANCH  26  28
ENDBRANCH  19  22
ENDBRANCH  18  19
ENDBRANCH   1  18
TORSDOF 9
ENDMDL
MODEL 4
REMARK VINA RESULT:    -6.423      3.554      5.152
REMARK INTER + INTRA:         -10.879
REMARK INTER:                  -9.884
REMARK INTRA:                  -0.995
REMARK UNBOUND:                -1.077
REMARK  Name = 
REMARK  13 active torsions:
REMARK  status: ('A' for Active; 'I' for Inactive)
REMARK    1  A    between atoms: C_1  and  N_2
REMARK    2  A    between atoms: N_2  and  C_3
REMARK    3  A    between atoms: N_2  and  C_4
REMARK    4  A    between atoms: C_4  and  C_5
REMARK    5  A    between atoms: C_5  and  N_6
REMARK    6  A    between atoms: C_7  and  C_9
REMARK    7  A    between atoms: C_12  and  N_13
REMARK    8  A    between atoms: N_13  and  C_14
REMARK    9  A    between atoms: C_14  and  C_15
REMARK   10  A    between atoms: C_15  and  C_16
REMARK   11  A    between atoms: C_15  and  C_17
REMARK   12  A    between atoms: C_15  and  C_18
REMARK   13  A    between atoms: C_22  and  C_23
REMARK                            x       y       z     vdW  Elec       q    Type
REMARK                         _______ _______ _______ _____ _____    ______ ____
ROOT
ATOM      1  N   UNL     1      45.963   3.920  13.178  0.00  0.00    +0.000 N 
ATOM      2  H   UNL     1      46.575   3.609  12.431  0.00  0.00    +0.000 HD
ENDROOT
BRANCH   1   6
ATOM      3  C   UNL     1      48.358   5.475  16.145  0.00  0.00    +0.000 A 
ATOM      4  C   UNL     1      47.582   4.348  16.383  0.00  0.00    +0.000 A 
ATOM      5  N   UNL     1      46.773   3.796  15.436  0.00  0.00    +0.000 NA
ATOM      6  C   UNL     1      46.746   4.409  14.232  0.00  0.00    +0.000 A 
ATOM      7  C   UNL     1      47.542   5.545  14.017  0.00  0.00    +0.000 A 
ATOM      8  N   UNL     1      48.357   6.108  14.944  0.00  0.00    +0.000 NA
BRANCH   3  10
ATOM      9  N   UNL     1      48.997   5.598  18.503  0.00  0.00    +0.000 N 
ATOM     10  C   UNL     1      49.212   6.047  17.215  0.00  0.00    +0.000 C 
ATOM     11  O   UNL     1      50.081   6.876  16.933  0.00  0.00    +0.000 OA
ATOM     12  H   UNL     1      48.446   4.761  18.643  0.00  0.00    +0.000 HD
BRANCH   9  13
ATOM     13  C   UNL     1      49.809   6.103  19.593  0.00  0.00    +0.000 C 
BRANCH  13  14
ATOM     14  C   UNL     1      50.626   5.022  20.335  0.00  0.00    +0.000 C 
BRANCH  14  16
ATOM     15  C   UNL     1      52.462   4.061  19.085  0.00  0.00    +0.000 C 
ATOM     16  N   UNL     1      52.079   5.087  20.060  0.00  0.00    +0.000 NA
ATOM     17  C   UNL     1      52.461   6.408  19.546  0.00  0.00    +0.000 C 
ENDBRANCH  14  16
ENDBRANCH  13  14
ENDBRANCH   9  13
ENDBRANCH   3  10
ENDBRANCH   1   6
BRANCH   1  18
ATOM     18  C   UNL     1      44.865   4.781  12.718  0.00  0.00    +0.000 C 
BRANCH  18  19
ATOM     19  C   UNL     1      43.986   4.084  11.622  0.00  0.00    +0.000 C 
ATOM     20  C   UNL     1      43.637   2.641  12.057  0.00  0.00    +0.000 C 
ATOM     21  C   UNL     1      42.657   4.868  11.481  0.00  0.00    +0.000 C 
BRANCH  19  22
ATOM     22  C   UNL     1      44.783   4.024  10.295  0.00  0.00    +0.000 A 
ATOM     23  C   UNL     1      45.263   5.181   9.654  0.00  0.00    +0.000 A 
ATOM     24  C   UNL     1      46.023   5.102   8.484  0.00  0.00    +0.000 A 
ATOM     25  C   UNL     1      46.339   3.863   7.938  0.00  0.00    +0.000 A 
ATOM     26  C   UNL     1      45.886   2.690   8.549  0.00  0.00    +0.000 A 
ATOM     27  C   UNL     1      45.083   2.777   9.697  0.00  0.00    +0.000 A 
BRANCH  26  28
ATOM     28  C   UNL     1      46.316   1.394   7.953  0.00  0.00    +0.000 C 
ATOM     29  N   UNL     1      47.148   1.427   6.866  0.00  0.00    +0.000 N 
ATOM     30  O   UNL     1      45.897   0.327   8.373  0.00  0.00    +0.000 OA
ATOM     31  H   UNL     1      47.430   2.266   6.380  0.00  0.00    +0.000 HD
ATOM     32  H   UNL     1      47.324   0.538   6.413  0.00  0.00    +0.000 HD
ENDBRANCH  26  28
ENDBRANCH  19  22
ENDBRANCH  18  19
ENDBRANCH   1  18
TORSDOF 9
ENDMDL
MODEL 5
REMARK VINA RESULT:    -6.408      3.745      7.956
REMARK INTER + INTRA:         -10.857
REMARK INTER:                  -9.842
REMARK INTRA:                  -1.015
REMARK UNBOUND:                -1.077
REMARK  Name = 
REMARK  13 active torsions:
REMARK  status: ('A' for Active; 'I' for Inactive)
REMARK    1  A    between atoms: C_1  and  N_2
REMARK    2  A    between atoms: N_2  and  C_3
REMARK    3  A    between atoms: N_2  and  C_4
REMARK    4  A    between atoms: C_4  and  C_5
REMARK    5  A    between atoms: C_5  and  N_6
REMARK    6  A    between atoms: C_7  and  C_9
REMARK    7  A    between atoms: C_12  and  N_13
REMARK    8  A    between atoms: N_13  and  C_14
REMARK    9  A    between atoms: C_14  and  C_15
REMARK   10  A    between atoms: C_15  and  C_16
REMARK   11  A    between atoms: C_15  and  C_17
REMARK   12  A    between atoms: C_15  and  C_18
REMARK   13  A    between atoms: C_22  and  C_23
REMARK                            x       y       z     vdW  Elec       q    Type
REMARK                         _______ _______ _______ _____ _____    ______ ____
ROOT
ATOM      1  N   UNL     1      47.521   8.146  14.268  0.00  0.00    +0.000 N 
ATOM      2  H   UNL     1      47.563   9.095  13.913  0.00  0.00    +0.000 HD
ENDROOT
BRANCH   1   6
ATOM      3  C   UNL     1      45.585   5.649  11.627  0.00  0.00    +0.000 A 
ATOM      4  C   UNL     1      45.408   7.025  11.556  0.00  0.00    +0.000 A 
ATOM      5  N   UNL     1      46.024   7.893  12.406  0.00  0.00    +0.000 NA
ATOM      6  C   UNL     1      46.824   7.349  13.350  0.00  0.00    +0.000 A 
ATOM      7  C   UNL     1      46.987   5.956  13.398  0.00  0.00    +0.000 A 
ATOM      8  N   UNL     1      46.387   5.075  12.560  0.00  0.00    +0.000 NA
BRANCH   3  10
ATOM      9  N   UNL     1      45.319   4.723   9.378  0.00  0.00    +0.000 N 
ATOM     10  C   UNL     1      44.878   4.745  10.686  0.00  0.00    +0.000 C 
ATOM     11  O   UNL     1      43.947   4.043  11.090  0.00  0.00    +0.000 OA
ATOM     12  H   UNL     1      46.219   5.131   9.159  0.00  0.00    +0.000 HD
BRANCH   9  13
ATOM     13  C   UNL     1      44.683   3.849   8.412  0.00  0.00    +0.000 C 
BRANCH  13  14
ATOM     14  C   UNL     1      45.321   2.446   8.302  0.00  0.00    +0.000 C 
BRANCH  14  16
ATOM     15  C   UNL     1      47.081   1.075   7.364  0.00  0.00    +0.000 C 
ATOM     16  N   UNL     1      46.640   2.448   7.630  0.00  0.00    +0.000 NA
ATOM     17  C   UNL     1      46.589   3.192   6.366  0.00  0.00    +0.000 C 
ENDBRANCH  14  16
ENDBRANCH  13  14
ENDBRANCH   9  13
ENDBRANCH   3  10
ENDBRANCH   1   6
BRANCH   1  18
ATOM     18  C   UNL     1      48.817   7.635  14.733  0.00  0.00    +0.000 C 
BRANCH  18  19
ATOM     19  C   UNL     1      49.157   8.118  16.186  0.00  0.00    +0.000 C 
ATOM     20  C   UNL     1      50.691   8.222  16.368  0.00  0.00    +0.000 C 
ATOM     21  C   UNL     1      48.562   9.535  16.388  0.00  0.00    +0.000 C 
BRANCH  19  22
ATOM     22  C   UNL     1      48.604   7.091  17.204  0.00  0.00    +0.000 A 
ATOM     23  C   UNL     1      48.210   7.459  18.504  0.00  0.00    +0.000 A 
ATOM     24  C   UNL     1      47.667   6.527  19.391  0.00  0.00    +0.000 A 
ATOM     25  C   UNL     1      47.485   5.206  18.992  0.00  0.00    +0.000 A 
ATOM     26  C   UNL     1      47.859   4.803  17.707  0.00  0.00    +0.000 A 
ATOM     27  C   UNL     1      48.448   5.733  16.837  0.00  0.00    +0.000 A 
BRANCH  26  28
ATOM     28  C   UNL     1      47.575   3.393  17.320  0.00  0.00    +0.000 C 
ATOM     29  N   UNL     1      48.586   2.662  16.752  0.00  0.00    +0.000 N 
ATOM     30  O   UNL     1      46.461   2.909  17.442  0.00  0.00    +0.000 OA
ATOM     31  H   UNL     1      49.490   3.030  16.496  0.00  0.00    +0.000 HD
ATOM     32  H   UNL     1      48.327   1.751  16.392  0.00  0.00    +0.000 HD
ENDBRANCH  26  28
ENDBRANCH  19  22
ENDBRANCH  18  19
ENDBRANCH   1  18
TORSDOF 9
ENDMDL
MODEL 6
REMARK VINA RESULT:    -6.389      2.222      2.627
REMARK INTER + INTRA:         -10.827
REMARK INTER:                  -9.876
REMARK INTRA:                  -0.951
REMARK UNBOUND:                -1.077
REMARK  Name = 
REMARK  13 active torsions:
REMARK  status: ('A' for Active; 'I' for Inactive)
REMARK    1  A    between atoms: C_1  and  N_2
REMARK    2  A    between atoms: N_2  and  C_3
REMARK    3  A    between atoms: N_2  and  C_4
REMARK    4  A    between atoms: C_4  and  C_5
REMARK    5  A    between atoms: C_5  and  N_6
REMARK    6  A    between atoms: C_7  and  C_9
REMARK    7  A    between atoms: C_12  and  N_13
REMARK    8  A    between atoms: N_13  and  C_14
REMARK    9  A    between atoms: C_14  and  C_15
REMARK   10  A    between atoms: C_15  and  C_16
REMARK   11  A    between atoms: C_15  and  C_17
REMARK   12  A    between atoms: C_15  and  C_18
REMARK   13  A    between atoms: C_22  and  C_23
REMARK                            x       y       z     vdW  Elec       q    Type
REMARK                         _______ _______ _______ _____ _____    ______ ____
ROOT
ATOM      1  N   UNL     1      44.978   4.139  13.237  0.00  0.00    +0.000 N 
ATOM      2  H   UNL     1      44.520   3.815  14.082  0.00  0.00    +0.000 HD
ENDROOT
BRANCH   1   6
ATOM      3  C   UNL     1      48.240   6.501  14.098  0.00  0.00    +0.000 A 
ATOM      4  C   UNL     1      47.838   5.504  14.979  0.00  0.00    +0.000 A 
ATOM      5  N   UNL     1      46.766   4.698  14.741  0.00  0.00    +0.000 NA
ATOM      6  C   UNL     1      46.087   4.918  13.593  0.00  0.00    +0.000 A 
ATOM      7  C   UNL     1      46.516   5.930  12.720  0.00  0.00    +0.000 A 
ATOM      8  N   UNL     1      47.582   6.741  12.936  0.00  0.00    +0.000 NA
BRANCH   3  10
ATOM      9  N   UNL     1      49.410   8.640  13.887  0.00  0.00    +0.000 N 
ATOM     10  C   UNL     1      49.406   7.363  14.412  0.00  0.00    +0.000 C 
ATOM     11  O   UNL     1      50.314   6.932  15.130  0.00  0.00    +0.000 OA
ATOM     12  H   UNL     1      48.549   9.015  13.511  0.00  0.00    +0.000 HD
BRANCH   9  13
ATOM     13  C   UNL     1      50.512   9.538  14.170  0.00  0.00    +0.000 C 
BRANCH  13  14
ATOM     14  C   UNL     1      50.467  10.870  13.389  0.00  0.00    +0.000 C 
BRANCH  14  16
ATOM     15  C   UNL     1      52.311   9.862  12.190  0.00  0.00    +0.000 C 
ATOM     16  N   UNL     1      51.213  10.832  12.111  0.00  0.00    +0.000 NA
ATOM     17  C   UNL     1      50.332  10.473  10.994  0.00  0.00    +0.000 C 
ENDBRANCH  14  16
ENDBRANCH  13  14
ENDBRANCH   9  13
ENDBRANCH   3  10
ENDBRANCH   1   6
BRANCH   1  18
ATOM     18  C   UNL     1      45.209   3.077  12.249  0.00  0.00    +0.000 C 
BRANCH  18  19
ATOM     19  C   UNL     1      44.211   3.163  11.043  0.00  0.00    +0.000 C 
ATOM     20  C   UNL     1      43.354   1.876  10.967  0.00  0.00    +0.000 C 
ATOM     21  C   UNL     1      43.250   4.355  11.280  0.00  0.00    +0.000 C 
BRANCH  19  22
ATOM     22  C   UNL     1      45.016   3.302   9.727  0.00  0.00    +0.000 A 
ATOM     23  C   UNL     1      45.286   4.552   9.140  0.00  0.00    +0.000 A 
ATOM     24  C   UNL     1      46.057   4.659   7.980  0.00  0.00    +0.000 A 
ATOM     25  C   UNL     1      46.595   3.520   7.390  0.00  0.00    +0.000 A 
ATOM     26  C   UNL     1      46.354   2.261   7.948  0.00  0.00    +0.000 A 
ATOM     27  C   UNL     1      45.540   2.154   9.085  0.00  0.00    +0.000 A 
BRANCH  26  28
ATOM     28  C   UNL     1      47.015   1.089   7.307  0.00  0.00    +0.000 C 
ATOM     29  N   UNL     1      46.676  -0.164   7.746  0.00  0.00    +0.000 N 
ATOM     30  O   UNL     1      47.881   1.229   6.458  0.00  0.00    +0.000 OA
ATOM     31  H   UNL     1      46.073  -0.357   8.531  0.00  0.00    +0.000 HD
ATOM     32  H   UNL     1      47.229  -0.928   7.376  0.00  0.00    +0.000 HD
ENDBRANCH  26  28
ENDBRANCH  19  22
ENDBRANCH  18  19
ENDBRANCH   1  18
TORSDOF 9
ENDMDL
MODEL 7
REMARK VINA RESULT:    -6.373      3.512      5.282
REMARK INTER + INTRA:         -10.803
REMARK INTER:                  -9.851
REMARK INTRA:                  -0.953
REMARK UNBOUND:                -1.077
REMARK  Name = 
REMARK  13 active torsions:
REMARK  status: ('A' for Active; 'I' for Inactive)
REMARK    1  A    between atoms: C_1  and  N_2
REMARK    2  A    between atoms: N_2  and  C_3
REMARK    3  A    between atoms: N_2  and  C_4
REMARK    4  A    between atoms: C_4  and  C_5
REMARK    5  A    between atoms: C_5  and  N_6
REMARK    6  A    between atoms: C_7  and  C_9
REMARK    7  A    between atoms: C_12  and  N_13
REMARK    8  A    between atoms: N_13  and  C_14
REMARK    9  A    between atoms: C_14  and  C_15
REMARK   10  A    between atoms: C_15  and  C_16
REMARK   11  A    between atoms: C_15  and  C_17
REMARK   12  A    between atoms: C_15  and  C_18
REMARK   13  A    between atoms: C_22  and  C_23
REMARK                            x       y       z     vdW  Elec       q    Type
REMARK                         _______ _______ _______ _____ _____    ______ ____
ROOT
ATOM      1  N   UNL     1      45.974   3.878  13.121  0.00  0.00    +0.000 N 
ATOM      2  H   UNL     1      46.585   3.569  12.372  0.00  0.00    +0.000 HD
ENDROOT
BRANCH   1   6
ATOM      3  C   UNL     1      48.369   5.421  16.095  0.00  0.00    +0.000 A 
ATOM      4  C   UNL     1      47.647   4.253  16.305  0.00  0.00    +0.000 A 
ATOM      5  N   UNL     1      46.840   3.703  15.355  0.00  0.00    +0.000 NA
ATOM      6  C   UNL     1      46.760   4.360  14.176  0.00  0.00    +0.000 A 
ATOM      7  C   UNL     1      47.501   5.536  13.989  0.00  0.00    +0.000 A 
ATOM      8  N   UNL     1      48.313   6.099  14.920  0.00  0.00    +0.000 NA
BRANCH   3  10
ATOM      9  N   UNL     1      49.411   7.355  17.172  0.00  0.00    +0.000 N 
ATOM     10  C   UNL     1      49.222   5.988  17.168  0.00  0.00    +0.000 C 
ATOM     11  O   UNL     1      49.716   5.242  18.020  0.00  0.00    +0.000 OA
ATOM     12  H   UNL     1      48.804   7.933  16.606  0.00  0.00    +0.000 HD
BRANCH   9  13
ATOM     13  C   UNL     1      50.220   7.974  18.205  0.00  0.00    +0.000 C 
BRANCH  13  14
ATOM     14  C   UNL     1      49.603   9.250  18.820  0.00  0.00    +0.000 C 
BRANCH  14  16
ATOM     15  C   UNL     1      47.517   8.777  19.952  0.00  0.00    +0.000 C 
ATOM     16  N   UNL     1      48.952   9.019  20.129  0.00  0.00    +0.000 NA
ATOM     17  C   UNL     1      49.552   7.874  20.824  0.00  0.00    +0.000 C 
ENDBRANCH  14  16
ENDBRANCH  13  14
ENDBRANCH   9  13
ENDBRANCH   3  10
ENDBRANCH   1   6
BRANCH   1  18
ATOM     18  C   UNL     1      44.879   4.744  12.666  0.00  0.00    +0.000 C 
BRANCH  18  19
ATOM     19  C   UNL     1      43.998   4.055  11.566  0.00  0.00    +0.000 C 
ATOM     20  C   UNL     1      43.633   2.615  12.000  0.00  0.00    +0.000 C 
ATOM     21  C   UNL     1      42.676   4.852  11.421  0.00  0.00    +0.000 C 
BRANCH  19  22
ATOM     22  C   UNL     1      44.800   3.988  10.243  0.00  0.00    +0.000 A 
ATOM     23  C   UNL     1      45.274   5.142   9.592  0.00  0.00    +0.000 A 
ATOM     24  C   UNL     1      46.038   5.057   8.426  0.00  0.00    +0.000 A 
ATOM     25  C   UNL     1      46.365   3.814   7.893  0.00  0.00    +0.000 A 
ATOM     26  C   UNL     1      45.918   2.645   8.515  0.00  0.00    +0.000 A 
ATOM     27  C   UNL     1      45.111   2.737   9.659  0.00  0.00    +0.000 A 
BRANCH  26  28
ATOM     28  C   UNL     1      46.359   1.346   7.933  0.00  0.00    +0.000 C 
ATOM     29  N   UNL     1      47.241   1.374   6.885  0.00  0.00    +0.000 N 
ATOM     30  O   UNL     1      45.908   0.283   8.328  0.00  0.00    +0.000 OA
ATOM     31  H   UNL     1      47.554   2.210   6.416  0.00  0.00    +0.000 HD
ATOM     32  H   UNL     1      47.426   0.484   6.436  0.00  0.00    +0.000 HD
ENDBRANCH  26  28
ENDBRANCH  19  22
ENDBRANCH  18  19
ENDBRANCH   1  18
TORSDOF 9
ENDMDL
MODEL 8
REMARK VINA RESULT:    -6.232      4.797      8.879
REMARK INTER + INTRA:         -10.589
REMARK INTER:                  -9.453
REMARK INTRA:                  -1.136
REMARK UNBOUND:                -1.077
REMARK  Name = 
REMARK  13 active torsions:
REMARK  status: ('A' for Active; 'I' for Inactive)
REMARK    1  A    between atoms: C_1  and  N_2
REMARK    2  A    between atoms: N_2  and  C_3
REMARK    3  A    between atoms: N_2  and  C_4
REMARK    4  A    between atoms: C_4  and  C_5
REMARK    5  A    between atoms: C_5  and  N_6
REMARK    6  A    between atoms: C_7  and  C_9
REMARK    7  A    between atoms: C_12  and  N_13
REMARK    8  A    between atoms: N_13  and  C_14
REMARK    9  A    between atoms: C_14  and  C_15
REMARK   10  A    between atoms: C_15  and  C_16
REMARK   11  A    between atoms: C_15  and  C_17
REMARK   12  A    between atoms: C_15  and  C_18
REMARK   13  A    between atoms: C_22  and  C_23
REMARK                            x       y       z     vdW  Elec       q    Type
REMARK                         _______ _______ _______ _____ _____    ______ ____
ROOT
ATOM      1  N   UNL     1      49.618   7.453  16.119  0.00  0.00    +0.000 N 
ATOM      2  H   UNL     1      49.534   8.418  15.816  0.00  0.00    +0.000 HD
ENDROOT
BRANCH   1   6
ATOM      3  C   UNL     1      47.026   4.993  14.072  0.00  0.00    +0.000 A 
ATOM      4  C   UNL     1      47.537   6.137  13.470  0.00  0.00    +0.000 A 
ATOM      5  N   UNL     1      48.396   6.983  14.105  0.00  0.00    +0.000 NA
ATOM      6  C   UNL     1      48.730   6.665  15.375  0.00  0.00    +0.000 A 
ATOM      7  C   UNL     1      48.202   5.503  15.958  0.00  0.00    +0.000 A 
ATOM      8  N   UNL     1      47.349   4.645  15.343  0.00  0.00    +0.000 NA
BRANCH   3  10
ATOM      9  N   UNL     1      44.960   4.703  12.794  0.00  0.00    +0.000 N 
ATOM     10  C   UNL     1      46.082   4.113  13.342  0.00  0.00    +0.000 C 
ATOM     11  O   UNL     1      46.324   2.907  13.232  0.00  0.00    +0.000 OA
ATOM     12  H   UNL     1      44.930   5.710  12.711  0.00  0.00    +0.000 HD
BRANCH   9  13
ATOM     13  C   UNL     1      44.006   3.901  12.054  0.00  0.00    +0.000 C 
BRANCH  13  14
ATOM     14  C   UNL     1      43.514   4.545  10.738  0.00  0.00    +0.000 C 
BRANCH  14  16
ATOM     15  C   UNL     1      45.395   4.776   9.233  0.00  0.00    +0.000 C 
ATOM     16  N   UNL     1      44.182   4.008   9.532  0.00  0.00    +0.000 NA
ATOM     17  C   UNL     1      44.537   2.595   9.709  0.00  0.00    +0.000 C 
ENDBRANCH  14  16
ENDBRANCH  13  14
ENDBRANCH   9  13
ENDBRANCH   3  10
ENDBRANCH   1   6
BRANCH   1  18
ATOM     18  C   UNL     1      51.007   6.983  16.200  0.00  0.00    +0.000 C 
BRANCH  18  19
ATOM     19  C   UNL     1      51.495   6.831  17.683  0.00  0.00    +0.000 C 
ATOM     20  C   UNL     1      52.636   7.836  17.974  0.00  0.00    +0.000 C 
ATOM     21  C   UNL     1      50.316   7.171  18.629  0.00  0.00    +0.000 C 
BRANCH  19  22
ATOM     22  C   UNL     1      52.032   5.394  17.895  0.00  0.00    +0.000 A 
ATOM     23  C   UNL     1      53.221   5.133  18.601  0.00  0.00    +0.000 A 
ATOM     24  C   UNL     1      53.662   3.827  18.824  0.00  0.00    +0.000 A 
ATOM     25  C   UNL     1      52.914   2.748  18.365  0.00  0.00    +0.000 A 
ATOM     26  C   UNL     1      51.723   2.966  17.665  0.00  0.00    +0.000 A 
ATOM     27  C   UNL     1      51.310   4.281  17.402  0.00  0.00    +0.000 A 
BRANCH  26  28
ATOM     28  C   UNL     1      50.934   1.769  17.261  0.00  0.00    +0.000 C 
ATOM     29  N   UNL     1      51.275   0.558  17.802  0.00  0.00    +0.000 N 
ATOM     30  O   UNL     1      50.048   1.841  16.425  0.00  0.00    +0.000 OA
ATOM     31  H   UNL     1      52.076   0.394  18.394  0.00  0.00    +0.000 HD
ATOM     32  H   UNL     1      50.801  -0.250  17.417  0.00  0.00    +0.000 HD
ENDBRANCH  26  28
ENDBRANCH  19  22
ENDBRANCH  18  19
ENDBRANCH   1  18
TORSDOF 9
ENDMDL
MODEL 9
REMARK VINA RESULT:    -6.228      3.705      5.065
REMARK INTER + INTRA:         -10.581
REMARK INTER:                  -9.747
REMARK INTRA:                  -0.834
REMARK UNBOUND:                -1.077
REMARK  Name = 
REMARK  13 active torsions:
REMARK  status: ('A' for Active; 'I' for Inactive)
REMARK    1  A    between atoms: C_1  and  N_2
REMARK    2  A    between atoms: N_2  and  C_3
REMARK    3  A    between atoms: N_2  and  C_4
REMARK    4  A    between atoms: C_4  and  C_5
REMARK    5  A    between atoms: C_5  and  N_6
REMARK    6  A    between atoms: C_7  and  C_9
REMARK    7  A    between atoms: C_12  and  N_13
REMARK    8  A    between atoms: N_13  and  C_14
REMARK    9  A    between atoms: C_14  and  C_15
REMARK   10  A    between atoms: C_15  and  C_16
REMARK   11  A    between atoms: C_15  and  C_17
REMARK   12  A    between atoms: C_15  and  C_18
REMARK   13  A    between atoms: C_22  and  C_23
REMARK                            x       y       z     vdW  Elec       q    Type
REMARK                         _______ _______ _______ _____ _____    ______ ____
ROOT
ATOM      1  N   UNL     1      46.021   4.371  13.029  0.00  0.00    +0.000 N 
ATOM      2  H   UNL     1      46.602   4.501  12.207  0.00  0.00    +0.000 HD
ENDROOT
BRANCH   1   6
ATOM      3  C   UNL     1      48.388   5.245  16.284  0.00  0.00    +0.000 A 
ATOM      4  C   UNL     1      47.568   4.123  16.289  0.00  0.00    +0.000 A 
ATOM      5  N   UNL     1      46.766   3.792  15.238  0.00  0.00    +0.000 NA
ATOM      6  C   UNL     1      46.792   4.622  14.172  0.00  0.00    +0.000 A 
ATOM      7  C   UNL     1      47.631   5.746  14.193  0.00  0.00    +0.000 A 
ATOM      8  N   UNL     1      48.440   6.093  15.226  0.00  0.00    +0.000 NA
BRANCH   3  10
ATOM      9  N   UNL     1      49.970   4.543  18.014  0.00  0.00    +0.000 N 
ATOM     10  C   UNL     1      49.232   5.570  17.460  0.00  0.00    +0.000 C 
ATOM     11  O   UNL     1      49.264   6.726  17.894  0.00  0.00    +0.000 OA
ATOM     12  H   UNL     1      50.088   3.689  17.487  0.00  0.00    +0.000 HD
BRANCH   9  13
ATOM     13  C   UNL     1      50.827   4.798  19.155  0.00  0.00    +0.000 C 
BRANCH  13  14
ATOM     14  C   UNL     1      52.299   5.098  18.792  0.00  0.00    +0.000 C 
BRANCH  14  16
ATOM     15  C   UNL     1      54.226   4.531  17.442  0.00  0.00    +0.000 C 
ATOM     16  N   UNL     1      52.907   4.084  17.902  0.00  0.00    +0.000 NA
ATOM     17  C   UNL     1      53.047   2.794  18.589  0.00  0.00    +0.000 C 
ENDBRANCH  14  16
ENDBRANCH  13  14
ENDBRANCH   9  13
ENDBRANCH   3  10
ENDBRANCH   1   6
BRANCH   1  18
ATOM     18  C   UNL     1      44.724   5.055  12.946  0.00  0.00    +0.000 C 
BRANCH  18  19
ATOM     19  C   UNL     1      44.361   5.459  11.475  0.00  0.00    +0.000 C 
ATOM     20  C   UNL     1      42.878   5.892  11.392  0.00  0.00    +0.000 C 
ATOM     21  C   UNL     1      45.230   6.676  11.068  0.00  0.00    +0.000 C 
BRANCH  19  22
ATOM     22  C   UNL     1      44.576   4.239  10.546  0.00  0.00    +0.000 A 
ATOM     23  C   UNL     1      43.935   3.005  10.766  0.00  0.00    +0.000 A 
ATOM     24  C   UNL     1      44.103   1.932   9.888  0.00  0.00    +0.000 A 
ATOM     25  C   UNL     1      44.900   2.072   8.756  0.00  0.00    +0.000 A 
ATOM     26  C   UNL     1      45.548   3.284   8.500  0.00  0.00    +0.000 A 
ATOM     27  C   UNL     1      45.414   4.344   9.410  0.00  0.00    +0.000 A 
BRANCH  26  28
ATOM     28  C   UNL     1      46.331   3.391   7.237  0.00  0.00    +0.000 C 
ATOM     29  N   UNL     1      46.712   2.232   6.613  0.00  0.00    +0.000 N 
ATOM     30  O   UNL     1      46.683   4.472   6.793  0.00  0.00    +0.000 OA
ATOM     31  H   UNL     1      46.577   1.305   6.986  0.00  0.00    +0.000 HD
ATOM     32  H   UNL     1      47.343   2.338   5.827  0.00  0.00    +0.000 HD
ENDBRANCH  26  28
ENDBRANCH  19  22
ENDBRANCH  18  19
ENDBRANCH   1  18
TORSDOF 9
ENDMDL
