MODEL 1
REMARK VINA RESULT:    -8.129      0.000      0.000
REMARK INTER + INTRA:         -12.694
REMARK INTER:                 -11.694
REMARK INTRA:                  -1.001
REMARK UNBOUND:                -1.001
REMARK  Name = 
REMARK  11 active torsions:
REMARK  status: ('A' for Active; 'I' for Inactive)
REMARK    1  A    between atoms: C_1  and  C_2
REMARK    2  A    between atoms: C_2  and  C_3
REMARK    3  A    between atoms: C_2  and  C_16
REMARK    4  A    between atoms: C_3  and  N_4
REMARK    5  A    between atoms: N_4  and  C_5
REMARK    6  A    between atoms: C_8  and  S_9
REMARK    7  A    between atoms: S_9  and  N_10
REMARK    8  A    between atoms: C_20  and  O_21
REMARK    9  A    between atoms: O_21  and  C_22
REMARK   10  A    between atoms: C_24  and  C_25
REMARK   11  A    between atoms: C_24  and  C_26
REMARK                            x       y       z     vdW  Elec       q    Type
REMARK                         _______ _______ _______ _____ _____    ______ ____
ROOT
ATOM      1  C   UNL     1      44.489   5.684  11.215  0.00  0.00    +0.000 C 
ENDROOT
BRANCH   1   3
ATOM      2  C   UNL     1      43.575   4.549  13.325  0.00  0.00    +0.000 C 
ATOM      3  C   UNL     1      44.769   4.698  12.376  0.00  0.00    +0.000 C 
BRANCH   3   4
ATOM      4  C   UNL     1      46.025   5.117  13.140  0.00  0.00    +0.000 A 
ATOM      5  C   UNL     1      46.879   6.091  12.615  0.00  0.00    +0.000 A 
ATOM      6  C   UNL     1      47.995   6.480  13.350  0.00  0.00    +0.000 A 
ATOM      7  N   UNL     1      48.315   5.996  14.573  0.00  0.00    +0.000 NA
ATOM      8  C   UNL     1      47.471   5.074  15.076  0.00  0.00    +0.000 A 
ATOM      9  C   UNL     1      46.346   4.597  14.402  0.00  0.00    +0.000 A 
BRANCH   8  10
ATOM     10  O   UNL     1      47.594   4.684  16.397  0.00  0.00    +0.000 OA
BRANCH  10  11
ATOM     11  C   UNL     1      48.211   3.401  16.645  0.00  0.00    +0.000 C 
ATOM     12  C   UNL     1      48.286   3.155  18.140  0.00  0.00    +0.000 C 
ATOM     13  C   UNL     1      49.559   3.296  17.352  0.00  0.00    +0.000 C 
ATOM     14  C   UNL     1      50.373   2.029  17.231  0.00  0.00    +0.000 C 
ATOM     15  C   UNL     1      50.398   4.536  17.511  0.00  0.00    +0.000 C 
ENDBRANCH  10  11
ENDBRANCH   8  10
ENDBRANCH   3   4
ENDBRANCH   1   3
BRANCH   1  16
ATOM     16  N   UNL     1      43.841   5.040  10.062  0.00  0.00    +0.000 N 
ATOM     17  H   UNL     1      43.382   5.703   9.434  0.00  0.00    +0.000 HD
BRANCH  16  18
ATOM     18  C   UNL     1      44.659   4.181   9.291  0.00  0.00    +0.000 A 
ATOM     19  C   UNL     1      45.613   4.661   8.384  0.00  0.00    +0.000 A 
ATOM     20  C   UNL     1      46.422   3.784   7.655  0.00  0.00    +0.000 A 
ATOM     21  C   UNL     1      46.311   2.406   7.856  0.00  0.00    +0.000 A 
ATOM     22  C   UNL     1      45.403   1.896   8.782  0.00  0.00    +0.000 A 
ATOM     23  C   UNL     1      44.604   2.787   9.498  0.00  0.00    +0.000 A 
ATOM     24  F   UNL     1      43.728   2.292  10.386  0.00  0.00    +0.000 F 
BRANCH  21  25
ATOM     25  S   UNL     1      47.292   1.311   6.876  0.00  0.00    +0.000 S 
ATOM     26  O   UNL     1      46.633   1.087   5.611  0.00  0.00    +0.000 OA
ATOM     27  O   UNL     1      48.677   1.710   6.965  0.00  0.00    +0.000 OA
BRANCH  25  28
ATOM     28  N   UNL     1      47.167  -0.128   7.728  0.00  0.00    +0.000 NA
ATOM     29  H   UNL     1      46.728  -0.839   7.140  0.00  0.00    +0.000 HD
ATOM     30  H   UNL     1      48.084  -0.402   8.082  0.00  0.00    +0.000 HD
ENDBRANCH  25  28
ENDBRANCH  21  25
ENDBRANCH  16  18
ENDBRANCH   1  16
TORSDOF 8
ENDMDL
MODEL 2
REMARK VINA RESULT:    -7.689      3.565      8.159
REMARK INTER + INTRA:         -12.061
REMARK INTER:                 -10.842
REMARK INTRA:                  -1.220
REMARK UNBOUND:                -1.001
REMARK  Name = 
REMARK  11 active torsions:
REMARK  status: ('A' for Active; 'I' for Inactive)
REMARK    1  A    between atoms: C_1  and  C_2
REMARK    2  A    between atoms: C_2  and  C_3
REMARK    3  A    between atoms: C_2  and  C_16
REMARK    4  A    between atoms: C_3  and  N_4
REMARK    5  A    between atoms: N_4  and  C_5
REMARK    6  A    between atoms: C_8  and  S_9
REMARK    7  A    between atoms: S_9  and  N_10
REMARK    8  A    between atoms: C_20  and  O_21
REMARK    9  A    between atoms: O_21  and  C_22
REMARK   10  A    between atoms: C_24  and  C_25
REMARK   11  A    between atoms: C_24  and  C_26
REMARK                            x       y       z     vdW  Elec       q    Type
REMARK                         _______ _______ _______ _____ _____    ______ ____
ROOT
ATOM      1  C   UNL     1      47.185   6.707  11.649  0.00  0.00    +0.000 C 
ENDROOT
BRANCH   1   3
ATOM      2  C   UNL     1      44.994   7.965  12.088  0.00  0.00    +0.000 C 
ATOM      3  C   UNL     1      45.738   6.990  11.171  0.00  0.00    +0.000 C 
BRANCH   3   4
ATOM      4  C   UNL     1      44.961   5.682  11.018  0.00  0.00    +0.000 A 
ATOM      5  C   UNL     1      43.749   5.499  11.690  0.00  0.00    +0.000 A 
ATOM      6  C   UNL     1      43.045   4.313  11.504  0.00  0.00    +0.000 A 
ATOM      7  N   UNL     1      43.437   3.308  10.685  0.00  0.00    +0.000 NA
ATOM      8  C   UNL     1      44.595   3.508  10.028  0.00  0.00    +0.000 A 
ATOM      9  C   UNL     1      45.388   4.648  10.174  0.00  0.00    +0.000 A 
BRANCH   8  10
ATOM     10  O   UNL     1      44.965   2.642   9.016  0.00  0.00    +0.000 OA
BRANCH  10  11
ATOM     11  C   UNL     1      46.010   3.086   8.124  0.00  0.00    +0.000 C 
ATOM     12  C   UNL     1      45.621   2.776   6.691  0.00  0.00    +0.000 C 
ATOM     13  C   UNL     1      46.817   2.091   7.293  0.00  0.00    +0.000 C 
ATOM     14  C   UNL     1      48.146   2.507   6.708  0.00  0.00    +0.000 C 
ATOM     15  C   UNL     1      46.741   0.626   7.634  0.00  0.00    +0.000 C 
ENDBRANCH  10  11
ENDBRANCH   8  10
ENDBRANCH   3   4
ENDBRANCH   1   3
BRANCH   1  16
ATOM     16  N   UNL     1      47.487   7.321  12.950  0.00  0.00    +0.000 N 
ATOM     17  H   UNL     1      46.835   8.066  13.207  0.00  0.00    +0.000 HD
BRANCH  16  18
ATOM     18  C   UNL     1      47.607   6.431  14.044  0.00  0.00    +0.000 A 
ATOM     19  C   UNL     1      46.988   5.175  14.065  0.00  0.00    +0.000 A 
ATOM     20  C   UNL     1      47.148   4.310  15.152  0.00  0.00    +0.000 A 
ATOM     21  C   UNL     1      47.968   4.680  16.221  0.00  0.00    +0.000 A 
ATOM     22  C   UNL     1      48.633   5.904  16.212  0.00  0.00    +0.000 A 
ATOM     23  C   UNL     1      48.460   6.753  15.120  0.00  0.00    +0.000 A 
ATOM     24  F   UNL     1      49.100   7.933  15.116  0.00  0.00    +0.000 F 
BRANCH  21  25
ATOM     25  S   UNL     1      48.102   3.604  17.616  0.00  0.00    +0.000 S 
ATOM     26  O   UNL     1      49.028   2.539  17.308  0.00  0.00    +0.000 OA
ATOM     27  O   UNL     1      48.211   4.398  18.816  0.00  0.00    +0.000 OA
BRANCH  25  28
ATOM     28  N   UNL     1      46.580   2.900  17.661  0.00  0.00    +0.000 NA
ATOM     29  H   UNL     1      46.589   2.025  17.133  0.00  0.00    +0.000 HD
ATOM     30  H   UNL     1      46.279   2.788  18.629  0.00  0.00    +0.000 HD
ENDBRANCH  25  28
ENDBRANCH  21  25
ENDBRANCH  16  18
ENDBRANCH   1  16
TORSDOF 8
ENDMDL
MODEL 3
REMARK VINA RESULT:    -7.114      3.335      4.143
REMARK INTER + INTRA:         -11.233
REMARK INTER:                  -9.960
REMARK INTRA:                  -1.273
REMARK UNBOUND:                -1.001
REMARK  Name = 
REMARK  11 active torsions:
REMARK  status: ('A' for Active; 'I' for Inactive)
REMARK    1  A    between atoms: C_1  and  C_2
REMARK    2  A    between atoms: C_2  and  C_3
REMARK    3  A    between atoms: C_2  and  C_16
REMARK    4  A    between atoms: C_3  and  N_4
REMARK    5  A    between atoms: N_4  and  C_5
REMARK    6  A    between atoms: C_8  and  S_9
REMARK    7  A    between atoms: S_9  and  N_10
REMARK    8  A    between atoms: C_20  and  O_21
REMARK    9  A    between atoms: O_21  and  C_22
REMARK   10  A    between atoms: C_24  and  C_25
REMARK   11  A    between atoms: C_24  and  C_26
REMARK                            x       y       z     vdW  Elec       q    Type
REMARK                         _______ _______ _______ _____ _____    ______ ____
ROOT
ATOM      1  C   UNL     1      44.881   3.881  12.244  0.00  0.00    +0.000 C 
ENDROOT
BRANCH   1   3
ATOM      2  C   UNL     1      42.997   5.462  12.968  0.00  0.00    +0.000 C 
ATOM      3  C   UNL     1      44.486   5.120  13.085  0.00  0.00    +0.000 C 
BRANCH   3   4
ATOM      4  C   UNL     1      45.354   6.320  12.706  0.00  0.00    +0.000 A 
ATOM      5  C   UNL     1      44.827   7.615  12.750  0.00  0.00    +0.000 A 
ATOM      6  C   UNL     1      45.651   8.692  12.435  0.00  0.00    +0.000 A 
ATOM      7  N   UNL     1      46.959   8.586  12.105  0.00  0.00    +0.000 NA
ATOM      8  C   UNL     1      47.459   7.335  12.089  0.00  0.00    +0.000 A 
ATOM      9  C   UNL     1      46.705   6.191  12.357  0.00  0.00    +0.000 A 
BRANCH   8  10
ATOM     10  O   UNL     1      48.824   7.146  11.976  0.00  0.00    +0.000 OA
BRANCH  10  11
ATOM     11  C   UNL     1      49.604   8.272  11.518  0.00  0.00    +0.000 C 
ATOM     12  C   UNL     1      51.044   7.842  11.314  0.00  0.00    +0.000 C 
ATOM     13  C   UNL     1      50.723   8.859  12.374  0.00  0.00    +0.000 C 
ATOM     14  C   UNL     1      51.232  10.253  12.090  0.00  0.00    +0.000 C 
ATOM     15  C   UNL     1      50.810   8.472  13.826  0.00  0.00    +0.000 C 
ENDBRANCH  10  11
ENDBRANCH   8  10
ENDBRANCH   3   4
ENDBRANCH   1   3
BRANCH   1  16
ATOM     16  N   UNL     1      44.133   3.785  10.981  0.00  0.00    +0.000 N 
ATOM     17  H   UNL     1      43.621   4.638  10.749  0.00  0.00    +0.000 HD
BRANCH  16  18
ATOM     18  C   UNL     1      44.879   3.384   9.847  0.00  0.00    +0.000 A 
ATOM     19  C   UNL     1      44.956   2.049   9.429  0.00  0.00    +0.000 A 
ATOM     20  C   UNL     1      45.682   1.690   8.289  0.00  0.00    +0.000 A 
ATOM     21  C   UNL     1      46.312   2.677   7.527  0.00  0.00    +0.000 A 
ATOM     22  C   UNL     1      46.220   4.019   7.890  0.00  0.00    +0.000 A 
ATOM     23  C   UNL     1      45.492   4.357   9.030  0.00  0.00    +0.000 A 
ATOM     24  F   UNL     1      45.408   5.650   9.379  0.00  0.00    +0.000 F 
BRANCH  21  25
ATOM     25  S   UNL     1      47.283   2.198   6.131  0.00  0.00    +0.000 S 
ATOM     26  O   UNL     1      47.375   0.757   6.088  0.00  0.00    +0.000 OA
ATOM     27  O   UNL     1      46.883   2.980   4.986  0.00  0.00    +0.000 OA
BRANCH  25  28
ATOM     28  N   UNL     1      48.809   2.749   6.560  0.00  0.00    +0.000 NA
ATOM     29  H   UNL     1      48.780   3.760   6.708  0.00  0.00    +0.000 HD
ATOM     30  H   UNL     1      49.150   2.229   7.368  0.00  0.00    +0.000 HD
ENDBRANCH  25  28
ENDBRANCH  21  25
ENDBRANCH  16  18
ENDBRANCH   1  16
TORSDOF 8
ENDMDL
MODEL 4
REMARK VINA RESULT:    -6.730      3.084      4.703
REMARK INTER + INTRA:         -10.681
REMARK INTER:                  -9.507
REMARK INTRA:                  -1.174
REMARK UNBOUND:                -1.001
REMARK  Name = 
REMARK  11 active torsions:
REMARK  status: ('A' for Active; 'I' for Inactive)
REMARK    1  A    between atoms: C_1  and  C_2
REMARK    2  A    between atoms: C_2  and  C_3
REMARK    3  A    between atoms: C_2  and  C_16
REMARK    4  A    between atoms: C_3  and  N_4
REMARK    5  A    between atoms: N_4  and  C_5
REMARK    6  A    between atoms: C_8  and  S_9
REMARK    7  A    between atoms: S_9  and  N_10
REMARK    8  A    between atoms: C_20  and  O_21
REMARK    9  A    between atoms: O_21  and  C_22
REMARK   10  A    between atoms: C_24  and  C_25
REMARK   11  A    between atoms: C_24  and  C_26
REMARK                            x       y       z     vdW  Elec       q    Type
REMARK                         _______ _______ _______ _____ _____    ______ ____
ROOT
ATOM      1  C   UNL     1      48.786   7.081  13.729  0.00  0.00    +0.000 C 
ENDROOT
BRANCH   1   3
ATOM      2  C   UNL     1      51.007   8.157  14.423  0.00  0.00    +0.000 C 
ATOM      3  C   UNL     1      49.482   8.187  14.560  0.00  0.00    +0.000 C 
BRANCH   3   4
ATOM      4  C   UNL     1      49.063   8.096  16.027  0.00  0.00    +0.000 A 
ATOM      5  C   UNL     1      48.391   9.159  16.637  0.00  0.00    +0.000 A 
ATOM      6  C   UNL     1      47.988   9.033  17.964  0.00  0.00    +0.000 A 
ATOM      7  N   UNL     1      48.178   7.927  18.722  0.00  0.00    +0.000 NA
ATOM      8  C   UNL     1      48.807   6.903  18.114  0.00  0.00    +0.000 A 
ATOM      9  C   UNL     1      49.276   6.946  16.800  0.00  0.00    +0.000 A 
BRANCH   8  10
ATOM     10  O   UNL     1      48.854   5.667  18.732  0.00  0.00    +0.000 OA
BRANCH  10  11
ATOM     11  C   UNL     1      48.285   4.553  18.009  0.00  0.00    +0.000 C 
ATOM     12  C   UNL     1      48.359   3.302  18.864  0.00  0.00    +0.000 C 
ATOM     13  C   UNL     1      49.145   3.365  17.584  0.00  0.00    +0.000 C 
ATOM     14  C   UNL     1      48.658   2.438  16.495  0.00  0.00    +0.000 C 
ATOM     15  C   UNL     1      50.644   3.494  17.637  0.00  0.00    +0.000 C 
ENDBRANCH  10  11
ENDBRANCH   8  10
ENDBRANCH   3   4
ENDBRANCH   1   3
BRANCH   1  16
ATOM     16  N   UNL     1      47.340   6.997  13.985  0.00  0.00    +0.000 N 
ATOM     17  H   UNL     1      46.884   7.911  14.028  0.00  0.00    +0.000 HD
BRANCH  16  18
ATOM     18  C   UNL     1      46.602   6.166  13.109  0.00  0.00    +0.000 A 
ATOM     19  C   UNL     1      46.324   6.525  11.784  0.00  0.00    +0.000 A 
ATOM     20  C   UNL     1      45.613   5.668  10.939  0.00  0.00    +0.000 A 
ATOM     21  C   UNL     1      45.202   4.416  11.403  0.00  0.00    +0.000 A 
ATOM     22  C   UNL     1      45.499   4.010  12.702  0.00  0.00    +0.000 A 
ATOM     23  C   UNL     1      46.208   4.878  13.530  0.00  0.00    +0.000 A 
ATOM     24  F   UNL     1      46.490   4.485  14.782  0.00  0.00    +0.000 F 
BRANCH  21  25
ATOM     25  S   UNL     1      44.243   3.377  10.342  0.00  0.00    +0.000 S 
ATOM     26  O   UNL     1      45.118   2.438   9.680  0.00  0.00    +0.000 OA
ATOM     27  O   UNL     1      43.051   2.960  11.041  0.00  0.00    +0.000 OA
BRANCH  25  28
ATOM     28  N   UNL     1      43.736   4.455   9.162  0.00  0.00    +0.000 NA
ATOM     29  H   UNL     1      44.507   5.077   8.910  0.00  0.00    +0.000 HD
ATOM     30  H   UNL     1      43.350   3.944   8.368  0.00  0.00    +0.000 HD
ENDBRANCH  25  28
ENDBRANCH  21  25
ENDBRANCH  16  18
ENDBRANCH   1  16
TORSDOF 8
ENDMDL
MODEL 5
REMARK VINA RESULT:    -6.708      2.470      3.834
REMARK INTER + INTRA:         -10.650
REMARK INTER:                 -10.164
REMARK INTRA:                  -0.486
REMARK UNBOUND:                -1.001
REMARK  Name = 
REMARK  11 active torsions:
REMARK  status: ('A' for Active; 'I' for Inactive)
REMARK    1  A    between atoms: C_1  and  C_2
REMARK    2  A    between atoms: C_2  and  C_3
REMARK    3  A    between atoms: C_2  and  C_16
REMARK    4  A    between atoms: C_3  and  N_4
REMARK    5  A    between atoms: N_4  and  C_5
REMARK    6  A    between atoms: C_8  and  S_9
REMARK    7  A    between atoms: S_9  and  N_10
REMARK    8  A    between atoms: C_20  and  O_21
REMARK    9  A    between atoms: O_21  and  C_22
REMARK   10  A    between atoms: C_24  and  C_25
REMARK   11  A    between atoms: C_24  and  C_26
REMARK                            x       y       z     vdW  Elec       q    Type
REMARK                         _______ _______ _______ _____ _____    ______ ____
ROOT
ATOM      1  C   UNL     1      43.651   6.083  10.653  0.00  0.00    +0.000 C 
ENDROOT
BRANCH   1   3
ATOM      2  C   UNL     1      44.349   8.403  11.494  0.00  0.00    +0.000 C 
ATOM      3  C   UNL     1      44.116   6.934  11.862  0.00  0.00    +0.000 C 
BRANCH   3   4
ATOM      4  C   UNL     1      45.367   6.324  12.494  0.00  0.00    +0.000 A 
ATOM      5  C   UNL     1      45.264   5.201  13.321  0.00  0.00    +0.000 A 
ATOM      6  C   UNL     1      46.424   4.645  13.854  0.00  0.00    +0.000 A 
ATOM      7  N   UNL     1      47.675   5.100  13.609  0.00  0.00    +0.000 NA
ATOM      8  C   UNL     1      47.760   6.168  12.793  0.00  0.00    +0.000 A 
ATOM      9  C   UNL     1      46.655   6.815  12.238  0.00  0.00    +0.000 A 
BRANCH   8  10
ATOM     10  O   UNL     1      48.995   6.567  12.317  0.00  0.00    +0.000 OA
BRANCH  10  11
ATOM     11  C   UNL     1      49.436   7.895  12.678  0.00  0.00    +0.000 C 
ATOM     12  C   UNL     1      49.054   8.871  11.582  0.00  0.00    +0.000 C 
ATOM     13  C   UNL     1      50.509   8.618  11.868  0.00  0.00    +0.000 C 
ATOM     14  C   UNL     1      51.248   9.787  12.477  0.00  0.00    +0.000 C 
ATOM     15  C   UNL     1      51.334   7.832  10.884  0.00  0.00    +0.000 C 
ENDBRANCH  10  11
ENDBRANCH   8  10
ENDBRANCH   3   4
ENDBRANCH   1   3
BRANCH   1  16
ATOM     16  N   UNL     1      43.956   4.653  10.810  0.00  0.00    +0.000 N 
ATOM     17  H   UNL     1      43.126   4.076  10.957  0.00  0.00    +0.000 HD
BRANCH  16  18
ATOM     18  C   UNL     1      44.736   4.069   9.784  0.00  0.00    +0.000 A 
ATOM     19  C   UNL     1      45.570   4.823   8.949  0.00  0.00    +0.000 A 
ATOM     20  C   UNL     1      46.346   4.210   7.960  0.00  0.00    +0.000 A 
ATOM     21  C   UNL     1      46.323   2.820   7.820  0.00  0.00    +0.000 A 
ATOM     22  C   UNL     1      45.537   2.036   8.662  0.00  0.00    +0.000 A 
ATOM     23  C   UNL     1      44.770   2.666   9.641  0.00  0.00    +0.000 A 
ATOM     24  F   UNL     1      44.011   1.908  10.448  0.00  0.00    +0.000 F 
BRANCH  21  25
ATOM     25  S   UNL     1      47.255   2.071   6.519  0.00  0.00    +0.000 S 
ATOM     26  O   UNL     1      46.621   2.357   5.254  0.00  0.00    +0.000 OA
ATOM     27  O   UNL     1      48.661   2.306   6.749  0.00  0.00    +0.000 OA
BRANCH  25  28
ATOM     28  N   UNL     1      47.005   0.437   6.807  0.00  0.00    +0.000 NA
ATOM     29  H   UNL     1      46.003   0.237   6.805  0.00  0.00    +0.000 HD
ATOM     30  H   UNL     1      47.532  -0.118   6.133  0.00  0.00    +0.000 HD
ENDBRANCH  25  28
ENDBRANCH  21  25
ENDBRANCH  16  18
ENDBRANCH   1  16
TORSDOF 8
ENDMDL
MODEL 6
REMARK VINA RESULT:    -6.161      4.214      8.397
REMARK INTER + INTRA:          -9.863
REMARK INTER:                  -8.942
REMARK INTRA:                  -0.921
REMARK UNBOUND:                -1.001
REMARK  Name = 
REMARK  11 active torsions:
REMARK  status: ('A' for Active; 'I' for Inactive)
REMARK    1  A    between atoms: C_1  and  C_2
REMARK    2  A    between atoms: C_2  and  C_3
REMARK    3  A    between atoms: C_2  and  C_16
REMARK    4  A    between atoms: C_3  and  N_4
REMARK    5  A    between atoms: N_4  and  C_5
REMARK    6  A    between atoms: C_8  and  S_9
REMARK    7  A    between atoms: S_9  and  N_10
REMARK    8  A    between atoms: C_20  and  O_21
REMARK    9  A    between atoms: O_21  and  C_22
REMARK   10  A    between atoms: C_24  and  C_25
REMARK   11  A    between atoms: C_24  and  C_26
REMARK                            x       y       z     vdW  Elec       q    Type
REMARK                         _______ _______ _______ _____ _____    ______ ____
ROOT
ATOM      1  C   UNL     1      47.166   6.260  12.797  0.00  0.00    +0.000 C 
ENDROOT
BRANCH   1   3
ATOM      2  C   UNL     1      46.855   4.392  14.526  0.00  0.00    +0.000 C 
ATOM      3  C   UNL     1      46.167   5.459  13.669  0.00  0.00    +0.000 C 
BRANCH   3   4
ATOM      4  C   UNL     1      45.075   4.839  12.797  0.00  0.00    +0.000 A 
ATOM      5  C   UNL     1      43.748   5.261  12.920  0.00  0.00    +0.000 A 
ATOM      6  C   UNL     1      42.781   4.705  12.087  0.00  0.00    +0.000 A 
ATOM      7  N   UNL     1      43.033   3.785  11.127  0.00  0.00    +0.000 NA
ATOM      8  C   UNL     1      44.319   3.405  11.004  0.00  0.00    +0.000 A 
ATOM      9  C   UNL     1      45.353   3.879  11.813  0.00  0.00    +0.000 A 
BRANCH   8  10
ATOM     10  O   UNL     1      44.705   2.638   9.920  0.00  0.00    +0.000 OA
BRANCH  10  11
ATOM     11  C   UNL     1      45.492   3.295   8.902  0.00  0.00    +0.000 C 
ATOM     12  C   UNL     1      44.846   3.084   7.546  0.00  0.00    +0.000 C 
ATOM     13  C   UNL     1      46.203   2.494   7.814  0.00  0.00    +0.000 C 
ATOM     14  C   UNL     1      47.333   3.126   7.036  0.00  0.00    +0.000 C 
ATOM     15  C   UNL     1      46.347   1.005   7.980  0.00  0.00    +0.000 C 
ENDBRANCH  10  11
ENDBRANCH   8  10
ENDBRANCH   3   4
ENDBRANCH   1   3
BRANCH   1  16
ATOM     16  N   UNL     1      47.512   7.566  13.377  0.00  0.00    +0.000 N 
ATOM     17  H   UNL     1      47.000   7.774  14.237  0.00  0.00    +0.000 HD
BRANCH  16  18
ATOM     18  C   UNL     1      48.889   7.800  13.604  0.00  0.00    +0.000 A 
ATOM     19  C   UNL     1      49.515   7.493  14.819  0.00  0.00    +0.000 A 
ATOM     20  C   UNL     1      50.884   7.715  15.001  0.00  0.00    +0.000 A 
ATOM     21  C   UNL     1      51.654   8.213  13.948  0.00  0.00    +0.000 A 
ATOM     22  C   UNL     1      51.071   8.487  12.712  0.00  0.00    +0.000 A 
ATOM     23  C   UNL     1      49.705   8.261  12.551  0.00  0.00    +0.000 A 
ATOM     24  F   UNL     1      49.146   8.530  11.361  0.00  0.00    +0.000 F 
BRANCH  21  25
ATOM     25  S   UNL     1      53.367   8.552  14.219  0.00  0.00    +0.000 S 
ATOM     26  O   UNL     1      53.883   9.311  13.104  0.00  0.00    +0.000 OA
ATOM     27  O   UNL     1      53.556   8.966  15.588  0.00  0.00    +0.000 OA
BRANCH  25  28
ATOM     28  N   UNL     1      54.049   7.024  14.098  0.00  0.00    +0.000 NA
ATOM     29  H   UNL     1      54.436   6.893  13.161  0.00  0.00    +0.000 HD
ATOM     30  H   UNL     1      54.732   6.889  14.843  0.00  0.00    +0.000 HD
ENDBRANCH  25  28
ENDBRANCH  21  25
ENDBRANCH  16  18
ENDBRANCH   1  16
TORSDOF 8
ENDMDL
MODEL 7
REMARK VINA RESULT:    -5.760      4.966      7.976
REMARK INTER + INTRA:          -9.286
REMARK INTER:                  -7.661
REMARK INTRA:                  -1.625
REMARK UNBOUND:                -1.001
REMARK  Name = 
REMARK  11 active torsions:
REMARK  status: ('A' for Active; 'I' for Inactive)
REMARK    1  A    between atoms: C_1  and  C_2
REMARK    2  A    between atoms: C_2  and  C_3
REMARK    3  A    between atoms: C_2  and  C_16
REMARK    4  A    between atoms: C_3  and  N_4
REMARK    5  A    between atoms: N_4  and  C_5
REMARK    6  A    between atoms: C_8  and  S_9
REMARK    7  A    between atoms: S_9  and  N_10
REMARK    8  A    between atoms: C_20  and  O_21
REMARK    9  A    between atoms: O_21  and  C_22
REMARK   10  A    between atoms: C_24  and  C_25
REMARK   11  A    between atoms: C_24  and  C_26
REMARK                            x       y       z     vdW  Elec       q    Type
REMARK                         _______ _______ _______ _____ _____    ______ ____
ROOT
ATOM      1  C   UNL     1      46.694   3.998  14.141  0.00  0.00    +0.000 C 
ENDROOT
BRANCH   1   3
ATOM      2  C   UNL     1      45.309   3.849  11.989  0.00  0.00    +0.000 C 
ATOM      3  C   UNL     1      45.646   4.683  13.228  0.00  0.00    +0.000 C 
BRANCH   3   4
ATOM      4  C   UNL     1      46.116   6.083  12.834  0.00  0.00    +0.000 A 
ATOM      5  C   UNL     1      45.192   7.122  12.686  0.00  0.00    +0.000 A 
ATOM      6  C   UNL     1      45.652   8.395  12.362  0.00  0.00    +0.000 A 
ATOM      7  N   UNL     1      46.956   8.721  12.199  0.00  0.00    +0.000 NA
ATOM      8  C   UNL     1      47.836   7.715  12.366  0.00  0.00    +0.000 A 
ATOM      9  C   UNL     1      47.470   6.401  12.659  0.00  0.00    +0.000 A 
BRANCH   8  10
ATOM     10  O   UNL     1      49.188   7.995  12.432  0.00  0.00    +0.000 OA
BRANCH  10  11
ATOM     11  C   UNL     1      49.878   7.605  13.640  0.00  0.00    +0.000 C 
ATOM     12  C   UNL     1      49.603   8.620  14.732  0.00  0.00    +0.000 C 
ATOM     13  C   UNL     1      51.006   8.457  14.217  0.00  0.00    +0.000 C 
ATOM     14  C   UNL     1      51.976   7.849  15.202  0.00  0.00    +0.000 C 
ATOM     15  C   UNL     1      51.614   9.537  13.362  0.00  0.00    +0.000 C 
ENDBRANCH  10  11
ENDBRANCH   8  10
ENDBRANCH   3   4
ENDBRANCH   1   3
BRANCH   1  16
ATOM     16  N   UNL     1      46.392   4.150  15.572  0.00  0.00    +0.000 N 
ATOM     17  H   UNL     1      45.819   3.392  15.947  0.00  0.00    +0.000 HD
BRANCH  16  18
ATOM     18  C   UNL     1      47.506   4.338  16.425  0.00  0.00    +0.000 A 
ATOM     19  C   UNL     1      48.388   5.418  16.287  0.00  0.00    +0.000 A 
ATOM     20  C   UNL     1      49.465   5.586  17.162  0.00  0.00    +0.000 A 
ATOM     21  C   UNL     1      49.650   4.690  18.218  0.00  0.00    +0.000 A 
ATOM     22  C   UNL     1      48.767   3.629  18.409  0.00  0.00    +0.000 A 
ATOM     23  C   UNL     1      47.700   3.478  17.525  0.00  0.00    +0.000 A 
ATOM     24  F   UNL     1      46.853   2.453  17.711  0.00  0.00    +0.000 F 
BRANCH  21  25
ATOM     25  S   UNL     1      51.056   4.879  19.271  0.00  0.00    +0.000 S 
ATOM     26  O   UNL     1      52.034   3.868  18.944  0.00  0.00    +0.000 OA
ATOM     27  O   UNL     1      51.395   6.279  19.360  0.00  0.00    +0.000 OA
BRANCH  25  28
ATOM     28  N   UNL     1      50.431   4.456  20.769  0.00  0.00    +0.000 NA
ATOM     29  H   UNL     1      51.185   4.134  21.378  0.00  0.00    +0.000 HD
ATOM     30  H   UNL     1      49.900   5.236  21.155  0.00  0.00    +0.000 HD
ENDBRANCH  25  28
ENDBRANCH  21  25
ENDBRANCH  16  18
ENDBRANCH   1  16
TORSDOF 8
ENDMDL
