MODEL 1
REMARK VINA RESULT:    -7.158      0.000      0.000
REMARK INTER + INTRA:         -11.336
REMARK INTER:                 -10.297
REMARK INTRA:                  -1.039
REMARK UNBOUND:                -1.039
REMARK  Name = 
REMARK  9 active torsions:
REMARK  status: ('A' for Active; 'I' for Inactive)
REMARK    1  A    between atoms: C_1  and  C_2
REMARK    2  A    between atoms: C_2  and  C_3
REMARK    3  A    between atoms: C_3  and  N_4
REMARK    4  A    between atoms: N_4  and  C_5
REMARK    5  A    between atoms: C_5  and  C_6
REMARK    6  A    between atoms: N_14  and  C_15
REMARK    7  A    between atoms: C_15  and  C_16
REMARK    8  A    between atoms: C_19  and  C_20
REMARK    9  A    between atoms: C_20  and  N_21
REMARK                            x       y       z     vdW  Elec       q    Type
REMARK                         _______ _______ _______ _____ _____    ______ ____
ROOT
ATOM      1  C   UNL     1      47.257   5.552  13.868  0.00  0.00    +0.000 A 
ATOM      2  C   UNL     1      47.248   4.219  14.322  0.00  0.00    +0.000 A 
ATOM      3  C   UNL     1      46.485   3.267  13.662  0.00  0.00    +0.000 A 
ATOM      4  N   UNL     1      45.694   3.496  12.595  0.00  0.00    +0.000 NA
ATOM      5  C   UNL     1      45.698   4.785  12.200  0.00  0.00    +0.000 A 
ATOM      6  C   UNL     1      46.431   5.833  12.755  0.00  0.00    +0.000 A 
ATOM      7  C   UNL     1      46.129   6.992  11.982  0.00  0.00    +0.000 A 
ATOM      8  C   UNL     1      45.223   6.630  11.008  0.00  0.00    +0.000 A 
ATOM      9  N   UNL     1      44.952   5.294  11.163  0.00  0.00    +0.000 N 
ENDROOT
BRANCH   1  10
ATOM     10  C   UNL     1      48.096   6.589  14.576  0.00  0.00    +0.000 C 
BRANCH  10  11
ATOM     11  N   UNL     1      49.426   6.699  13.976  0.00  0.00    +0.000 NA
ATOM     12  H   UNL     1      50.097   6.181  14.541  0.00  0.00    +0.000 HD
BRANCH  11  13
ATOM     13  C   UNL     1      49.850   8.092  13.871  0.00  0.00    +0.000 C 
BRANCH  13  15
ATOM     14  C   UNL     1      49.910   7.725  11.380  0.00  0.00    +0.000 C 
ATOM     15  C   UNL     1      49.447   8.641  12.503  0.00  0.00    +0.000 C 
ENDBRANCH  13  15
ENDBRANCH  11  13
ENDBRANCH  10  11
ENDBRANCH   1  10
BRANCH   9  16
ATOM     16  C   UNL     1      44.093   4.505  10.294  0.00  0.00    +0.000 C 
BRANCH  16  17
ATOM     17  C   UNL     1      44.860   3.657   9.315  0.00  0.00    +0.000 A 
ATOM     18  C   UNL     1      45.623   4.229   8.295  0.00  0.00    +0.000 A 
ATOM     19  C   UNL     1      46.425   3.420   7.491  0.00  0.00    +0.000 A 
ATOM     20  C   UNL     1      46.443   2.046   7.718  0.00  0.00    +0.000 A 
ATOM     21  N   UNL     1      45.675   1.463   8.670  0.00  0.00    +0.000 NA
ATOM     22  C   UNL     1      44.909   2.273   9.440  0.00  0.00    +0.000 A 
BRANCH  20  23
ATOM     23  C   UNL     1      47.377   1.145   6.938  0.00  0.00    +0.000 C 
BRANCH  23  24
ATOM     24  N   UNL     1      48.324   1.876   6.091  0.00  0.00    +0.000 NA
ATOM     25  H   UNL     1      47.944   2.812   5.943  0.00  0.00    +0.000 HD
ATOM     26  H   UNL     1      48.333   1.437   5.172  0.00  0.00    +0.000 HD
ENDBRANCH  23  24
ENDBRANCH  20  23
ENDBRANCH  16  17
ENDBRANCH   9  16
TORSDOF 8
ENDMDL
MODEL 2
REMARK VINA RESULT:    -6.806      1.570      3.110
REMARK INTER + INTRA:         -10.830
REMARK INTER:                 -10.085
REMARK INTRA:                  -0.744
REMARK UNBOUND:                -1.039
REMARK  Name = 
REMARK  9 active torsions:
REMARK  status: ('A' for Active; 'I' for Inactive)
REMARK    1  A    between atoms: C_1  and  C_2
REMARK    2  A    between atoms: C_2  and  C_3
REMARK    3  A    between atoms: C_3  and  N_4
REMARK    4  A    between atoms: N_4  and  C_5
REMARK    5  A    between atoms: C_5  and  C_6
REMARK    6  A    between atoms: N_14  and  C_15
REMARK    7  A    between atoms: C_15  and  C_16
REMARK    8  A    between atoms: C_19  and  C_20
REMARK    9  A    between atoms: C_20  and  N_21
REMARK                            x       y       z     vdW  Elec       q    Type
REMARK                         _______ _______ _______ _____ _____    ______ ____
ROOT
ATOM      1  C   UNL     1      47.424   6.239  13.900  0.00  0.00    +0.000 A 
ATOM      2  C   UNL     1      47.326   7.485  13.251  0.00  0.00    +0.000 A 
ATOM      3  C   UNL     1      46.521   7.622  12.131  0.00  0.00    +0.000 A 
ATOM      4  N   UNL     1      45.804   6.637  11.553  0.00  0.00    +0.000 NA
ATOM      5  C   UNL     1      45.939   5.449  12.176  0.00  0.00    +0.000 A 
ATOM      6  C   UNL     1      46.693   5.178  13.318  0.00  0.00    +0.000 A 
ATOM      7  C   UNL     1      46.499   3.797  13.612  0.00  0.00    +0.000 A 
ATOM      8  C   UNL     1      45.664   3.270  12.650  0.00  0.00    +0.000 A 
ATOM      9  N   UNL     1      45.348   4.275  11.772  0.00  0.00    +0.000 N 
ENDROOT
BRANCH   1  10
ATOM     10  C   UNL     1      48.290   6.088  15.128  0.00  0.00    +0.000 C 
BRANCH  10  11
ATOM     11  N   UNL     1      47.541   5.503  16.241  0.00  0.00    +0.000 NA
ATOM     12  H   UNL     1      46.987   6.227  16.695  0.00  0.00    +0.000 HD
BRANCH  11  13
ATOM     13  C   UNL     1      48.433   4.888  17.219  0.00  0.00    +0.000 C 
BRANCH  13  15
ATOM     14  C   UNL     1      48.660   2.454  16.614  0.00  0.00    +0.000 C 
ATOM     15  C   UNL     1      47.960   3.464  17.510  0.00  0.00    +0.000 C 
ENDBRANCH  13  15
ENDBRANCH  11  13
ENDBRANCH  10  11
ENDBRANCH   1  10
BRANCH   9  16
ATOM     16  C   UNL     1      44.435   4.152  10.647  0.00  0.00    +0.000 C 
BRANCH  16  17
ATOM     17  C   UNL     1      45.087   3.587   9.415  0.00  0.00    +0.000 A 
ATOM     18  C   UNL     1      45.660   4.414   8.446  0.00  0.00    +0.000 A 
ATOM     19  C   UNL     1      46.371   3.853   7.386  0.00  0.00    +0.000 A 
ATOM     20  C   UNL     1      46.491   2.469   7.309  0.00  0.00    +0.000 A 
ATOM     21  N   UNL     1      45.904   1.643   8.210  0.00  0.00    +0.000 NA
ATOM     22  C   UNL     1      45.223   2.214   9.232  0.00  0.00    +0.000 A 
BRANCH  20  23
ATOM     23  C   UNL     1      47.341   1.824   6.235  0.00  0.00    +0.000 C 
BRANCH  23  24
ATOM     24  N   UNL     1      48.670   2.426   6.100  0.00  0.00    +0.000 NA
ATOM     25  H   UNL     1      48.776   3.108   6.852  0.00  0.00    +0.000 HD
ATOM     26  H   UNL     1      48.689   2.966   5.237  0.00  0.00    +0.000 HD
ENDBRANCH  23  24
ENDBRANCH  20  23
ENDBRANCH  16  17
ENDBRANCH   9  16
TORSDOF 8
ENDMDL
MODEL 3
REMARK VINA RESULT:    -6.720      1.348      2.217
REMARK INTER + INTRA:         -10.705
REMARK INTER:                  -9.995
REMARK INTRA:                  -0.711
REMARK UNBOUND:                -1.039
REMARK  Name = 
REMARK  9 active torsions:
REMARK  status: ('A' for Active; 'I' for Inactive)
REMARK    1  A    between atoms: C_1  and  C_2
REMARK    2  A    between atoms: C_2  and  C_3
REMARK    3  A    between atoms: C_3  and  N_4
REMARK    4  A    between atoms: N_4  and  C_5
REMARK    5  A    between atoms: C_5  and  C_6
REMARK    6  A    between atoms: N_14  and  C_15
REMARK    7  A    between atoms: C_15  and  C_16
REMARK    8  A    between atoms: C_19  and  C_20
REMARK    9  A    between atoms: C_20  and  N_21
REMARK                            x       y       z     vdW  Elec       q    Type
REMARK                         _______ _______ _______ _____ _____    ______ ____
ROOT
ATOM      1  C   UNL     1      47.252   5.849  13.776  0.00  0.00    +0.000 A 
ATOM      2  C   UNL     1      47.319   4.520  14.235  0.00  0.00    +0.000 A 
ATOM      3  C   UNL     1      46.549   3.538  13.631  0.00  0.00    +0.000 A 
ATOM      4  N   UNL     1      45.683   3.732  12.616  0.00  0.00    +0.000 NA
ATOM      5  C   UNL     1      45.616   5.018  12.216  0.00  0.00    +0.000 A 
ATOM      6  C   UNL     1      46.347   6.094  12.718  0.00  0.00    +0.000 A 
ATOM      7  C   UNL     1      45.956   7.236  11.961  0.00  0.00    +0.000 A 
ATOM      8  C   UNL     1      45.002   6.837  11.049  0.00  0.00    +0.000 A 
ATOM      9  N   UNL     1      44.788   5.493  11.227  0.00  0.00    +0.000 N 
ENDROOT
BRANCH   1  10
ATOM     10  C   UNL     1      48.098   6.920  14.424  0.00  0.00    +0.000 C 
BRANCH  10  11
ATOM     11  N   UNL     1      49.146   6.336  15.262  0.00  0.00    +0.000 NA
ATOM     12  H   UNL     1      48.961   5.344  15.394  0.00  0.00    +0.000 HD
BRANCH  11  13
ATOM     13  C   UNL     1      49.216   6.995  16.563  0.00  0.00    +0.000 C 
BRANCH  13  15
ATOM     14  C   UNL     1      47.952   7.010  18.741  0.00  0.00    +0.000 C 
ATOM     15  C   UNL     1      48.470   6.152  17.597  0.00  0.00    +0.000 C 
ENDBRANCH  13  15
ENDBRANCH  11  13
ENDBRANCH  10  11
ENDBRANCH   1  10
BRANCH   9  16
ATOM     16  C   UNL     1      43.904   4.669  10.419  0.00  0.00    +0.000 C 
BRANCH  16  17
ATOM     17  C   UNL     1      44.641   3.764   9.470  0.00  0.00    +0.000 A 
ATOM     18  C   UNL     1      45.472   4.275   8.470  0.00  0.00    +0.000 A 
ATOM     19  C   UNL     1      46.242   3.407   7.696  0.00  0.00    +0.000 A 
ATOM     20  C   UNL     1      46.159   2.037   7.932  0.00  0.00    +0.000 A 
ATOM     21  N   UNL     1      45.324   1.514   8.862  0.00  0.00    +0.000 NA
ATOM     22  C   UNL     1      44.592   2.380   9.604  0.00  0.00    +0.000 A 
BRANCH  20  23
ATOM     23  C   UNL     1      47.054   1.069   7.187  0.00  0.00    +0.000 C 
BRANCH  23  24
ATOM     24  N   UNL     1      47.090  -0.271   7.780  0.00  0.00    +0.000 NA
ATOM     25  H   UNL     1      47.921  -0.321   8.372  0.00  0.00    +0.000 HD
ATOM     26  H   UNL     1      47.246  -0.945   7.033  0.00  0.00    +0.000 HD
ENDBRANCH  23  24
ENDBRANCH  20  23
ENDBRANCH  16  17
ENDBRANCH   9  16
TORSDOF 8
ENDMDL
MODEL 4
REMARK VINA RESULT:    -6.647      1.320      2.439
REMARK INTER + INTRA:         -10.601
REMARK INTER:                  -9.697
REMARK INTRA:                  -0.903
REMARK UNBOUND:                -1.039
REMARK  Name = 
REMARK  9 active torsions:
REMARK  status: ('A' for Active; 'I' for Inactive)
REMARK    1  A    between atoms: C_1  and  C_2
REMARK    2  A    between atoms: C_2  and  C_3
REMARK    3  A    between atoms: C_3  and  N_4
REMARK    4  A    between atoms: N_4  and  C_5
REMARK    5  A    between atoms: C_5  and  C_6
REMARK    6  A    between atoms: N_14  and  C_15
REMARK    7  A    between atoms: C_15  and  C_16
REMARK    8  A    between atoms: C_19  and  C_20
REMARK    9  A    between atoms: C_20  and  N_21
REMARK                            x       y       z     vdW  Elec       q    Type
REMARK                         _______ _______ _______ _____ _____    ______ ____
ROOT
ATOM      1  C   UNL     1      46.274   8.246  13.058  0.00  0.00    +0.000 A 
ATOM      2  C   UNL     1      45.504   9.230  12.409  0.00  0.00    +0.000 A 
ATOM      3  C   UNL     1      44.565   8.860  11.457  0.00  0.00    +0.000 A 
ATOM      4  N   UNL     1      44.316   7.600  11.049  0.00  0.00    +0.000 NA
ATOM      5  C   UNL     1      45.087   6.681  11.664  0.00  0.00    +0.000 A 
ATOM      6  C   UNL     1      46.046   6.912  12.650  0.00  0.00    +0.000 A 
ATOM      7  C   UNL     1      46.571   5.637  13.010  0.00  0.00    +0.000 A 
ATOM      8  C   UNL     1      45.944   4.684  12.235  0.00  0.00    +0.000 A 
ATOM      9  N   UNL     1      45.061   5.331  11.408  0.00  0.00    +0.000 N 
ENDROOT
BRANCH   1  10
ATOM     10  C   UNL     1      47.288   8.644  14.105  0.00  0.00    +0.000 C 
BRANCH  10  11
ATOM     11  N   UNL     1      48.058   9.815  13.683  0.00  0.00    +0.000 NA
ATOM     12  H   UNL     1      47.553  10.306  12.948  0.00  0.00    +0.000 HD
BRANCH  11  13
ATOM     13  C   UNL     1      49.380   9.435  13.195  0.00  0.00    +0.000 C 
BRANCH  13  15
ATOM     14  C   UNL     1      50.157   7.806  11.438  0.00  0.00    +0.000 C 
ATOM     15  C   UNL     1      49.275   9.010  11.730  0.00  0.00    +0.000 C 
ENDBRANCH  13  15
ENDBRANCH  11  13
ENDBRANCH  10  11
ENDBRANCH   1  10
BRANCH   9  16
ATOM     16  C   UNL     1      44.151   4.681  10.478  0.00  0.00    +0.000 C 
BRANCH  16  17
ATOM     17  C   UNL     1      44.856   3.829   9.458  0.00  0.00    +0.000 A 
ATOM     18  C   UNL     1      45.632   4.395   8.443  0.00  0.00    +0.000 A 
ATOM     19  C   UNL     1      46.377   3.572   7.598  0.00  0.00    +0.000 A 
ATOM     20  C   UNL     1      46.326   2.193   7.780  0.00  0.00    +0.000 A 
ATOM     21  N   UNL     1      45.544   1.618   8.725  0.00  0.00    +0.000 NA
ATOM     22  C   UNL     1      44.835   2.440   9.536  0.00  0.00    +0.000 A 
BRANCH  20  23
ATOM     23  C   UNL     1      47.198   1.272   6.953  0.00  0.00    +0.000 C 
BRANCH  23  24
ATOM     24  N   UNL     1      48.415   1.914   6.448  0.00  0.00    +0.000 NA
ATOM     25  H   UNL     1      48.763   1.345   5.674  0.00  0.00    +0.000 HD
ATOM     26  H   UNL     1      49.130   1.856   7.171  0.00  0.00    +0.000 HD
ENDBRANCH  23  24
ENDBRANCH  20  23
ENDBRANCH  16  17
ENDBRANCH   9  16
TORSDOF 8
ENDMDL
MODEL 5
REMARK VINA RESULT:    -6.377      1.324      2.331
REMARK INTER + INTRA:         -10.212
REMARK INTER:                  -9.358
REMARK INTRA:                  -0.855
REMARK UNBOUND:                -1.039
REMARK  Name = 
REMARK  9 active torsions:
REMARK  status: ('A' for Active; 'I' for Inactive)
REMARK    1  A    between atoms: C_1  and  C_2
REMARK    2  A    between atoms: C_2  and  C_3
REMARK    3  A    between atoms: C_3  and  N_4
REMARK    4  A    between atoms: N_4  and  C_5
REMARK    5  A    between atoms: C_5  and  C_6
REMARK    6  A    between atoms: N_14  and  C_15
REMARK    7  A    between atoms: C_15  and  C_16
REMARK    8  A    between atoms: C_19  and  C_20
REMARK    9  A    between atoms: C_20  and  N_21
REMARK                            x       y       z     vdW  Elec       q    Type
REMARK                         _______ _______ _______ _____ _____    ______ ____
ROOT
ATOM      1  C   UNL     1      47.159   5.789  13.842  0.00  0.00    +0.000 A 
ATOM      2  C   UNL     1      47.785   6.788  13.072  0.00  0.00    +0.000 A 
ATOM      3  C   UNL     1      47.396   6.996  11.757  0.00  0.00    +0.000 A 
ATOM      4  N   UNL     1      46.455   6.293  11.096  0.00  0.00    +0.000 NA
ATOM      5  C   UNL     1      45.893   5.323  11.846  0.00  0.00    +0.000 A 
ATOM      6  C   UNL     1      46.171   5.024  13.179  0.00  0.00    +0.000 A 
ATOM      7  C   UNL     1      45.309   3.948  13.540  0.00  0.00    +0.000 A 
ATOM      8  C   UNL     1      44.558   3.614  12.433  0.00  0.00    +0.000 A 
ATOM      9  N   UNL     1      44.936   4.441  11.405  0.00  0.00    +0.000 N 
ENDROOT
BRANCH   1  10
ATOM     10  C   UNL     1      47.570   5.568  15.279  0.00  0.00    +0.000 C 
BRANCH  10  11
ATOM     11  N   UNL     1      48.935   6.036  15.520  0.00  0.00    +0.000 NA
ATOM     12  H   UNL     1      49.594   5.297  15.280  0.00  0.00    +0.000 HD
BRANCH  11  13
ATOM     13  C   UNL     1      49.126   6.425  16.914  0.00  0.00    +0.000 C 
BRANCH  13  15
ATOM     14  C   UNL     1      49.550   8.661  15.835  0.00  0.00    +0.000 C 
ATOM     15  C   UNL     1      48.969   7.940  17.042  0.00  0.00    +0.000 C 
ENDBRANCH  13  15
ENDBRANCH  11  13
ENDBRANCH  10  11
ENDBRANCH   1  10
BRANCH   9  16
ATOM     16  C   UNL     1      44.337   4.461  10.080  0.00  0.00    +0.000 C 
BRANCH  16  17
ATOM     17  C   UNL     1      45.125   3.681   9.063  0.00  0.00    +0.000 A 
ATOM     18  C   UNL     1      45.896   4.319   8.090  0.00  0.00    +0.000 A 
ATOM     19  C   UNL     1      46.716   3.566   7.250  0.00  0.00    +0.000 A 
ATOM     20  C   UNL     1      46.743   2.182   7.395  0.00  0.00    +0.000 A 
ATOM     21  N   UNL     1      45.968   1.535   8.298  0.00  0.00    +0.000 NA
ATOM     22  C   UNL     1      45.184   2.291   9.105  0.00  0.00    +0.000 A 
BRANCH  20  23
ATOM     23  C   UNL     1      47.696   1.337   6.575  0.00  0.00    +0.000 C 
BRANCH  23  24
ATOM     24  N   UNL     1      48.374   2.083   5.511  0.00  0.00    +0.000 NA
ATOM     25  H   UNL     1      48.347   3.071   5.765  0.00  0.00    +0.000 HD
ATOM     26  H   UNL     1      47.817   2.004   4.662  0.00  0.00    +0.000 HD
ENDBRANCH  23  24
ENDBRANCH  20  23
ENDBRANCH  16  17
ENDBRANCH   9  16
TORSDOF 8
ENDMDL
MODEL 6
REMARK VINA RESULT:    -5.863      1.742      6.833
REMARK INTER + INTRA:          -9.473
REMARK INTER:                  -8.625
REMARK INTRA:                  -0.848
REMARK UNBOUND:                -1.039
REMARK  Name = 
REMARK  9 active torsions:
REMARK  status: ('A' for Active; 'I' for Inactive)
REMARK    1  A    between atoms: C_1  and  C_2
REMARK    2  A    between atoms: C_2  and  C_3
REMARK    3  A    between atoms: C_3  and  N_4
REMARK    4  A    between atoms: N_4  and  C_5
REMARK    5  A    between atoms: C_5  and  C_6
REMARK    6  A    between atoms: N_14  and  C_15
REMARK    7  A    between atoms: C_15  and  C_16
REMARK    8  A    between atoms: C_19  and  C_20
REMARK    9  A    between atoms: C_20  and  N_21
REMARK                            x       y       z     vdW  Elec       q    Type
REMARK                         _______ _______ _______ _____ _____    ______ ____
ROOT
ATOM      1  C   UNL     1      44.377   3.130  10.112  0.00  0.00    +0.000 A 
ATOM      2  C   UNL     1      43.656   2.526  11.159  0.00  0.00    +0.000 A 
ATOM      3  C   UNL     1      43.510   3.185  12.371  0.00  0.00    +0.000 A 
ATOM      4  N   UNL     1      44.030   4.390  12.677  0.00  0.00    +0.000 NA
ATOM      5  C   UNL     1      44.740   4.933  11.667  0.00  0.00    +0.000 A 
ATOM      6  C   UNL     1      44.946   4.392  10.398  0.00  0.00    +0.000 A 
ATOM      7  C   UNL     1      45.730   5.339   9.677  0.00  0.00    +0.000 A 
ATOM      8  C   UNL     1      45.992   6.402  10.517  0.00  0.00    +0.000 A 
ATOM      9  N   UNL     1      45.405   6.135  11.728  0.00  0.00    +0.000 N 
ENDROOT
BRANCH   1  10
ATOM     10  C   UNL     1      44.528   2.421   8.786  0.00  0.00    +0.000 C 
BRANCH  10  11
ATOM     11  N   UNL     1      45.539   1.366   8.858  0.00  0.00    +0.000 NA
ATOM     12  H   UNL     1      45.950   1.353   9.790  0.00  0.00    +0.000 HD
BRANCH  11  13
ATOM     13  C   UNL     1      46.590   1.566   7.865  0.00  0.00    +0.000 C 
BRANCH  13  15
ATOM     14  C   UNL     1      46.877   2.779   5.677  0.00  0.00    +0.000 C 
ATOM     15  C   UNL     1      46.311   2.851   7.086  0.00  0.00    +0.000 C 
ENDBRANCH  13  15
ENDBRANCH  11  13
ENDBRANCH  10  11
ENDBRANCH   1  10
BRANCH   9  16
ATOM     16  C   UNL     1      45.389   7.034  12.870  0.00  0.00    +0.000 C 
BRANCH  16  17
ATOM     17  C   UNL     1      46.760   7.500  13.276  0.00  0.00    +0.000 A 
ATOM     18  C   UNL     1      47.751   6.599  13.673  0.00  0.00    +0.000 A 
ATOM     19  C   UNL     1      49.047   7.053  13.913  0.00  0.00    +0.000 A 
ATOM     20  C   UNL     1      49.328   8.408  13.760  0.00  0.00    +0.000 A 
ATOM     21  N   UNL     1      48.374   9.309  13.423  0.00  0.00    +0.000 NA
ATOM     22  C   UNL     1      47.124   8.840  13.190  0.00  0.00    +0.000 A 
BRANCH  20  23
ATOM     23  C   UNL     1      50.743   8.926  13.909  0.00  0.00    +0.000 C 
BRANCH  23  24
ATOM     24  N   UNL     1      51.203   9.713  12.762  0.00  0.00    +0.000 NA
ATOM     25  H   UNL     1      52.221   9.772  12.819  0.00  0.00    +0.000 HD
ATOM     26  H   UNL     1      50.869  10.668  12.876  0.00  0.00    +0.000 HD
ENDBRANCH  23  24
ENDBRANCH  20  23
ENDBRANCH  16  17
ENDBRANCH   9  16
TORSDOF 8
ENDMDL
MODEL 7
REMARK VINA RESULT:    -5.710      2.811      7.932
REMARK INTER + INTRA:          -9.254
REMARK INTER:                  -8.910
REMARK INTRA:                  -0.344
REMARK UNBOUND:                -1.039
REMARK  Name = 
REMARK  9 active torsions:
REMARK  status: ('A' for Active; 'I' for Inactive)
REMARK    1  A    between atoms: C_1  and  C_2
REMARK    2  A    between atoms: C_2  and  C_3
REMARK    3  A    between atoms: C_3  and  N_4
REMARK    4  A    between atoms: N_4  and  C_5
REMARK    5  A    between atoms: C_5  and  C_6
REMARK    6  A    between atoms: N_14  and  C_15
REMARK    7  A    between atoms: C_15  and  C_16
REMARK    8  A    between atoms: C_19  and  C_20
REMARK    9  A    between atoms: C_20  and  N_21
REMARK                            x       y       z     vdW  Elec       q    Type
REMARK                         _______ _______ _______ _____ _____    ______ ____
ROOT
ATOM      1  C   UNL     1      44.381   5.775  11.580  0.00  0.00    +0.000 A 
ATOM      2  C   UNL     1      44.388   7.179  11.477  0.00  0.00    +0.000 A 
ATOM      3  C   UNL     1      45.373   7.917  12.116  0.00  0.00    +0.000 A 
ATOM      4  N   UNL     1      46.360   7.412  12.883  0.00  0.00    +0.000 NA
ATOM      5  C   UNL     1      46.313   6.068  12.989  0.00  0.00    +0.000 A 
ATOM      6  C   UNL     1      45.397   5.208  12.384  0.00  0.00    +0.000 A 
ATOM      7  C   UNL     1      45.770   3.887  12.767  0.00  0.00    +0.000 A 
ATOM      8  C   UNL     1      46.870   3.977  13.594  0.00  0.00    +0.000 A 
ATOM      9  N   UNL     1      47.177   5.307  13.739  0.00  0.00    +0.000 N 
ENDROOT
BRANCH   1  10
ATOM     10  C   UNL     1      43.317   4.967  10.876  0.00  0.00    +0.000 C 
BRANCH  10  11
ATOM     11  N   UNL     1      43.658   4.749   9.469  0.00  0.00    +0.000 NA
ATOM     12  H   UNL     1      42.806   4.740   8.912  0.00  0.00    +0.000 HD
BRANCH  11  13
ATOM     13  C   UNL     1      44.375   3.492   9.283  0.00  0.00    +0.000 C 
BRANCH  13  15
ATOM     14  C   UNL     1      46.152   2.408   7.865  0.00  0.00    +0.000 C 
ATOM     15  C   UNL     1      45.138   3.536   7.959  0.00  0.00    +0.000 C 
ENDBRANCH  13  15
ENDBRANCH  11  13
ENDBRANCH  10  11
ENDBRANCH   1  10
BRANCH   9  16
ATOM     16  C   UNL     1      48.313   5.830  14.481  0.00  0.00    +0.000 C 
BRANCH  16  17
ATOM     17  C   UNL     1      48.159   5.696  15.971  0.00  0.00    +0.000 A 
ATOM     18  C   UNL     1      47.477   4.619  16.542  0.00  0.00    +0.000 A 
ATOM     19  C   UNL     1      47.469   4.457  17.927  0.00  0.00    +0.000 A 
ATOM     20  C   UNL     1      48.140   5.384  18.720  0.00  0.00    +0.000 A 
ATOM     21  N   UNL     1      48.768   6.463  18.193  0.00  0.00    +0.000 NA
ATOM     22  C   UNL     1      48.765   6.593  16.845  0.00  0.00    +0.000 A 
BRANCH  20  23
ATOM     23  C   UNL     1      48.244   5.189  20.218  0.00  0.00    +0.000 C 
BRANCH  23  24
ATOM     24  N   UNL     1      48.417   3.789  20.616  0.00  0.00    +0.000 NA
ATOM     25  H   UNL     1      49.346   3.701  21.031  0.00  0.00    +0.000 HD
ATOM     26  H   UNL     1      48.442   3.219  19.772  0.00  0.00    +0.000 HD
ENDBRANCH  23  24
ENDBRANCH  20  23
ENDBRANCH  16  17
ENDBRANCH   9  16
TORSDOF 8
ENDMDL
MODEL 8
REMARK VINA RESULT:    -5.688      2.158      6.684
REMARK INTER + INTRA:          -9.222
REMARK INTER:                  -8.182
REMARK INTRA:                  -1.040
REMARK UNBOUND:                -1.039
REMARK  Name = 
REMARK  9 active torsions:
REMARK  status: ('A' for Active; 'I' for Inactive)
REMARK    1  A    between atoms: C_1  and  C_2
REMARK    2  A    between atoms: C_2  and  C_3
REMARK    3  A    between atoms: C_3  and  N_4
REMARK    4  A    between atoms: N_4  and  C_5
REMARK    5  A    between atoms: C_5  and  C_6
REMARK    6  A    between atoms: N_14  and  C_15
REMARK    7  A    between atoms: C_15  and  C_16
REMARK    8  A    between atoms: C_19  and  C_20
REMARK    9  A    between atoms: C_20  and  N_21
REMARK                            x       y       z     vdW  Elec       q    Type
REMARK                         _______ _______ _______ _____ _____    ______ ____
ROOT
ATOM      1  C   UNL     1      43.973   4.322  11.879  0.00  0.00    +0.000 A 
ATOM      2  C   UNL     1      43.129   5.239  11.224  0.00  0.00    +0.000 A 
ATOM      3  C   UNL     1      43.455   6.587  11.201  0.00  0.00    +0.000 A 
ATOM      4  N   UNL     1      44.533   7.145  11.787  0.00  0.00    +0.000 NA
ATOM      5  C   UNL     1      45.308   6.249  12.432  0.00  0.00    +0.000 A 
ATOM      6  C   UNL     1      45.111   4.871  12.514  0.00  0.00    +0.000 A 
ATOM      7  C   UNL     1      46.201   4.351  13.270  0.00  0.00    +0.000 A 
ATOM      8  C   UNL     1      47.007   5.408  13.637  0.00  0.00    +0.000 A 
ATOM      9  N   UNL     1      46.444   6.557  13.142  0.00  0.00    +0.000 N 
ENDROOT
BRANCH   1  10
ATOM     10  C   UNL     1      43.629   2.851  11.895  0.00  0.00    +0.000 C 
BRANCH  10  11
ATOM     11  N   UNL     1      43.628   2.289  10.544  0.00  0.00    +0.000 NA
ATOM     12  H   UNL     1      43.366   1.306  10.586  0.00  0.00    +0.000 HD
BRANCH  11  13
ATOM     13  C   UNL     1      44.939   2.417   9.913  0.00  0.00    +0.000 C 
BRANCH  13  15
ATOM     14  C   UNL     1      45.530   4.349   8.411  0.00  0.00    +0.000 C 
ATOM     15  C   UNL     1      44.773   3.035   8.525  0.00  0.00    +0.000 C 
ENDBRANCH  13  15
ENDBRANCH  11  13
ENDBRANCH  10  11
ENDBRANCH   1  10
BRANCH   9  16
ATOM     16  C   UNL     1      47.018   7.889  13.251  0.00  0.00    +0.000 C 
BRANCH  16  17
ATOM     17  C   UNL     1      48.477   7.935  12.891  0.00  0.00    +0.000 A 
ATOM     18  C   UNL     1      48.915   7.715  11.582  0.00  0.00    +0.000 A 
ATOM     19  C   UNL     1      50.259   7.898  11.260  0.00  0.00    +0.000 A 
ATOM     20  C   UNL     1      51.147   8.291  12.257  0.00  0.00    +0.000 A 
ATOM     21  N   UNL     1      50.756   8.464  13.543  0.00  0.00    +0.000 NA
ATOM     22  C   UNL     1      49.444   8.285  13.828  0.00  0.00    +0.000 A 
BRANCH  20  23
ATOM     23  C   UNL     1      52.592   8.601  11.928  0.00  0.00    +0.000 C 
BRANCH  23  24
ATOM     24  N   UNL     1      53.547   7.694  12.571  0.00  0.00    +0.000 NA
ATOM     25  H   UNL     1      54.406   8.220  12.736  0.00  0.00    +0.000 HD
ATOM     26  H   UNL     1      53.796   6.968  11.902  0.00  0.00    +0.000 HD
ENDBRANCH  23  24
ENDBRANCH  20  23
ENDBRANCH  16  17
ENDBRANCH   9  16
TORSDOF 8
ENDMDL
MODEL 9
REMARK VINA RESULT:    -5.452      1.765      2.288
REMARK INTER + INTRA:          -8.882
REMARK INTER:                  -8.104
REMARK INTRA:                  -0.778
REMARK UNBOUND:                -1.039
REMARK  Name = 
REMARK  9 active torsions:
REMARK  status: ('A' for Active; 'I' for Inactive)
REMARK    1  A    between atoms: C_1  and  C_2
REMARK    2  A    between atoms: C_2  and  C_3
REMARK    3  A    between atoms: C_3  and  N_4
REMARK    4  A    between atoms: N_4  and  C_5
REMARK    5  A    between atoms: C_5  and  C_6
REMARK    6  A    between atoms: N_14  and  C_15
REMARK    7  A    between atoms: C_15  and  C_16
REMARK    8  A    between atoms: C_19  and  C_20
REMARK    9  A    between atoms: C_20  and  N_21
REMARK                            x       y       z     vdW  Elec       q    Type
REMARK                         _______ _______ _______ _____ _____    ______ ____
ROOT
ATOM      1  C   UNL     1      47.569   7.657  13.870  0.00  0.00    +0.000 A 
ATOM      2  C   UNL     1      47.987   6.435  14.430  0.00  0.00    +0.000 A 
ATOM      3  C   UNL     1      47.336   5.258  14.092  0.00  0.00    +0.000 A 
ATOM      4  N   UNL     1      46.278   5.157  13.263  0.00  0.00    +0.000 NA
ATOM      5  C   UNL     1      45.879   6.345  12.764  0.00  0.00    +0.000 A 
ATOM      6  C   UNL     1      46.456   7.592  13.002  0.00  0.00    +0.000 A 
ATOM      7  C   UNL     1      45.710   8.534  12.236  0.00  0.00    +0.000 A 
ATOM      8  C   UNL     1      44.706   7.852  11.581  0.00  0.00    +0.000 A 
ATOM      9  N   UNL     1      44.806   6.527  11.926  0.00  0.00    +0.000 N 
ENDROOT
BRANCH   1  10
ATOM     10  C   UNL     1      48.285   8.939  14.226  0.00  0.00    +0.000 C 
BRANCH  10  11
ATOM     11  N   UNL     1      49.311   9.269  13.236  0.00  0.00    +0.000 NA
ATOM     12  H   UNL     1      50.188   8.821  13.494  0.00  0.00    +0.000 HD
BRANCH  11  13
ATOM     13  C   UNL     1      49.512  10.712  13.139  0.00  0.00    +0.000 C 
BRANCH  13  15
ATOM     14  C   UNL     1      48.742  10.950  10.753  0.00  0.00    +0.000 C 
ATOM     15  C   UNL     1      48.460  11.307  12.204  0.00  0.00    +0.000 C 
ENDBRANCH  13  15
ENDBRANCH  11  13
ENDBRANCH  10  11
ENDBRANCH   1  10
BRANCH   9  16
ATOM     16  C   UNL     1      43.974   5.457  11.399  0.00  0.00    +0.000 C 
BRANCH  16  17
ATOM     17  C   UNL     1      44.622   4.707  10.267  0.00  0.00    +0.000 A 
ATOM     18  C   UNL     1      44.255   3.397   9.953  0.00  0.00    +0.000 A 
ATOM     19  C   UNL     1      44.781   2.782   8.817  0.00  0.00    +0.000 A 
ATOM     20  C   UNL     1      45.674   3.488   8.017  0.00  0.00    +0.000 A 
ATOM     21  N   UNL     1      46.082   4.743   8.327  0.00  0.00    +0.000 NA
ATOM     22  C   UNL     1      45.553   5.319   9.432  0.00  0.00    +0.000 A 
BRANCH  20  23
ATOM     23  C   UNL     1      46.186   2.897   6.721  0.00  0.00    +0.000 C 
BRANCH  23  24
ATOM     24  N   UNL     1      46.889   3.863   5.873  0.00  0.00    +0.000 NA
ATOM     25  H   UNL     1      46.427   4.766   5.990  0.00  0.00    +0.000 HD
ATOM     26  H   UNL     1      46.737   3.603   4.900  0.00  0.00    +0.000 HD
ENDBRANCH  23  24
ENDBRANCH  20  23
ENDBRANCH  16  17
ENDBRANCH   9  16
TORSDOF 8
ENDMDL
