MODEL 1
REMARK VINA RESULT:    -7.221      0.000      0.000
REMARK INTER + INTRA:          -9.602
REMARK INTER:                  -8.909
REMARK INTRA:                  -0.693
REMARK UNBOUND:                -0.693
REMARK  Name = 
REMARK  4 active torsions:
REMARK  status: ('A' for Active; 'I' for Inactive)
REMARK    1  A    between atoms: C_2  and  C_3
REMARK    2  A    between atoms: C_6  and  C_7
REMARK    3  A    between atoms: C_7  and  N_8
REMARK    4  A    between atoms: C_13  and  C_14
REMARK                            x       y       z     vdW  Elec       q    Type
REMARK                         _______ _______ _______ _____ _____    ______ ____
ROOT
ATOM      1  N   UNL     1      45.148   5.937  11.084  0.00  0.00    +0.000 N 
ATOM      2  C   UNL     1      46.268   6.060  11.909  0.00  0.00    +0.000 A 
ATOM      3  C   UNL     1      46.453   5.294  13.049  0.00  0.00    +0.000 A 
ATOM      4  C   UNL     1      47.505   5.598  13.905  0.00  0.00    +0.000 A 
ATOM      5  C   UNL     1      48.365   6.638  13.581  0.00  0.00    +0.000 A 
ATOM      6  C   UNL     1      48.164   7.333  12.393  0.00  0.00    +0.000 A 
ATOM      7  N   UNL     1      47.114   7.058  11.579  0.00  0.00    +0.000 NA
ATOM      8  H   UNL     1      45.293   6.583  10.309  0.00  0.00    +0.000 HD
ENDROOT
BRANCH   6   9
ATOM      9  C   UNL     1      49.072   8.394  11.928  0.00  0.00    +0.000 A 
ATOM     10  C   UNL     1      48.628   9.706  11.731  0.00  0.00    +0.000 A 
ATOM     11  N   UNL     1      49.402  10.738  11.297  0.00  0.00    +0.000 NA
ATOM     12  C   UNL     1      50.694  10.447  11.030  0.00  0.00    +0.000 A 
ATOM     13  C   UNL     1      51.233   9.185  11.180  0.00  0.00    +0.000 A 
ATOM     14  F   UNL     1      52.519   8.948  10.894  0.00  0.00    +0.000 F 
ATOM     15  C   UNL     1      50.421   8.152  11.631  0.00  0.00    +0.000 A 
ENDBRANCH   6   9
BRANCH   1  16
ATOM     16  C   UNL     1      44.545   4.649  10.688  0.00  0.00    +0.000 C 
ATOM     17  C   UNL     1      43.676   3.803  11.600  0.00  0.00    +0.000 C 
ATOM     18  C   UNL     1      43.021   4.687  10.593  0.00  0.00    +0.000 C 
BRANCH  16  22
ATOM     19  C   UNL     1      46.670   2.719   7.478  0.00  0.00    +0.000 A 
ATOM     20  C   UNL     1      46.041   1.929   8.437  0.00  0.00    +0.000 A 
ATOM     21  C   UNL     1      45.348   2.547   9.480  0.00  0.00    +0.000 A 
ATOM     22  C   UNL     1      45.290   3.941   9.550  0.00  0.00    +0.000 A 
ATOM     23  N   UNL     1      45.913   4.710   8.615  0.00  0.00    +0.000 NA
ATOM     24  C   UNL     1      46.577   4.094   7.610  0.00  0.00    +0.000 A 
BRANCH  19  26
ATOM     25  N   UNL     1      47.972   1.672   5.504  0.00  0.00    +0.000 NA
ATOM     26  C   UNL     1      47.387   2.145   6.390  0.00  0.00    +0.000 C 
ENDBRANCH  19  26
ENDBRANCH  16  22
ENDBRANCH   1  16
TORSDOF 4
ENDMDL
MODEL 2
REMARK VINA RESULT:    -6.735      3.593      5.157
REMARK INTER + INTRA:          -9.003
REMARK INTER:                  -9.281
REMARK INTRA:                   0.278
REMARK UNBOUND:                -0.693
REMARK  Name = 
REMARK  4 active torsions:
REMARK  status: ('A' for Active; 'I' for Inactive)
REMARK    1  A    between atoms: C_2  and  C_3
REMARK    2  A    between atoms: C_6  and  C_7
REMARK    3  A    between atoms: C_7  and  N_8
REMARK    4  A    between atoms: C_13  and  C_14
REMARK                            x       y       z     vdW  Elec       q    Type
REMARK                         _______ _______ _______ _____ _____    ______ ____
ROOT
ATOM      1  N   UNL     1      45.834   3.123  12.699  0.00  0.00    +0.000 N 
ATOM      2  C   UNL     1      46.477   4.194  13.322  0.00  0.00    +0.000 A 
ATOM      3  C   UNL     1      46.832   5.354  12.651  0.00  0.00    +0.000 A 
ATOM      4  C   UNL     1      47.620   6.297  13.300  0.00  0.00    +0.000 A 
ATOM      5  C   UNL     1      48.003   6.072  14.616  0.00  0.00    +0.000 A 
ATOM      6  C   UNL     1      47.565   4.918  15.257  0.00  0.00    +0.000 A 
ATOM      7  N   UNL     1      46.828   3.981  14.608  0.00  0.00    +0.000 NA
ATOM      8  H   UNL     1      45.659   2.433  13.429  0.00  0.00    +0.000 HD
ENDROOT
BRANCH   6   9
ATOM      9  C   UNL     1      47.852   4.636  16.672  0.00  0.00    +0.000 A 
ATOM     10  C   UNL     1      48.011   3.328  17.143  0.00  0.00    +0.000 A 
ATOM     11  N   UNL     1      48.269   2.987  18.435  0.00  0.00    +0.000 NA
ATOM     12  C   UNL     1      48.362   4.006  19.318  0.00  0.00    +0.000 A 
ATOM     13  C   UNL     1      48.212   5.331  18.962  0.00  0.00    +0.000 A 
ATOM     14  F   UNL     1      48.306   6.303  19.878  0.00  0.00    +0.000 F 
ATOM     15  C   UNL     1      47.955   5.651  17.635  0.00  0.00    +0.000 A 
ENDBRANCH   6   9
BRANCH   1  16
ATOM     16  C   UNL     1      44.731   3.266  11.729  0.00  0.00    +0.000 C 
ATOM     17  C   UNL     1      43.289   2.895  12.024  0.00  0.00    +0.000 C 
ATOM     18  C   UNL     1      43.702   4.324  12.120  0.00  0.00    +0.000 C 
BRANCH  16  22
ATOM     19  C   UNL     1      46.000   3.171   7.615  0.00  0.00    +0.000 A 
ATOM     20  C   UNL     1      45.762   4.405   8.216  0.00  0.00    +0.000 A 
ATOM     21  C   UNL     1      45.352   4.445   9.551  0.00  0.00    +0.000 A 
ATOM     22  C   UNL     1      45.188   3.255  10.266  0.00  0.00    +0.000 A 
ATOM     23  N   UNL     1      45.414   2.051   9.672  0.00  0.00    +0.000 NA
ATOM     24  C   UNL     1      45.814   2.033   8.380  0.00  0.00    +0.000 A 
BRANCH  19  26
ATOM     25  N   UNL     1      46.771   2.992   5.153  0.00  0.00    +0.000 NA
ATOM     26  C   UNL     1      46.424   3.070   6.260  0.00  0.00    +0.000 C 
ENDBRANCH  19  26
ENDBRANCH  16  22
ENDBRANCH   1  16
TORSDOF 4
ENDMDL
MODEL 3
REMARK VINA RESULT:    -6.522      4.589      8.230
REMARK INTER + INTRA:          -8.740
REMARK INTER:                  -8.137
REMARK INTRA:                  -0.603
REMARK UNBOUND:                -0.693
REMARK  Name = 
REMARK  4 active torsions:
REMARK  status: ('A' for Active; 'I' for Inactive)
REMARK    1  A    between atoms: C_2  and  C_3
REMARK    2  A    between atoms: C_6  and  C_7
REMARK    3  A    between atoms: C_7  and  N_8
REMARK    4  A    between atoms: C_13  and  C_14
REMARK                            x       y       z     vdW  Elec       q    Type
REMARK                         _______ _______ _______ _____ _____    ______ ____
ROOT
ATOM      1  N   UNL     1      48.046   6.536  15.941  0.00  0.00    +0.000 N 
ATOM      2  C   UNL     1      47.997   6.550  14.545  0.00  0.00    +0.000 A 
ATOM      3  C   UNL     1      48.835   7.336  13.769  0.00  0.00    +0.000 A 
ATOM      4  C   UNL     1      48.607   7.422  12.400  0.00  0.00    +0.000 A 
ATOM      5  C   UNL     1      47.568   6.691  11.839  0.00  0.00    +0.000 A 
ATOM      6  C   UNL     1      46.800   5.872  12.659  0.00  0.00    +0.000 A 
ATOM      7  N   UNL     1      47.001   5.821  14.000  0.00  0.00    +0.000 NA
ATOM      8  H   UNL     1      47.358   5.847  16.242  0.00  0.00    +0.000 HD
ENDROOT
BRANCH   6   9
ATOM      9  C   UNL     1      45.734   5.000  12.140  0.00  0.00    +0.000 A 
ATOM     10  C   UNL     1      45.174   3.981  12.920  0.00  0.00    +0.000 A 
ATOM     11  N   UNL     1      44.193   3.131  12.509  0.00  0.00    +0.000 NA
ATOM     12  C   UNL     1      43.749   3.293  11.244  0.00  0.00    +0.000 A 
ATOM     13  C   UNL     1      44.240   4.259  10.387  0.00  0.00    +0.000 A 
ATOM     14  F   UNL     1      43.771   4.372   9.138  0.00  0.00    +0.000 F 
ATOM     15  C   UNL     1      45.237   5.117  10.834  0.00  0.00    +0.000 A 
ENDBRANCH   6   9
BRANCH   1  16
ATOM     16  C   UNL     1      49.294   6.525  16.729  0.00  0.00    +0.000 C 
ATOM     17  C   UNL     1      50.262   7.692  16.800  0.00  0.00    +0.000 C 
ATOM     18  C   UNL     1      49.285   7.496  17.908  0.00  0.00    +0.000 C 
BRANCH  16  22
ATOM     19  C   UNL     1      50.898   2.604  17.498  0.00  0.00    +0.000 A 
ATOM     20  C   UNL     1      49.519   2.752  17.368  0.00  0.00    +0.000 A 
ATOM     21  C   UNL     1      48.991   4.020  17.116  0.00  0.00    +0.000 A 
ATOM     22  C   UNL     1      49.844   5.120  16.996  0.00  0.00    +0.000 A 
ATOM     23  N   UNL     1      51.191   4.973  17.132  0.00  0.00    +0.000 NA
ATOM     24  C   UNL     1      51.684   3.735  17.372  0.00  0.00    +0.000 A 
BRANCH  19  26
ATOM     25  N   UNL     1      51.981   0.301  17.956  0.00  0.00    +0.000 NA
ATOM     26  C   UNL     1      51.492   1.335  17.751  0.00  0.00    +0.000 C 
ENDBRANCH  19  26
ENDBRANCH  16  22
ENDBRANCH   1  16
TORSDOF 4
ENDMDL
MODEL 4
REMARK VINA RESULT:    -6.413      2.817      7.275
REMARK INTER + INTRA:          -8.606
REMARK INTER:                  -8.103
REMARK INTRA:                  -0.503
REMARK UNBOUND:                -0.693
REMARK  Name = 
REMARK  4 active torsions:
REMARK  status: ('A' for Active; 'I' for Inactive)
REMARK    1  A    between atoms: C_2  and  C_3
REMARK    2  A    between atoms: C_6  and  C_7
REMARK    3  A    between atoms: C_7  and  N_8
REMARK    4  A    between atoms: C_13  and  C_14
REMARK                            x       y       z     vdW  Elec       q    Type
REMARK                         _______ _______ _______ _____ _____    ______ ____
ROOT
ATOM      1  N   UNL     1      47.551   6.417  14.155  0.00  0.00    +0.000 N 
ATOM      2  C   UNL     1      46.658   6.762  13.139  0.00  0.00    +0.000 A 
ATOM      3  C   UNL     1      46.092   8.023  13.028  0.00  0.00    +0.000 A 
ATOM      4  C   UNL     1      45.085   8.234  12.095  0.00  0.00    +0.000 A 
ATOM      5  C   UNL     1      44.694   7.187  11.270  0.00  0.00    +0.000 A 
ATOM      6  C   UNL     1      45.341   5.961  11.385  0.00  0.00    +0.000 A 
ATOM      7  N   UNL     1      46.297   5.748  12.324  0.00  0.00    +0.000 NA
ATOM      8  H   UNL     1      47.836   5.455  13.968  0.00  0.00    +0.000 HD
ENDROOT
BRANCH   6   9
ATOM      9  C   UNL     1      45.051   4.822  10.500  0.00  0.00    +0.000 A 
ATOM     10  C   UNL     1      44.345   3.701  10.953  0.00  0.00    +0.000 A 
ATOM     11  N   UNL     1      44.045   2.608  10.199  0.00  0.00    +0.000 NA
ATOM     12  C   UNL     1      44.484   2.622   8.921  0.00  0.00    +0.000 A 
ATOM     13  C   UNL     1      45.197   3.671   8.377  0.00  0.00    +0.000 A 
ATOM     14  F   UNL     1      45.616   3.631   7.106  0.00  0.00    +0.000 F 
ATOM     15  C   UNL     1      45.484   4.777   9.167  0.00  0.00    +0.000 A 
ENDBRANCH   6   9
BRANCH   1  16
ATOM     16  C   UNL     1      48.645   7.286  14.632  0.00  0.00    +0.000 C 
ATOM     17  C   UNL     1      48.672   7.940  16.000  0.00  0.00    +0.000 C 
ATOM     18  C   UNL     1      49.448   6.686  15.784  0.00  0.00    +0.000 C 
BRANCH  16  22
ATOM     19  C   UNL     1      50.909   9.196  11.507  0.00  0.00    +0.000 A 
ATOM     20  C   UNL     1      50.514   7.871  11.336  0.00  0.00    +0.000 A 
ATOM     21  C   UNL     1      49.778   7.245  12.343  0.00  0.00    +0.000 A 
ATOM     22  C   UNL     1      49.445   7.948  13.504  0.00  0.00    +0.000 A 
ATOM     23  N   UNL     1      49.840   9.240  13.671  0.00  0.00    +0.000 NA
ATOM     24  C   UNL     1      50.550   9.831  12.682  0.00  0.00    +0.000 A 
BRANCH  19  26
ATOM     25  N   UNL     1      52.271  10.452   9.702  0.00  0.00    +0.000 NA
ATOM     26  C   UNL     1      51.658   9.886  10.512  0.00  0.00    +0.000 C 
ENDBRANCH  19  26
ENDBRANCH  16  22
ENDBRANCH   1  16
TORSDOF 4
ENDMDL
MODEL 5
REMARK VINA RESULT:    -5.789      4.637      7.099
REMARK INTER + INTRA:          -7.836
REMARK INTER:                  -7.188
REMARK INTRA:                  -0.648
REMARK UNBOUND:                -0.693
REMARK  Name = 
REMARK  4 active torsions:
REMARK  status: ('A' for Active; 'I' for Inactive)
REMARK    1  A    between atoms: C_2  and  C_3
REMARK    2  A    between atoms: C_6  and  C_7
REMARK    3  A    between atoms: C_7  and  N_8
REMARK    4  A    between atoms: C_13  and  C_14
REMARK                            x       y       z     vdW  Elec       q    Type
REMARK                         _______ _______ _______ _____ _____    ______ ____
ROOT
ATOM      1  N   UNL     1      49.654   7.552  14.063  0.00  0.00    +0.000 N 
ATOM      2  C   UNL     1      49.543   7.232  15.417  0.00  0.00    +0.000 A 
ATOM      3  C   UNL     1      48.790   7.980  16.310  0.00  0.00    +0.000 A 
ATOM      4  C   UNL     1      48.871   7.696  17.668  0.00  0.00    +0.000 A 
ATOM      5  C   UNL     1      49.674   6.647  18.095  0.00  0.00    +0.000 A 
ATOM      6  C   UNL     1      50.358   5.893  17.147  0.00  0.00    +0.000 A 
ATOM      7  N   UNL     1      50.308   6.198  15.826  0.00  0.00    +0.000 NA
ATOM      8  H   UNL     1      50.225   6.818  13.644  0.00  0.00    +0.000 HD
ENDROOT
BRANCH   6   9
ATOM      9  C   UNL     1      51.166   4.715  17.500  0.00  0.00    +0.000 A 
ATOM     10  C   UNL     1      52.483   4.837  17.957  0.00  0.00    +0.000 A 
ATOM     11  N   UNL     1      53.294   3.797  18.295  0.00  0.00    +0.000 NA
ATOM     12  C   UNL     1      52.771   2.559  18.158  0.00  0.00    +0.000 A 
ATOM     13  C   UNL     1      51.487   2.325  17.706  0.00  0.00    +0.000 A 
ATOM     14  F   UNL     1      51.020   1.077  17.581  0.00  0.00    +0.000 F 
ATOM     15  C   UNL     1      50.679   3.405  17.374  0.00  0.00    +0.000 A 
ENDBRANCH   6   9
BRANCH   1  16
ATOM     16  C   UNL     1      48.528   7.995  13.217  0.00  0.00    +0.000 C 
ATOM     17  C   UNL     1      48.206   9.449  12.929  0.00  0.00    +0.000 C 
ATOM     18  C   UNL     1      48.963   8.662  11.914  0.00  0.00    +0.000 C 
BRANCH  16  22
ATOM     19  C   UNL     1      45.364   5.084  12.981  0.00  0.00    +0.000 A 
ATOM     20  C   UNL     1      45.045   6.434  12.857  0.00  0.00    +0.000 A 
ATOM     21  C   UNL     1      46.065   7.385  12.931  0.00  0.00    +0.000 A 
ATOM     22  C   UNL     1      47.387   6.975  13.124  0.00  0.00    +0.000 A 
ATOM     23  N   UNL     1      47.694   5.655  13.253  0.00  0.00    +0.000 NA
ATOM     24  C   UNL     1      46.692   4.749  13.176  0.00  0.00    +0.000 A 
BRANCH  19  26
ATOM     25  N   UNL     1      43.552   3.243  12.849  0.00  0.00    +0.000 NA
ATOM     26  C   UNL     1      44.366   4.071  12.911  0.00  0.00    +0.000 C 
ENDBRANCH  19  26
ENDBRANCH  16  22
ENDBRANCH   1  16
TORSDOF 4
ENDMDL
MODEL 6
REMARK VINA RESULT:    -5.731      4.737      7.103
REMARK INTER + INTRA:          -7.764
REMARK INTER:                  -7.108
REMARK INTRA:                  -0.656
REMARK UNBOUND:                -0.693
REMARK  Name = 
REMARK  4 active torsions:
REMARK  status: ('A' for Active; 'I' for Inactive)
REMARK    1  A    between atoms: C_2  and  C_3
REMARK    2  A    between atoms: C_6  and  C_7
REMARK    3  A    between atoms: C_7  and  N_8
REMARK    4  A    between atoms: C_13  and  C_14
REMARK                            x       y       z     vdW  Elec       q    Type
REMARK                         _______ _______ _______ _____ _____    ______ ____
ROOT
ATOM      1  N   UNL     1      49.390   7.165  14.320  0.00  0.00    +0.000 N 
ATOM      2  C   UNL     1      48.879   7.684  15.511  0.00  0.00    +0.000 A 
ATOM      3  C   UNL     1      48.272   8.927  15.593  0.00  0.00    +0.000 A 
ATOM      4  C   UNL     1      47.947   9.441  16.842  0.00  0.00    +0.000 A 
ATOM      5  C   UNL     1      48.204   8.682  17.976  0.00  0.00    +0.000 A 
ATOM      6  C   UNL     1      48.758   7.415  17.827  0.00  0.00    +0.000 A 
ATOM      7  N   UNL     1      49.110   6.933  16.608  0.00  0.00    +0.000 NA
ATOM      8  H   UNL     1      49.734   6.230  14.542  0.00  0.00    +0.000 HD
ENDROOT
BRANCH   6   9
ATOM      9  C   UNL     1      48.988   6.508  18.963  0.00  0.00    +0.000 A 
ATOM     10  C   UNL     1      47.954   6.142  19.832  0.00  0.00    +0.000 A 
ATOM     11  N   UNL     1      48.089   5.316  20.906  0.00  0.00    +0.000 NA
ATOM     12  C   UNL     1      49.329   4.834  21.139  0.00  0.00    +0.000 A 
ATOM     13  C   UNL     1      50.421   5.139  20.350  0.00  0.00    +0.000 A 
ATOM     14  F   UNL     1      51.631   4.639  20.631  0.00  0.00    +0.000 F 
ATOM     15  C   UNL     1      50.253   5.979  19.258  0.00  0.00    +0.000 A 
ENDBRANCH   6   9
BRANCH   1  16
ATOM     16  C   UNL     1      48.713   7.262  13.012  0.00  0.00    +0.000 C 
ATOM     17  C   UNL     1      48.726   8.504  12.141  0.00  0.00    +0.000 C 
ATOM     18  C   UNL     1      49.673   7.396  11.832  0.00  0.00    +0.000 C 
BRANCH  16  22
ATOM     19  C   UNL     1      45.456   4.476  12.600  0.00  0.00    +0.000 A 
ATOM     20  C   UNL     1      45.425   5.658  11.865  0.00  0.00    +0.000 A 
ATOM     21  C   UNL     1      46.478   6.566  11.991  0.00  0.00    +0.000 A 
ATOM     22  C   UNL     1      47.547   6.281  12.845  0.00  0.00    +0.000 A 
ATOM     23  N   UNL     1      47.569   5.128  13.569  0.00  0.00    +0.000 NA
ATOM     24  C   UNL     1      46.541   4.259  13.431  0.00  0.00    +0.000 A 
BRANCH  19  26
ATOM     25  N   UNL     1      43.562   2.723  12.430  0.00  0.00    +0.000 NA
ATOM     26  C   UNL     1      44.412   3.512  12.509  0.00  0.00    +0.000 C 
ENDBRANCH  19  26
ENDBRANCH  16  22
ENDBRANCH   1  16
TORSDOF 4
ENDMDL
MODEL 7
REMARK VINA RESULT:    -5.623      3.600      4.732
REMARK INTER + INTRA:          -7.631
REMARK INTER:                  -7.921
REMARK INTRA:                   0.290
REMARK UNBOUND:                -0.693
REMARK  Name = 
REMARK  4 active torsions:
REMARK  status: ('A' for Active; 'I' for Inactive)
REMARK    1  A    between atoms: C_2  and  C_3
REMARK    2  A    between atoms: C_6  and  C_7
REMARK    3  A    between atoms: C_7  and  N_8
REMARK    4  A    between atoms: C_13  and  C_14
REMARK                            x       y       z     vdW  Elec       q    Type
REMARK                         _______ _______ _______ _____ _____    ______ ____
ROOT
ATOM      1  N   UNL     1      46.099   4.584  13.390  0.00  0.00    +0.000 N 
ATOM      2  C   UNL     1      47.112   5.482  13.732  0.00  0.00    +0.000 A 
ATOM      3  C   UNL     1      47.730   6.310  12.809  0.00  0.00    +0.000 A 
ATOM      4  C   UNL     1      48.843   7.047  13.197  0.00  0.00    +0.000 A 
ATOM      5  C   UNL     1      49.287   6.962  14.510  0.00  0.00    +0.000 A 
ATOM      6  C   UNL     1      48.590   6.161  15.408  0.00  0.00    +0.000 A 
ATOM      7  N   UNL     1      47.527   5.414  15.015  0.00  0.00    +0.000 NA
ATOM      8  H   UNL     1      45.804   4.143  14.261  0.00  0.00    +0.000 HD
ENDROOT
BRANCH   6   9
ATOM      9  C   UNL     1      48.937   6.076  16.835  0.00  0.00    +0.000 A 
ATOM     10  C   UNL     1      48.367   6.933  17.783  0.00  0.00    +0.000 A 
ATOM     11  N   UNL     1      48.642   6.920  19.116  0.00  0.00    +0.000 NA
ATOM     12  C   UNL     1      49.549   6.010  19.533  0.00  0.00    +0.000 A 
ATOM     13  C   UNL     1      50.178   5.124  18.681  0.00  0.00    +0.000 A 
ATOM     14  F   UNL     1      51.076   4.245  19.145  0.00  0.00    +0.000 F 
ATOM     15  C   UNL     1      49.874   5.154  17.326  0.00  0.00    +0.000 A 
ENDBRANCH   6   9
BRANCH   1  16
ATOM     16  C   UNL     1      44.990   4.895  12.467  0.00  0.00    +0.000 C 
ATOM     17  C   UNL     1      43.541   5.032  12.898  0.00  0.00    +0.000 C 
ATOM     18  C   UNL     1      44.357   6.264  12.706  0.00  0.00    +0.000 C 
BRANCH  16  22
ATOM     19  C   UNL     1      45.743   3.756   8.383  0.00  0.00    +0.000 A 
ATOM     20  C   UNL     1      45.978   5.074   8.767  0.00  0.00    +0.000 A 
ATOM     21  C   UNL     1      45.738   5.451  10.090  0.00  0.00    +0.000 A 
ATOM     22  C   UNL     1      45.271   4.509  11.010  0.00  0.00    +0.000 A 
ATOM     23  N   UNL     1      45.034   3.224  10.629  0.00  0.00    +0.000 NA
ATOM     24  C   UNL     1      45.276   2.876   9.344  0.00  0.00    +0.000 A 
BRANCH  19  26
ATOM     25  N   UNL     1      46.163   2.957   5.960  0.00  0.00    +0.000 NA
ATOM     26  C   UNL     1      45.973   3.314   7.050  0.00  0.00    +0.000 C 
ENDBRANCH  19  26
ENDBRANCH  16  22
ENDBRANCH   1  16
TORSDOF 4
ENDMDL
MODEL 8
REMARK VINA RESULT:    -5.403      4.019      6.754
REMARK INTER + INTRA:          -7.359
REMARK INTER:                  -6.581
REMARK INTRA:                  -0.778
REMARK UNBOUND:                -0.693
REMARK  Name = 
REMARK  4 active torsions:
REMARK  status: ('A' for Active; 'I' for Inactive)
REMARK    1  A    between atoms: C_2  and  C_3
REMARK    2  A    between atoms: C_6  and  C_7
REMARK    3  A    between atoms: C_7  and  N_8
REMARK    4  A    between atoms: C_13  and  C_14
REMARK                            x       y       z     vdW  Elec       q    Type
REMARK                         _______ _______ _______ _____ _____    ______ ____
ROOT
ATOM      1  N   UNL     1      49.310   8.686  13.474  0.00  0.00    +0.000 N 
ATOM      2  C   UNL     1      49.027   8.411  14.813  0.00  0.00    +0.000 A 
ATOM      3  C   UNL     1      48.320   9.280  15.629  0.00  0.00    +0.000 A 
ATOM      4  C   UNL     1      48.231   9.011  16.989  0.00  0.00    +0.000 A 
ATOM      5  C   UNL     1      48.821   7.859  17.493  0.00  0.00    +0.000 A 
ATOM      6  C   UNL     1      49.464   6.993  16.616  0.00  0.00    +0.000 A 
ATOM      7  N   UNL     1      49.582   7.279  15.294  0.00  0.00    +0.000 NA
ATOM      8  H   UNL     1      49.796   7.866  13.112  0.00  0.00    +0.000 HD
ENDROOT
BRANCH   6   9
ATOM      9  C   UNL     1      50.045   5.711  17.045  0.00  0.00    +0.000 A 
ATOM     10  C   UNL     1      51.425   5.550  17.216  0.00  0.00    +0.000 A 
ATOM     11  N   UNL     1      52.036   4.397  17.603  0.00  0.00    +0.000 NA
ATOM     12  C   UNL     1      51.231   3.335  17.821  0.00  0.00    +0.000 A 
ATOM     13  C   UNL     1      49.860   3.381  17.672  0.00  0.00    +0.000 A 
ATOM     14  F   UNL     1      49.107   2.296  17.893  0.00  0.00    +0.000 F 
ATOM     15  C   UNL     1      49.261   4.572  17.282  0.00  0.00    +0.000 A 
ENDBRANCH   6   9
BRANCH   1  16
ATOM     16  C   UNL     1      48.347   9.281  12.526  0.00  0.00    +0.000 C 
ATOM     17  C   UNL     1      48.154  10.775  12.339  0.00  0.00    +0.000 C 
ATOM     18  C   UNL     1      49.007  10.030  11.370  0.00  0.00    +0.000 C 
BRANCH  16  22
ATOM     19  C   UNL     1      45.019   6.739  11.525  0.00  0.00    +0.000 A 
ATOM     20  C   UNL     1      46.308   6.220  11.445  0.00  0.00    +0.000 A 
ATOM     21  C   UNL     1      47.393   7.036  11.770  0.00  0.00    +0.000 A 
ATOM     22  C   UNL     1      47.176   8.357  12.171  0.00  0.00    +0.000 A 
ATOM     23  N   UNL     1      45.915   8.865  12.240  0.00  0.00    +0.000 NA
ATOM     24  C   UNL     1      44.876   8.056  11.924  0.00  0.00    +0.000 A 
BRANCH  19  26
ATOM     25  N   UNL     1      42.940   5.309  10.956  0.00  0.00    +0.000 NA
ATOM     26  C   UNL     1      43.875   5.952  11.210  0.00  0.00    +0.000 C 
ENDBRANCH  19  26
ENDBRANCH  16  22
ENDBRANCH   1  16
TORSDOF 4
ENDMDL
MODEL 9
REMARK VINA RESULT:    -5.200      3.261      5.449
REMARK INTER + INTRA:          -7.108
REMARK INTER:                  -7.134
REMARK INTRA:                   0.026
REMARK UNBOUND:                -0.693
REMARK  Name = 
REMARK  4 active torsions:
REMARK  status: ('A' for Active; 'I' for Inactive)
REMARK    1  A    between atoms: C_2  and  C_3
REMARK    2  A    between atoms: C_6  and  C_7
REMARK    3  A    between atoms: C_7  and  N_8
REMARK    4  A    between atoms: C_13  and  C_14
REMARK                            x       y       z     vdW  Elec       q    Type
REMARK                         _______ _______ _______ _____ _____    ______ ____
ROOT
ATOM      1  N   UNL     1      48.670   7.683  11.507  0.00  0.00    +0.000 N 
ATOM      2  C   UNL     1      50.061   7.766  11.587  0.00  0.00    +0.000 A 
ATOM      3  C   UNL     1      50.720   8.421  12.616  0.00  0.00    +0.000 A 
ATOM      4  C   UNL     1      52.095   8.606  12.531  0.00  0.00    +0.000 A 
ATOM      5  C   UNL     1      52.780   8.100  11.435  0.00  0.00    +0.000 A 
ATOM      6  C   UNL     1      52.075   7.399  10.463  0.00  0.00    +0.000 A 
ATOM      7  N   UNL     1      50.727   7.254  10.531  0.00  0.00    +0.000 NA
ATOM      8  H   UNL     1      48.466   7.117  10.683  0.00  0.00    +0.000 HD
ENDROOT
BRANCH   6   9
ATOM      9  C   UNL     1      52.729   6.758   9.312  0.00  0.00    +0.000 A 
ATOM     10  C   UNL     1      52.338   7.035   7.997  0.00  0.00    +0.000 A 
ATOM     11  N   UNL     1      52.888   6.479   6.883  0.00  0.00    +0.000 NA
ATOM     12  C   UNL     1      53.877   5.582   7.086  0.00  0.00    +0.000 A 
ATOM     13  C   UNL     1      54.332   5.228   8.341  0.00  0.00    +0.000 A 
ATOM     14  F   UNL     1      55.312   4.326   8.487  0.00  0.00    +0.000 F 
ATOM     15  C   UNL     1      53.758   5.816   9.460  0.00  0.00    +0.000 A 
ENDBRANCH   6   9
BRANCH   1  16
ATOM     16  C   UNL     1      47.785   7.412  12.657  0.00  0.00    +0.000 C 
ATOM     17  C   UNL     1      48.154   7.710  14.098  0.00  0.00    +0.000 C 
ATOM     18  C   UNL     1      47.289   8.673  13.360  0.00  0.00    +0.000 C 
BRANCH  16  22
ATOM     19  C   UNL     1      44.868   4.317  11.985  0.00  0.00    +0.000 A 
ATOM     20  C   UNL     1      45.158   5.203  10.950  0.00  0.00    +0.000 A 
ATOM     21  C   UNL     1      46.104   6.208  11.159  0.00  0.00    +0.000 A 
ATOM     22  C   UNL     1      46.749   6.314  12.394  0.00  0.00    +0.000 A 
ATOM     23  N   UNL     1      46.456   5.452  13.406  0.00  0.00    +0.000 NA
ATOM     24  C   UNL     1      45.539   4.482  13.183  0.00  0.00    +0.000 A 
BRANCH  19  26
ATOM     25  N   UNL     1      43.138   2.417  11.695  0.00  0.00    +0.000 NA
ATOM     26  C   UNL     1      43.915   3.271  11.828  0.00  0.00    +0.000 C 
ENDBRANCH  19  26
ENDBRANCH  16  22
ENDBRANCH   1  16
TORSDOF 4
ENDMDL
