MODEL 1
REMARK VINA RESULT:    -8.012      0.000      0.000
REMARK INTER + INTRA:         -11.726
REMARK INTER:                 -10.822
REMARK INTRA:                  -0.903
REMARK UNBOUND:                -0.903
REMARK  Name = 
REMARK  6 active torsions:
REMARK  status: ('A' for Active; 'I' for Inactive)
REMARK    1  A    between atoms: C_2  and  C_20
REMARK    2  A    between atoms: N_3  and  C_4
REMARK    3  A    between atoms: C_4  and  C_5
REMARK    4  A    between atoms: C_8  and  C_9
REMARK    5  A    between atoms: C_9  and  N_10
REMARK    6  A    between atoms: C_11  and  C_13
REMARK                            x       y       z     vdW  Elec       q    Type
REMARK                         _______ _______ _______ _____ _____    ______ ____
ROOT
ATOM      1  C   UNL     1      46.401   7.641  12.953  0.00  0.00    +0.000 A 
ATOM      2  C   UNL     1      46.466   6.241  12.926  0.00  0.00    +0.000 A 
ATOM      3  C   UNL     1      45.539   5.495  12.189  0.00  0.00    +0.000 A 
ATOM      4  C   UNL     1      44.542   6.135  11.440  0.00  0.00    +0.000 A 
ATOM      5  C   UNL     1      44.490   7.535  11.451  0.00  0.00    +0.000 A 
ATOM      6  C   UNL     1      45.416   8.281  12.191  0.00  0.00    +0.000 A 
ENDROOT
BRANCH   1   7
ATOM      7  C   UNL     1      47.404   8.444  13.745  0.00  0.00    +0.000 C 
BRANCH   7  10
ATOM      8  O   UNL     1      49.811   7.046  14.017  0.00  0.00    +0.000 OA
ATOM      9  C   UNL     1      49.063   7.124  14.986  0.00  0.00    +0.000 C 
ATOM     10  N   UNL     1      47.830   7.723  14.916  0.00  0.00    +0.000 N 
ATOM     11  H   UNL     1      47.344   7.951  15.777  0.00  0.00    +0.000 HD
BRANCH   9  12
ATOM     12  C   UNL     1      49.421   6.538  16.285  0.00  0.00    +0.000 A 
ATOM     13  C   UNL     1      50.376   7.150  17.086  0.00  0.00    +0.000 A 
ATOM     14  S   UNL     1      50.683   6.311  18.541  0.00  0.00    +0.000 S 
ATOM     15  C   UNL     1      49.515   5.130  18.173  0.00  0.00    +0.000 A 
ATOM     16  N   UNL     1      49.252   4.110  19.034  0.00  0.00    +0.000 NA
ATOM     17  C   UNL     1      48.322   3.306  18.641  0.00  0.00    +0.000 A 
ATOM     18  N   UNL     1      47.633   3.423  17.461  0.00  0.00    +0.000 N 
ATOM     19  C   UNL     1      47.883   4.420  16.550  0.00  0.00    +0.000 A 
ATOM     20  O   UNL     1      47.276   4.472  15.486  0.00  0.00    +0.000 OA
ATOM     21  C   UNL     1      48.914   5.360  16.949  0.00  0.00    +0.000 A 
ATOM     22  H   UNL     1      46.924   2.754  17.205  0.00  0.00    +0.000 HD
ENDBRANCH   9  12
ENDBRANCH   7  10
ENDBRANCH   1   7
BRANCH   4  23
ATOM     23  C   UNL     1      43.549   5.342  10.630  0.00  0.00    +0.000 C 
BRANCH  23  24
ATOM     24  N   UNL     1      44.141   4.737   9.464  0.00  0.00    +0.000 N 
ATOM     25  C   UNL     1      44.395   3.384   9.418  0.00  0.00    +0.000 C 
ATOM     26  O   UNL     1      44.106   2.617  10.335  0.00  0.00    +0.000 OA
ATOM     27  H   UNL     1      44.641   5.301   8.780  0.00  0.00    +0.000 HD
BRANCH  25  28
ATOM     28  C   UNL     1      45.036   2.887   8.115  0.00  0.00    +0.000 C 
ATOM     29  C   UNL     1      46.053   1.785   8.340  0.00  0.00    +0.000 C 
ATOM     30  C   UNL     1      46.845   1.796   7.046  0.00  0.00    +0.000 C 
ATOM     31  C   UNL     1      46.786   3.241   6.567  0.00  0.00    +0.000 C 
ATOM     32  N   UNL     1      45.836   3.940   7.440  0.00  0.00    +0.000 NA
ATOM     33  H   UNL     1      45.213   4.526   6.883  0.00  0.00    +0.000 HD
ENDBRANCH  25  28
ENDBRANCH  23  24
ENDBRANCH   4  23
TORSDOF 6
ENDMDL
MODEL 2
REMARK VINA RESULT:    -7.563      4.414      9.504
REMARK INTER + INTRA:         -11.119
REMARK INTER:                 -10.259
REMARK INTRA:                  -0.861
REMARK UNBOUND:                -0.903
REMARK  Name = 
REMARK  6 active torsions:
REMARK  status: ('A' for Active; 'I' for Inactive)
REMARK    1  A    between atoms: C_2  and  C_20
REMARK    2  A    between atoms: N_3  and  C_4
REMARK    3  A    between atoms: C_4  and  C_5
REMARK    4  A    between atoms: C_8  and  C_9
REMARK    5  A    between atoms: C_9  and  N_10
REMARK    6  A    between atoms: C_11  and  C_13
REMARK                            x       y       z     vdW  Elec       q    Type
REMARK                         _______ _______ _______ _____ _____    ______ ____
ROOT
ATOM      1  C   UNL     1      48.621   3.519  17.071  0.00  0.00    +0.000 A 
ATOM      2  C   UNL     1      49.395   2.351  17.041  0.00  0.00    +0.000 A 
ATOM      3  C   UNL     1      50.764   2.392  17.330  0.00  0.00    +0.000 A 
ATOM      4  C   UNL     1      51.384   3.599  17.683  0.00  0.00    +0.000 A 
ATOM      5  C   UNL     1      50.605   4.763  17.732  0.00  0.00    +0.000 A 
ATOM      6  C   UNL     1      49.236   4.722  17.440  0.00  0.00    +0.000 A 
ENDROOT
BRANCH   1   7
ATOM      7  C   UNL     1      47.144   3.473  16.763  0.00  0.00    +0.000 C 
BRANCH   7  10
ATOM      8  O   UNL     1      47.219   3.140  13.988  0.00  0.00    +0.000 OA
ATOM      9  C   UNL     1      46.790   4.195  14.442  0.00  0.00    +0.000 C 
ATOM     10  N   UNL     1      46.792   4.471  15.787  0.00  0.00    +0.000 N 
ATOM     11  H   UNL     1      46.241   5.250  16.130  0.00  0.00    +0.000 HD
BRANCH   9  12
ATOM     12  C   UNL     1      46.282   5.262  13.567  0.00  0.00    +0.000 A 
ATOM     13  C   UNL     1      47.076   6.362  13.277  0.00  0.00    +0.000 A 
ATOM     14  S   UNL     1      46.309   7.509  12.272  0.00  0.00    +0.000 S 
ATOM     15  C   UNL     1      44.909   6.551  12.150  0.00  0.00    +0.000 A 
ATOM     16  N   UNL     1      43.848   6.950  11.398  0.00  0.00    +0.000 NA
ATOM     17  C   UNL     1      42.867   6.111  11.372  0.00  0.00    +0.000 A 
ATOM     18  N   UNL     1      42.845   4.912  12.035  0.00  0.00    +0.000 N 
ATOM     19  C   UNL     1      43.881   4.481  12.828  0.00  0.00    +0.000 A 
ATOM     20  O   UNL     1      43.812   3.420  13.439  0.00  0.00    +0.000 OA
ATOM     21  C   UNL     1      45.016   5.383  12.883  0.00  0.00    +0.000 A 
ATOM     22  H   UNL     1      42.042   4.304  11.984  0.00  0.00    +0.000 HD
ENDBRANCH   9  12
ENDBRANCH   7  10
ENDBRANCH   1   7
BRANCH   4  23
ATOM     23  C   UNL     1      52.853   3.651  18.012  0.00  0.00    +0.000 C 
BRANCH  23  24
ATOM     24  N   UNL     1      53.514   2.387  17.805  0.00  0.00    +0.000 N 
ATOM     25  C   UNL     1      54.152   1.742  18.841  0.00  0.00    +0.000 C 
ATOM     26  O   UNL     1      54.166   2.175  19.992  0.00  0.00    +0.000 OA
ATOM     27  H   UNL     1      53.777   2.084  16.870  0.00  0.00    +0.000 HD
BRANCH  25  28
ATOM     28  C   UNL     1      54.820   0.412  18.465  0.00  0.00    +0.000 C 
ATOM     29  C   UNL     1      54.647   0.058  17.001  0.00  0.00    +0.000 C 
ATOM     30  C   UNL     1      54.956  -1.428  16.981  0.00  0.00    +0.000 C 
ATOM     31  C   UNL     1      54.532  -1.931  18.355  0.00  0.00    +0.000 C 
ATOM     32  N   UNL     1      54.204  -0.747  19.159  0.00  0.00    +0.000 NA
ATOM     33  H   UNL     1      54.612  -0.833  20.092  0.00  0.00    +0.000 HD
ENDBRANCH  25  28
ENDBRANCH  23  24
ENDBRANCH   4  23
TORSDOF 6
ENDMDL
MODEL 3
REMARK VINA RESULT:    -7.092      1.678      2.066
REMARK INTER + INTRA:         -10.482
REMARK INTER:                  -9.545
REMARK INTRA:                  -0.938
REMARK UNBOUND:                -0.903
REMARK  Name = 
REMARK  6 active torsions:
REMARK  status: ('A' for Active; 'I' for Inactive)
REMARK    1  A    between atoms: C_2  and  C_20
REMARK    2  A    between atoms: N_3  and  C_4
REMARK    3  A    between atoms: C_4  and  C_5
REMARK    4  A    between atoms: C_8  and  C_9
REMARK    5  A    between atoms: C_9  and  N_10
REMARK    6  A    between atoms: C_11  and  C_13
REMARK                            x       y       z     vdW  Elec       q    Type
REMARK                         _______ _______ _______ _____ _____    ______ ____
ROOT
ATOM      1  C   UNL     1      47.501   7.479  13.612  0.00  0.00    +0.000 A 
ATOM      2  C   UNL     1      46.439   8.309  13.226  0.00  0.00    +0.000 A 
ATOM      3  C   UNL     1      45.391   7.812  12.443  0.00  0.00    +0.000 A 
ATOM      4  C   UNL     1      45.368   6.468  12.051  0.00  0.00    +0.000 A 
ATOM      5  C   UNL     1      46.419   5.633  12.454  0.00  0.00    +0.000 A 
ATOM      6  C   UNL     1      47.469   6.131  13.235  0.00  0.00    +0.000 A 
ENDROOT
BRANCH   1   7
ATOM      7  C   UNL     1      48.629   8.014  14.460  0.00  0.00    +0.000 C 
BRANCH   7  10
ATOM      8  O   UNL     1      50.935   8.120  16.038  0.00  0.00    +0.000 OA
ATOM      9  C   UNL     1      50.106   7.246  16.267  0.00  0.00    +0.000 C 
ATOM     10  N   UNL     1      48.986   7.075  15.492  0.00  0.00    +0.000 N 
ATOM     11  H   UNL     1      48.234   6.489  15.837  0.00  0.00    +0.000 HD
BRANCH   9  12
ATOM     12  C   UNL     1      50.279   6.288  17.368  0.00  0.00    +0.000 A 
ATOM     13  C   UNL     1      51.354   5.409  17.364  0.00  0.00    +0.000 A 
ATOM     14  S   UNL     1      51.374   4.353  18.705  0.00  0.00    +0.000 S 
ATOM     15  C   UNL     1      49.976   5.067  19.361  0.00  0.00    +0.000 A 
ATOM     16  N   UNL     1      49.459   4.639  20.544  0.00  0.00    +0.000 NA
ATOM     17  C   UNL     1      48.415   5.290  20.936  0.00  0.00    +0.000 A 
ATOM     18  N   UNL     1      47.837   6.327  20.251  0.00  0.00    +0.000 N 
ATOM     19  C   UNL     1      48.308   6.774  19.041  0.00  0.00    +0.000 A 
ATOM     20  O   UNL     1      47.742   7.677  18.435  0.00  0.00    +0.000 OA
ATOM     21  C   UNL     1      49.489   6.082  18.559  0.00  0.00    +0.000 A 
ATOM     22  H   UNL     1      47.014   6.789  20.606  0.00  0.00    +0.000 HD
ENDBRANCH   9  12
ENDBRANCH   7  10
ENDBRANCH   1   7
BRANCH   4  23
ATOM     23  C   UNL     1      44.235   5.919  11.222  0.00  0.00    +0.000 C 
BRANCH  23  24
ATOM     24  N   UNL     1      44.693   5.243  10.034  0.00  0.00    +0.000 N 
ATOM     25  C   UNL     1      44.348   3.933   9.786  0.00  0.00    +0.000 C 
ATOM     26  O   UNL     1      43.615   3.282  10.528  0.00  0.00    +0.000 OA
ATOM     27  H   UNL     1      45.489   5.596   9.507  0.00  0.00    +0.000 HD
BRANCH  25  28
ATOM     28  C   UNL     1      44.918   3.346   8.487  0.00  0.00    +0.000 C 
ATOM     29  C   UNL     1      45.745   2.097   8.717  0.00  0.00    +0.000 C 
ATOM     30  C   UNL     1      46.544   1.987   7.431  0.00  0.00    +0.000 C 
ATOM     31  C   UNL     1      46.720   3.425   6.960  0.00  0.00    +0.000 C 
ATOM     32  N   UNL     1      45.882   4.263   7.827  0.00  0.00    +0.000 NA
ATOM     33  H   UNL     1      45.366   4.942   7.266  0.00  0.00    +0.000 HD
ENDBRANCH  25  28
ENDBRANCH  23  24
ENDBRANCH   4  23
TORSDOF 6
ENDMDL
MODEL 4
REMARK VINA RESULT:    -6.942      1.507      2.260
REMARK INTER + INTRA:         -10.280
REMARK INTER:                  -9.027
REMARK INTRA:                  -1.252
REMARK UNBOUND:                -0.903
REMARK  Name = 
REMARK  6 active torsions:
REMARK  status: ('A' for Active; 'I' for Inactive)
REMARK    1  A    between atoms: C_2  and  C_20
REMARK    2  A    between atoms: N_3  and  C_4
REMARK    3  A    between atoms: C_4  and  C_5
REMARK    4  A    between atoms: C_8  and  C_9
REMARK    5  A    between atoms: C_9  and  N_10
REMARK    6  A    between atoms: C_11  and  C_13
REMARK                            x       y       z     vdW  Elec       q    Type
REMARK                         _______ _______ _______ _____ _____    ______ ____
ROOT
ATOM      1  C   UNL     1      48.939   8.020  13.021  0.00  0.00    +0.000 A 
ATOM      2  C   UNL     1      47.894   8.793  13.548  0.00  0.00    +0.000 A 
ATOM      3  C   UNL     1      46.588   8.655  13.064  0.00  0.00    +0.000 A 
ATOM      4  C   UNL     1      46.293   7.723  12.060  0.00  0.00    +0.000 A 
ATOM      5  C   UNL     1      47.334   6.937  11.548  0.00  0.00    +0.000 A 
ATOM      6  C   UNL     1      48.641   7.076  12.030  0.00  0.00    +0.000 A 
ENDROOT
BRANCH   1   7
ATOM      7  C   UNL     1      50.346   8.166  13.546  0.00  0.00    +0.000 C 
BRANCH   7  10
ATOM      8  O   UNL     1      50.372   9.060  16.196  0.00  0.00    +0.000 OA
ATOM      9  C   UNL     1      50.474   7.857  15.980  0.00  0.00    +0.000 C 
ATOM     10  N   UNL     1      50.548   7.343  14.710  0.00  0.00    +0.000 N 
ATOM     11  H   UNL     1      50.418   6.346  14.574  0.00  0.00    +0.000 HD
BRANCH   9  12
ATOM     12  C   UNL     1      50.567   6.882  17.076  0.00  0.00    +0.000 A 
ATOM     13  C   UNL     1      51.528   7.037  18.066  0.00  0.00    +0.000 A 
ATOM     14  S   UNL     1      51.506   5.795  19.236  0.00  0.00    +0.000 S 
ATOM     15  C   UNL     1      50.180   5.035  18.488  0.00  0.00    +0.000 A 
ATOM     16  N   UNL     1      49.633   3.904  19.009  0.00  0.00    +0.000 NA
ATOM     17  C   UNL     1      48.614   3.454  18.355  0.00  0.00    +0.000 A 
ATOM     18  N   UNL     1      48.095   4.028  17.224  0.00  0.00    +0.000 N 
ATOM     19  C   UNL     1      48.631   5.154  16.648  0.00  0.00    +0.000 A 
ATOM     20  O   UNL     1      48.166   5.618  15.612  0.00  0.00    +0.000 OA
ATOM     21  C   UNL     1      49.773   5.708  17.350  0.00  0.00    +0.000 A 
ATOM     22  H   UNL     1      47.303   3.621  16.751  0.00  0.00    +0.000 HD
ENDBRANCH   9  12
ENDBRANCH   7  10
ENDBRANCH   1   7
BRANCH   4  23
ATOM     23  C   UNL     1      44.888   7.555  11.544  0.00  0.00    +0.000 C 
BRANCH  23  24
ATOM     24  N   UNL     1      44.773   6.491  10.579  0.00  0.00    +0.000 N 
ATOM     25  C   UNL     1      44.129   5.314  10.894  0.00  0.00    +0.000 C 
ATOM     26  O   UNL     1      43.592   5.115  11.982  0.00  0.00    +0.000 OA
ATOM     27  H   UNL     1      45.388   6.452   9.770  0.00  0.00    +0.000 HD
BRANCH  25  28
ATOM     28  C   UNL     1      44.096   4.271   9.768  0.00  0.00    +0.000 C 
ATOM     29  C   UNL     1      44.603   2.912  10.209  0.00  0.00    +0.000 C 
ATOM     30  C   UNL     1      44.906   2.228   8.888  0.00  0.00    +0.000 C 
ATOM     31  C   UNL     1      45.290   3.360   7.944  0.00  0.00    +0.000 C 
ATOM     32  N   UNL     1      45.009   4.617   8.650  0.00  0.00    +0.000 NA
ATOM     33  H   UNL     1      44.537   5.272   8.025  0.00  0.00    +0.000 HD
ENDBRANCH  25  28
ENDBRANCH  23  24
ENDBRANCH   4  23
TORSDOF 6
ENDMDL
MODEL 5
REMARK VINA RESULT:    -6.925      2.445      2.655
REMARK INTER + INTRA:         -10.257
REMARK INTER:                  -9.398
REMARK INTRA:                  -0.859
REMARK UNBOUND:                -0.903
REMARK  Name = 
REMARK  6 active torsions:
REMARK  status: ('A' for Active; 'I' for Inactive)
REMARK    1  A    between atoms: C_2  and  C_20
REMARK    2  A    between atoms: N_3  and  C_4
REMARK    3  A    between atoms: C_4  and  C_5
REMARK    4  A    between atoms: C_8  and  C_9
REMARK    5  A    between atoms: C_9  and  N_10
REMARK    6  A    between atoms: C_11  and  C_13
REMARK                            x       y       z     vdW  Elec       q    Type
REMARK                         _______ _______ _______ _____ _____    ______ ____
ROOT
ATOM      1  C   UNL     1      47.048   8.261  12.824  0.00  0.00    +0.000 A 
ATOM      2  C   UNL     1      47.469   7.039  12.282  0.00  0.00    +0.000 A 
ATOM      3  C   UNL     1      46.556   6.183  11.654  0.00  0.00    +0.000 A 
ATOM      4  C   UNL     1      45.207   6.542  11.532  0.00  0.00    +0.000 A 
ATOM      5  C   UNL     1      44.791   7.773  12.057  0.00  0.00    +0.000 A 
ATOM      6  C   UNL     1      45.703   8.628  12.687  0.00  0.00    +0.000 A 
ENDROOT
BRANCH   1   7
ATOM      7  C   UNL     1      48.033   9.186  13.497  0.00  0.00    +0.000 C 
BRANCH   7  10
ATOM      8  O   UNL     1      49.554  10.635  15.343  0.00  0.00    +0.000 OA
ATOM      9  C   UNL     1      48.632   9.941  15.756  0.00  0.00    +0.000 C 
ATOM     10  N   UNL     1      47.887   9.139  14.929  0.00  0.00    +0.000 N 
ATOM     11  H   UNL     1      47.013   8.754  15.272  0.00  0.00    +0.000 HD
BRANCH   9  12
ATOM     12  C   UNL     1      48.288   9.887  17.185  0.00  0.00    +0.000 A 
ATOM     13  C   UNL     1      47.951  11.050  17.865  0.00  0.00    +0.000 A 
ATOM     14  S   UNL     1      47.613  10.798  19.518  0.00  0.00    +0.000 S 
ATOM     15  C   UNL     1      47.855   9.120  19.371  0.00  0.00    +0.000 A 
ATOM     16  N   UNL     1      47.696   8.291  20.438  0.00  0.00    +0.000 NA
ATOM     17  C   UNL     1      47.882   7.041  20.174  0.00  0.00    +0.000 A 
ATOM     18  N   UNL     1      48.220   6.543  18.943  0.00  0.00    +0.000 N 
ATOM     19  C   UNL     1      48.418   7.344  17.845  0.00  0.00    +0.000 A 
ATOM     20  O   UNL     1      48.759   6.869  16.768  0.00  0.00    +0.000 OA
ATOM     21  C   UNL     1      48.210   8.760  18.084  0.00  0.00    +0.000 A 
ATOM     22  H   UNL     1      48.363   5.554  18.804  0.00  0.00    +0.000 HD
ENDBRANCH   9  12
ENDBRANCH   7  10
ENDBRANCH   1   7
BRANCH   4  23
ATOM     23  C   UNL     1      44.221   5.636  10.844  0.00  0.00    +0.000 C 
BRANCH  23  24
ATOM     24  N   UNL     1      44.783   4.974   9.693  0.00  0.00    +0.000 N 
ATOM     25  C   UNL     1      44.457   3.669   9.396  0.00  0.00    +0.000 C 
ATOM     26  O   UNL     1      43.656   3.011  10.058  0.00  0.00    +0.000 OA
ATOM     27  H   UNL     1      45.626   5.329   9.247  0.00  0.00    +0.000 HD
BRANCH  25  28
ATOM     28  C   UNL     1      45.142   3.097   8.146  0.00  0.00    +0.000 C 
ATOM     29  C   UNL     1      45.897   1.813   8.423  0.00  0.00    +0.000 C 
ATOM     30  C   UNL     1      46.824   1.708   7.225  0.00  0.00    +0.000 C 
ATOM     31  C   UNL     1      47.097   3.151   6.820  0.00  0.00    +0.000 C 
ATOM     32  N   UNL     1      46.201   3.996   7.621  0.00  0.00    +0.000 NA
ATOM     33  H   UNL     1      45.770   4.709   7.030  0.00  0.00    +0.000 HD
ENDBRANCH  25  28
ENDBRANCH  23  24
ENDBRANCH   4  23
TORSDOF 6
ENDMDL
MODEL 6
REMARK VINA RESULT:    -6.786      1.778      2.080
REMARK INTER + INTRA:         -10.070
REMARK INTER:                  -9.124
REMARK INTRA:                  -0.946
REMARK UNBOUND:                -0.903
REMARK  Name = 
REMARK  6 active torsions:
REMARK  status: ('A' for Active; 'I' for Inactive)
REMARK    1  A    between atoms: C_2  and  C_20
REMARK    2  A    between atoms: N_3  and  C_4
REMARK    3  A    between atoms: C_4  and  C_5
REMARK    4  A    between atoms: C_8  and  C_9
REMARK    5  A    between atoms: C_9  and  N_10
REMARK    6  A    between atoms: C_11  and  C_13
REMARK                            x       y       z     vdW  Elec       q    Type
REMARK                         _______ _______ _______ _____ _____    ______ ____
ROOT
ATOM      1  C   UNL     1      46.844   8.179  12.470  0.00  0.00    +0.000 A 
ATOM      2  C   UNL     1      47.313   7.056  11.775  0.00  0.00    +0.000 A 
ATOM      3  C   UNL     1      46.418   6.150  11.192  0.00  0.00    +0.000 A 
ATOM      4  C   UNL     1      45.035   6.362  11.270  0.00  0.00    +0.000 A 
ATOM      5  C   UNL     1      44.568   7.496  11.949  0.00  0.00    +0.000 A 
ATOM      6  C   UNL     1      45.463   8.401  12.533  0.00  0.00    +0.000 A 
ENDROOT
BRANCH   1   7
ATOM      7  C   UNL     1      47.809   9.158  13.094  0.00  0.00    +0.000 C 
BRANCH   7  10
ATOM      8  O   UNL     1      49.696  10.265  14.835  0.00  0.00    +0.000 OA
ATOM      9  C   UNL     1      49.789   9.077  14.545  0.00  0.00    +0.000 C 
ATOM     10  N   UNL     1      48.953   8.474  13.639  0.00  0.00    +0.000 N 
ATOM     11  H   UNL     1      48.928   7.461  13.591  0.00  0.00    +0.000 HD
BRANCH   9  12
ATOM     12  C   UNL     1      50.838   8.222  15.121  0.00  0.00    +0.000 A 
ATOM     13  C   UNL     1      52.177   8.531  14.920  0.00  0.00    +0.000 A 
ATOM     14  S   UNL     1      53.248   7.412  15.635  0.00  0.00    +0.000 S 
ATOM     15  C   UNL     1      51.961   6.504  16.280  0.00  0.00    +0.000 A 
ATOM     16  N   UNL     1      52.192   5.400  17.039  0.00  0.00    +0.000 NA
ATOM     17  C   UNL     1      51.124   4.828  17.487  0.00  0.00    +0.000 A 
ATOM     18  N   UNL     1      49.846   5.255  17.241  0.00  0.00    +0.000 N 
ATOM     19  C   UNL     1      49.564   6.348  16.458  0.00  0.00    +0.000 A 
ATOM     20  O   UNL     1      48.407   6.679  16.224  0.00  0.00    +0.000 OA
ATOM     21  C   UNL     1      50.731   7.036  15.937  0.00  0.00    +0.000 A 
ATOM     22  H   UNL     1      49.051   4.757  17.611  0.00  0.00    +0.000 HD
ENDBRANCH   9  12
ENDBRANCH   7  10
ENDBRANCH   1   7
BRANCH   4  23
ATOM     23  C   UNL     1      44.065   5.402  10.633  0.00  0.00    +0.000 C 
BRANCH  23  24
ATOM     24  N   UNL     1      44.603   4.767   9.456  0.00  0.00    +0.000 N 
ATOM     25  C   UNL     1      44.594   3.396   9.324  0.00  0.00    +0.000 C 
ATOM     26  O   UNL     1      44.106   2.645  10.165  0.00  0.00    +0.000 OA
ATOM     27  H   UNL     1      45.244   5.264   8.843  0.00  0.00    +0.000 HD
BRANCH  25  28
ATOM     28  C   UNL     1      45.211   2.866   8.021  0.00  0.00    +0.000 C 
ATOM     29  C   UNL     1      46.192   1.735   8.251  0.00  0.00    +0.000 C 
ATOM     30  C   UNL     1      46.976   1.707   6.951  0.00  0.00    +0.000 C 
ATOM     31  C   UNL     1      46.960   3.148   6.458  0.00  0.00    +0.000 C 
ATOM     32  N   UNL     1      46.039   3.887   7.331  0.00  0.00    +0.000 NA
ATOM     33  H   UNL     1      45.431   4.487   6.772  0.00  0.00    +0.000 HD
ENDBRANCH  25  28
ENDBRANCH  23  24
ENDBRANCH   4  23
TORSDOF 6
ENDMDL
MODEL 7
REMARK VINA RESULT:    -6.743      3.782      9.100
REMARK INTER + INTRA:         -10.011
REMARK INTER:                  -9.227
REMARK INTRA:                  -0.784
REMARK UNBOUND:                -0.903
REMARK  Name = 
REMARK  6 active torsions:
REMARK  status: ('A' for Active; 'I' for Inactive)
REMARK    1  A    between atoms: C_2  and  C_20
REMARK    2  A    between atoms: N_3  and  C_4
REMARK    3  A    between atoms: C_4  and  C_5
REMARK    4  A    between atoms: C_8  and  C_9
REMARK    5  A    between atoms: C_9  and  N_10
REMARK    6  A    between atoms: C_11  and  C_13
REMARK                            x       y       z     vdW  Elec       q    Type
REMARK                         _______ _______ _______ _____ _____    ______ ____
ROOT
ATOM      1  C   UNL     1      48.697   3.780  16.995  0.00  0.00    +0.000 A 
ATOM      2  C   UNL     1      49.541   2.685  17.220  0.00  0.00    +0.000 A 
ATOM      3  C   UNL     1      50.898   2.875  17.508  0.00  0.00    +0.000 A 
ATOM      4  C   UNL     1      51.434   4.166  17.603  0.00  0.00    +0.000 A 
ATOM      5  C   UNL     1      50.584   5.261  17.397  0.00  0.00    +0.000 A 
ATOM      6  C   UNL     1      49.228   5.071  17.107  0.00  0.00    +0.000 A 
ENDROOT
BRANCH   1   7
ATOM      7  C   UNL     1      47.233   3.575  16.689  0.00  0.00    +0.000 C 
BRANCH   7  10
ATOM      8  O   UNL     1      47.195   3.216  13.916  0.00  0.00    +0.000 OA
ATOM      9  C   UNL     1      46.721   4.247  14.382  0.00  0.00    +0.000 C 
ATOM     10  N   UNL     1      46.770   4.537  15.722  0.00  0.00    +0.000 N 
ATOM     11  H   UNL     1      46.188   5.284  16.086  0.00  0.00    +0.000 HD
BRANCH   9  12
ATOM     12  C   UNL     1      46.104   5.269  13.524  0.00  0.00    +0.000 A 
ATOM     13  C   UNL     1      46.794   6.435  13.223  0.00  0.00    +0.000 A 
ATOM     14  S   UNL     1      45.909   7.515  12.242  0.00  0.00    +0.000 S 
ATOM     15  C   UNL     1      44.594   6.440  12.145  0.00  0.00    +0.000 A 
ATOM     16  N   UNL     1      43.486   6.748  11.418  0.00  0.00    +0.000 NA
ATOM     17  C   UNL     1      42.581   5.828  11.409  0.00  0.00    +0.000 A 
ATOM     18  N   UNL     1      42.678   4.628  12.065  0.00  0.00    +0.000 N 
ATOM     19  C   UNL     1      43.764   4.285  12.832  0.00  0.00    +0.000 A 
ATOM     20  O   UNL     1      43.800   3.221  13.439  0.00  0.00    +0.000 OA
ATOM     21  C   UNL     1      44.818   5.282  12.868  0.00  0.00    +0.000 A 
ATOM     22  H   UNL     1      41.929   3.954  12.028  0.00  0.00    +0.000 HD
ENDBRANCH   9  12
ENDBRANCH   7  10
ENDBRANCH   1   7
BRANCH   4  23
ATOM     23  C   UNL     1      52.889   4.382  17.929  0.00  0.00    +0.000 C 
BRANCH  23  24
ATOM     24  N   UNL     1      53.539   5.277  17.005  0.00  0.00    +0.000 N 
ATOM     25  C   UNL     1      54.885   5.164  16.736  0.00  0.00    +0.000 C 
ATOM     26  O   UNL     1      55.595   4.289  17.227  0.00  0.00    +0.000 OA
ATOM     27  H   UNL     1      53.114   6.168  16.756  0.00  0.00    +0.000 HD
BRANCH  25  28
ATOM     28  C   UNL     1      55.437   6.195  15.740  0.00  0.00    +0.000 C 
ATOM     29  C   UNL     1      55.572   7.580  16.340  0.00  0.00    +0.000 C 
ATOM     30  C   UNL     1      55.673   8.465  15.111  0.00  0.00    +0.000 C 
ATOM     31  C   UNL     1      54.868   7.736  14.042  0.00  0.00    +0.000 C 
ATOM     32  N   UNL     1      54.521   6.420  14.593  0.00  0.00    +0.000 NA
ATOM     33  H   UNL     1      54.678   5.694  13.893  0.00  0.00    +0.000 HD
ENDBRANCH  25  28
ENDBRANCH  23  24
ENDBRANCH   4  23
TORSDOF 6
ENDMDL
MODEL 8
REMARK VINA RESULT:    -6.479      3.376      4.613
REMARK INTER + INTRA:          -9.655
REMARK INTER:                  -8.641
REMARK INTRA:                  -1.015
REMARK UNBOUND:                -0.903
REMARK  Name = 
REMARK  6 active torsions:
REMARK  status: ('A' for Active; 'I' for Inactive)
REMARK    1  A    between atoms: C_2  and  C_20
REMARK    2  A    between atoms: N_3  and  C_4
REMARK    3  A    between atoms: C_4  and  C_5
REMARK    4  A    between atoms: C_8  and  C_9
REMARK    5  A    between atoms: C_9  and  N_10
REMARK    6  A    between atoms: C_11  and  C_13
REMARK                            x       y       z     vdW  Elec       q    Type
REMARK                         _______ _______ _______ _____ _____    ______ ____
ROOT
ATOM      1  C   UNL     1      47.035   6.955  13.424  0.00  0.00    +0.000 A 
ATOM      2  C   UNL     1      46.126   7.820  12.798  0.00  0.00    +0.000 A 
ATOM      3  C   UNL     1      45.115   7.317  11.969  0.00  0.00    +0.000 A 
ATOM      4  C   UNL     1      44.976   5.937  11.769  0.00  0.00    +0.000 A 
ATOM      5  C   UNL     1      45.873   5.073  12.411  0.00  0.00    +0.000 A 
ATOM      6  C   UNL     1      46.885   5.575  13.238  0.00  0.00    +0.000 A 
ENDROOT
BRANCH   1   7
ATOM      7  C   UNL     1      48.121   7.497  14.320  0.00  0.00    +0.000 C 
BRANCH   7  10
ATOM      8  O   UNL     1      49.096   9.802  13.071  0.00  0.00    +0.000 OA
ATOM      9  C   UNL     1      49.801   8.798  13.087  0.00  0.00    +0.000 C 
ATOM     10  N   UNL     1      49.369   7.605  13.609  0.00  0.00    +0.000 N 
ATOM     11  H   UNL     1      50.047   6.874  13.793  0.00  0.00    +0.000 HD
BRANCH   9  12
ATOM     12  C   UNL     1      51.150   8.795  12.504  0.00  0.00    +0.000 A 
ATOM     13  C   UNL     1      51.334   9.134  11.171  0.00  0.00    +0.000 A 
ATOM     14  S   UNL     1      52.961   9.045  10.664  0.00  0.00    +0.000 S 
ATOM     15  C   UNL     1      53.482   8.599  12.221  0.00  0.00    +0.000 A 
ATOM     16  N   UNL     1      54.799   8.387  12.488  0.00  0.00    +0.000 NA
ATOM     17  C   UNL     1      55.052   8.085  13.717  0.00  0.00    +0.000 A 
ATOM     18  N   UNL     1      54.109   7.969  14.705  0.00  0.00    +0.000 N 
ATOM     19  C   UNL     1      52.767   8.146  14.476  0.00  0.00    +0.000 A 
ATOM     20  O   UNL     1      51.946   7.994  15.374  0.00  0.00    +0.000 OA
ATOM     21  C   UNL     1      52.427   8.499  13.110  0.00  0.00    +0.000 A 
ATOM     22  H   UNL     1      54.371   7.718  15.646  0.00  0.00    +0.000 HD
ENDBRANCH   9  12
ENDBRANCH   7  10
ENDBRANCH   1   7
BRANCH   4  23
ATOM     23  C   UNL     1      43.882   5.386  10.893  0.00  0.00    +0.000 C 
BRANCH  23  24
ATOM     24  N   UNL     1      44.387   4.791   9.681  0.00  0.00    +0.000 N 
ATOM     25  C   UNL     1      44.442   3.422   9.533  0.00  0.00    +0.000 C 
ATOM     26  O   UNL     1      44.039   2.639  10.390  0.00  0.00    +0.000 OA
ATOM     27  H   UNL     1      44.968   5.326   9.040  0.00  0.00    +0.000 HD
BRANCH  25  28
ATOM     28  C   UNL     1      45.013   2.937   8.192  0.00  0.00    +0.000 C 
ATOM     29  C   UNL     1      46.033   1.828   8.353  0.00  0.00    +0.000 C 
ATOM     30  C   UNL     1      46.758   1.849   7.020  0.00  0.00    +0.000 C 
ATOM     31  C   UNL     1      46.683   3.299   6.561  0.00  0.00    +0.000 C 
ATOM     32  N   UNL     1      45.783   3.994   7.490  0.00  0.00    +0.000 NA
ATOM     33  H   UNL     1      45.136   4.590   6.972  0.00  0.00    +0.000 HD
ENDBRANCH  25  28
ENDBRANCH  23  24
ENDBRANCH   4  23
TORSDOF 6
ENDMDL
MODEL 9
REMARK VINA RESULT:    -6.399      3.560      5.086
REMARK INTER + INTRA:          -9.546
REMARK INTER:                  -8.530
REMARK INTRA:                  -1.016
REMARK UNBOUND:                -0.903
REMARK  Name = 
REMARK  6 active torsions:
REMARK  status: ('A' for Active; 'I' for Inactive)
REMARK    1  A    between atoms: C_2  and  C_20
REMARK    2  A    between atoms: N_3  and  C_4
REMARK    3  A    between atoms: C_4  and  C_5
REMARK    4  A    between atoms: C_8  and  C_9
REMARK    5  A    between atoms: C_9  and  N_10
REMARK    6  A    between atoms: C_11  and  C_13
REMARK                            x       y       z     vdW  Elec       q    Type
REMARK                         _______ _______ _______ _____ _____    ______ ____
ROOT
ATOM      1  C   UNL     1      47.102   7.399  13.442  0.00  0.00    +0.000 A 
ATOM      2  C   UNL     1      46.091   8.154  12.831  0.00  0.00    +0.000 A 
ATOM      3  C   UNL     1      45.134   7.540  12.014  0.00  0.00    +0.000 A 
ATOM      4  C   UNL     1      45.153   6.154  11.810  0.00  0.00    +0.000 A 
ATOM      5  C   UNL     1      46.152   5.398  12.437  0.00  0.00    +0.000 A 
ATOM      6  C   UNL     1      47.110   6.012  13.253  0.00  0.00    +0.000 A 
ENDROOT
BRANCH   1   7
ATOM      7  C   UNL     1      48.130   8.061  14.327  0.00  0.00    +0.000 C 
BRANCH   7  10
ATOM      8  O   UNL     1      50.707   8.722  15.188  0.00  0.00    +0.000 OA
ATOM      9  C   UNL     1      50.401   8.946  14.022  0.00  0.00    +0.000 C 
ATOM     10  N   UNL     1      49.136   8.725  13.539  0.00  0.00    +0.000 N 
ATOM     11  H   UNL     1      48.986   8.720  12.535  0.00  0.00    +0.000 HD
BRANCH   9  12
ATOM     12  C   UNL     1      51.365   9.511  13.067  0.00  0.00    +0.000 A 
ATOM     13  C   UNL     1      52.084  10.652  13.395  0.00  0.00    +0.000 A 
ATOM     14  S   UNL     1      53.130  11.178  12.153  0.00  0.00    +0.000 S 
ATOM     15  C   UNL     1      52.697   9.870  11.155  0.00  0.00    +0.000 A 
ATOM     16  N   UNL     1      53.260   9.707   9.928  0.00  0.00    +0.000 NA
ATOM     17  C   UNL     1      52.860   8.656   9.294  0.00  0.00    +0.000 A 
ATOM     18  N   UNL     1      51.943   7.755   9.771  0.00  0.00    +0.000 N 
ATOM     19  C   UNL     1      51.329   7.894  10.991  0.00  0.00    +0.000 A 
ATOM     20  O   UNL     1      50.483   7.092  11.370  0.00  0.00    +0.000 OA
ATOM     21  C   UNL     1      51.752   9.056  11.752  0.00  0.00    +0.000 A 
ATOM     22  H   UNL     1      51.663   6.958   9.220  0.00  0.00    +0.000 HD
ENDBRANCH   9  12
ENDBRANCH   7  10
ENDBRANCH   1   7
BRANCH   4  23
ATOM     23  C   UNL     1      44.119   5.482  10.946  0.00  0.00    +0.000 C 
BRANCH  23  24
ATOM     24  N   UNL     1      44.683   4.900   9.754  0.00  0.00    +0.000 N 
ATOM     25  C   UNL     1      44.486   3.570   9.452  0.00  0.00    +0.000 C 
ATOM     26  O   UNL     1      43.802   2.820  10.146  0.00  0.00    +0.000 OA
ATOM     27  H   UNL     1      45.455   5.351   9.268  0.00  0.00    +0.000 HD
BRANCH  25  28
ATOM     28  C   UNL     1      45.158   3.092   8.156  0.00  0.00    +0.000 C 
ATOM     29  C   UNL     1      46.028   1.869   8.360  0.00  0.00    +0.000 C 
ATOM     30  C   UNL     1      46.904   1.876   7.120  0.00  0.00    +0.000 C 
ATOM     31  C   UNL     1      47.038   3.347   6.748  0.00  0.00    +0.000 C 
ATOM     32  N   UNL     1      46.113   4.091   7.613  0.00  0.00    +0.000 NA
ATOM     33  H   UNL     1      45.598   4.781   7.064  0.00  0.00    +0.000 HD
ENDBRANCH  25  28
ENDBRANCH  23  24
ENDBRANCH   4  23
TORSDOF 6
ENDMDL
