MODEL 1
REMARK VINA RESULT:    -7.718      0.000      0.000
REMARK INTER + INTRA:         -12.692
REMARK INTER:                 -11.553
REMARK INTRA:                  -1.139
REMARK UNBOUND:                -1.139
REMARK  Name = 
REMARK  9 active torsions:
REMARK  status: ('A' for Active; 'I' for Inactive)
REMARK    1  A    between atoms: C_2  and  C_21
REMARK    2  A    between atoms: N_3  and  C_4
REMARK    3  A    between atoms: C_4  and  C_5
REMARK    4  A    between atoms: C_8  and  C_9
REMARK    5  A    between atoms: C_9  and  N_10
REMARK    6  A    between atoms: N_10  and  CA_11
REMARK    7  A    between atoms: CA_11  and  C_12
REMARK    8  A    between atoms: CA_11  and  C_14
REMARK    9  A    between atoms: C_12  and  O_13
REMARK                            x       y       z     vdW  Elec       q    Type
REMARK                         _______ _______ _______ _____ _____    ______ ____
ROOT
ATOM      1  C   UNL     1      46.480   7.612  12.612  0.00  0.00    +0.000 A 
ATOM      2  C   UNL     1      47.028   6.610  11.801  0.00  0.00    +0.000 A 
ATOM      3  C   UNL     1      46.206   5.835  10.981  0.00  0.00    +0.000 A 
ATOM      4  C   UNL     1      44.823   6.061  10.949  0.00  0.00    +0.000 A 
ATOM      5  C   UNL     1      44.283   7.092  11.728  0.00  0.00    +0.000 A 
ATOM      6  C   UNL     1      45.104   7.865  12.547  0.00  0.00    +0.000 A 
ENDROOT
BRANCH   1   7
ATOM      7  C   UNL     1      47.361   8.422  13.524  0.00  0.00    +0.000 C 
BRANCH   7  10
ATOM      8  O   UNL     1      49.696   6.944  13.999  0.00  0.00    +0.000 OA
ATOM      9  C   UNL     1      48.865   7.045  14.898  0.00  0.00    +0.000 C 
ATOM     10  N   UNL     1      47.674   7.698  14.727  0.00  0.00    +0.000 N 
ATOM     11  H   UNL     1      47.096   7.902  15.535  0.00  0.00    +0.000 HD
BRANCH   9  12
ATOM     12  C   UNL     1      49.086   6.425  16.210  0.00  0.00    +0.000 A 
ATOM     13  C   UNL     1      49.864   7.080  17.156  0.00  0.00    +0.000 A 
ATOM     14  S   UNL     1      49.992   6.243  18.635  0.00  0.00    +0.000 S 
ATOM     15  C   UNL     1      48.980   4.994  18.076  0.00  0.00    +0.000 A 
ATOM     16  N   UNL     1      48.633   3.962  18.890  0.00  0.00    +0.000 NA
ATOM     17  C   UNL     1      47.830   3.106  18.352  0.00  0.00    +0.000 A 
ATOM     18  N   UNL     1      47.359   3.177  17.067  0.00  0.00    +0.000 N 
ATOM     19  C   UNL     1      47.754   4.152  16.183  0.00  0.00    +0.000 A 
ATOM     20  O   UNL     1      47.436   4.101  14.999  0.00  0.00    +0.000 OA
ATOM     21  C   UNL     1      48.593   5.185  16.762  0.00  0.00    +0.000 A 
ATOM     22  H   UNL     1      46.768   2.451  16.690  0.00  0.00    +0.000 HD
ENDBRANCH   9  12
ENDBRANCH   7  10
ENDBRANCH   1   7
BRANCH   4  23
ATOM     23  C   UNL     1      43.932   5.273  10.028  0.00  0.00    +0.000 C 
BRANCH  23  24
ATOM     24  N   UNL     1      44.623   4.795   8.831  0.00  0.00    +0.000 NA
ATOM     25  H   UNL     1      45.588   5.130   8.843  0.00  0.00    +0.000 HD
BRANCH  24  26
ATOM     26  CA  UNL     1      44.612   3.308   8.756  0.00  0.00    +0.000 C 
BRANCH  26  27
ATOM     27  C   UNL     1      45.991   2.784   8.263  0.00  0.00    +0.000 C 
ATOM     28  C   UNL     1      46.386   3.154   6.844  0.00  0.00    +0.000 C 
ATOM     29  C   UNL     1      47.603   2.270   6.641  0.00  0.00    +0.000 C 
ATOM     30  C   UNL     1      47.241   0.982   7.370  0.00  0.00    +0.000 C 
ATOM     31  N   UNL     1      46.139   1.315   8.284  0.00  0.00    +0.000 NA
ATOM     32  H   UNL     1      46.354   1.018   9.239  0.00  0.00    +0.000 HD
ENDBRANCH  26  27
BRANCH  26  33
ATOM     33  C   UNL     1      44.156   2.714  10.115  0.00  0.00    +0.000 C 
BRANCH  33  34
ATOM     34  O   UNL     1      45.224   2.494  11.028  0.00  0.00    +0.000 OA
ATOM     35  H   UNL     1      45.157   3.207  11.699  0.00  0.00    +0.000 HD
ENDBRANCH  33  34
ENDBRANCH  26  33
ENDBRANCH  24  26
ENDBRANCH  23  24
ENDBRANCH   4  23
TORSDOF 9
ENDMDL
MODEL 2
REMARK VINA RESULT:    -7.028      3.578      4.785
REMARK INTER + INTRA:         -11.659
REMARK INTER:                 -10.682
REMARK INTRA:                  -0.977
REMARK UNBOUND:                -1.139
REMARK  Name = 
REMARK  9 active torsions:
REMARK  status: ('A' for Active; 'I' for Inactive)
REMARK    1  A    between atoms: C_2  and  C_21
REMARK    2  A    between atoms: N_3  and  C_4
REMARK    3  A    between atoms: C_4  and  C_5
REMARK    4  A    between atoms: C_8  and  C_9
REMARK    5  A    between atoms: C_9  and  N_10
REMARK    6  A    between atoms: N_10  and  CA_11
REMARK    7  A    between atoms: CA_11  and  C_12
REMARK    8  A    between atoms: CA_11  and  C_14
REMARK    9  A    between atoms: C_12  and  O_13
REMARK                            x       y       z     vdW  Elec       q    Type
REMARK                         _______ _______ _______ _____ _____    ______ ____
ROOT
ATOM      1  C   UNL     1      48.238   5.142  16.390  0.00  0.00    +0.000 A 
ATOM      2  C   UNL     1      47.306   4.231  15.878  0.00  0.00    +0.000 A 
ATOM      3  C   UNL     1      46.718   4.445  14.630  0.00  0.00    +0.000 A 
ATOM      4  C   UNL     1      47.065   5.568  13.868  0.00  0.00    +0.000 A 
ATOM      5  C   UNL     1      48.028   6.456  14.363  0.00  0.00    +0.000 A 
ATOM      6  C   UNL     1      48.615   6.242  15.609  0.00  0.00    +0.000 A 
ENDROOT
BRANCH   1   7
ATOM      7  C   UNL     1      48.844   4.932  17.751  0.00  0.00    +0.000 C 
BRANCH   7  10
ATOM      8  O   UNL     1      50.720   4.829  19.833  0.00  0.00    +0.000 OA
ATOM      9  C   UNL     1      51.028   4.372  18.734  0.00  0.00    +0.000 C 
ATOM     10  N   UNL     1      50.192   4.438  17.651  0.00  0.00    +0.000 N 
ATOM     11  H   UNL     1      50.414   3.906  16.817  0.00  0.00    +0.000 HD
BRANCH   9  12
ATOM     12  C   UNL     1      52.343   3.763  18.506  0.00  0.00    +0.000 A 
ATOM     13  C   UNL     1      53.491   4.453  18.871  0.00  0.00    +0.000 A 
ATOM     14  S   UNL     1      54.931   3.592  18.571  0.00  0.00    +0.000 S 
ATOM     15  C   UNL     1      54.067   2.250  17.980  0.00  0.00    +0.000 A 
ATOM     16  N   UNL     1      54.717   1.119  17.594  0.00  0.00    +0.000 NA
ATOM     17  C   UNL     1      53.939   0.166  17.202  0.00  0.00    +0.000 A 
ATOM     18  N   UNL     1      52.572   0.247  17.143  0.00  0.00    +0.000 N 
ATOM     19  C   UNL     1      51.882   1.398  17.439  0.00  0.00    +0.000 A 
ATOM     20  O   UNL     1      50.677   1.486  17.228  0.00  0.00    +0.000 OA
ATOM     21  C   UNL     1      52.704   2.475  17.960  0.00  0.00    +0.000 A 
ATOM     22  H   UNL     1      52.022  -0.519  16.785  0.00  0.00    +0.000 HD
ENDBRANCH   9  12
ENDBRANCH   7  10
ENDBRANCH   1   7
BRANCH   4  23
ATOM     23  C   UNL     1      46.483   5.783  12.497  0.00  0.00    +0.000 C 
BRANCH  23  24
ATOM     24  N   UNL     1      45.389   4.863  12.188  0.00  0.00    +0.000 NA
ATOM     25  H   UNL     1      44.860   4.669  13.042  0.00  0.00    +0.000 HD
BRANCH  24  26
ATOM     26  CA  UNL     1      44.479   5.429  11.156  0.00  0.00    +0.000 C 
BRANCH  26  27
ATOM     27  C   UNL     1      44.366   4.459   9.945  0.00  0.00    +0.000 C 
ATOM     28  C   UNL     1      44.774   3.018  10.196  0.00  0.00    +0.000 C 
ATOM     29  C   UNL     1      44.795   2.471   8.780  0.00  0.00    +0.000 C 
ATOM     30  C   UNL     1      45.339   3.629   7.953  0.00  0.00    +0.000 C 
ATOM     31  N   UNL     1      45.173   4.840   8.769  0.00  0.00    +0.000 NA
ATOM     32  H   UNL     1      44.674   5.566   8.248  0.00  0.00    +0.000 HD
ENDBRANCH  26  27
BRANCH  26  33
ATOM     33  C   UNL     1      43.116   5.802  11.799  0.00  0.00    +0.000 C 
BRANCH  33  34
ATOM     34  O   UNL     1      43.122   5.742  13.220  0.00  0.00    +0.000 OA
ATOM     35  H   UNL     1      42.194   5.893  13.502  0.00  0.00    +0.000 HD
ENDBRANCH  33  34
ENDBRANCH  26  33
ENDBRANCH  24  26
ENDBRANCH  23  24
ENDBRANCH   4  23
TORSDOF 9
ENDMDL
MODEL 3
REMARK VINA RESULT:    -6.787      3.727      8.296
REMARK INTER + INTRA:         -11.298
REMARK INTER:                 -10.339
REMARK INTRA:                  -0.959
REMARK UNBOUND:                -1.139
REMARK  Name = 
REMARK  9 active torsions:
REMARK  status: ('A' for Active; 'I' for Inactive)
REMARK    1  A    between atoms: C_2  and  C_21
REMARK    2  A    between atoms: N_3  and  C_4
REMARK    3  A    between atoms: C_4  and  C_5
REMARK    4  A    between atoms: C_8  and  C_9
REMARK    5  A    between atoms: C_9  and  N_10
REMARK    6  A    between atoms: N_10  and  CA_11
REMARK    7  A    between atoms: CA_11  and  C_12
REMARK    8  A    between atoms: CA_11  and  C_14
REMARK    9  A    between atoms: C_12  and  O_13
REMARK                            x       y       z     vdW  Elec       q    Type
REMARK                         _______ _______ _______ _____ _____    ______ ____
ROOT
ATOM      1  C   UNL     1      48.847   6.772  15.591  0.00  0.00    +0.000 A 
ATOM      2  C   UNL     1      50.111   6.872  16.185  0.00  0.00    +0.000 A 
ATOM      3  C   UNL     1      50.500   5.969  17.176  0.00  0.00    +0.000 A 
ATOM      4  C   UNL     1      49.636   4.942  17.577  0.00  0.00    +0.000 A 
ATOM      5  C   UNL     1      48.389   4.818  16.951  0.00  0.00    +0.000 A 
ATOM      6  C   UNL     1      48.001   5.719  15.962  0.00  0.00    +0.000 A 
ENDROOT
BRANCH   1   7
ATOM      7  C   UNL     1      48.412   7.767  14.549  0.00  0.00    +0.000 C 
BRANCH   7  10
ATOM      8  O   UNL     1      48.093   6.384  12.131  0.00  0.00    +0.000 OA
ATOM      9  C   UNL     1      47.095   6.660  12.792  0.00  0.00    +0.000 C 
ATOM     10  N   UNL     1      47.160   7.384  13.952  0.00  0.00    +0.000 N 
ATOM     11  H   UNL     1      46.342   7.445  14.549  0.00  0.00    +0.000 HD
BRANCH   9  12
ATOM     12  C   UNL     1      45.754   6.261  12.347  0.00  0.00    +0.000 A 
ATOM     13  C   UNL     1      44.900   7.212  11.807  0.00  0.00    +0.000 A 
ATOM     14  S   UNL     1      43.397   6.580  11.310  0.00  0.00    +0.000 S 
ATOM     15  C   UNL     1      43.853   5.003  11.762  0.00  0.00    +0.000 A 
ATOM     16  N   UNL     1      43.020   3.949  11.548  0.00  0.00    +0.000 NA
ATOM     17  C   UNL     1      43.506   2.807  11.903  0.00  0.00    +0.000 A 
ATOM     18  N   UNL     1      44.740   2.625  12.470  0.00  0.00    +0.000 N 
ATOM     19  C   UNL     1      45.575   3.669  12.786  0.00  0.00    +0.000 A 
ATOM     20  O   UNL     1      46.602   3.486  13.431  0.00  0.00    +0.000 OA
ATOM     21  C   UNL     1      45.111   4.968  12.335  0.00  0.00    +0.000 A 
ATOM     22  H   UNL     1      45.043   1.709  12.767  0.00  0.00    +0.000 HD
ENDBRANCH   9  12
ENDBRANCH   7  10
ENDBRANCH   1   7
BRANCH   4  23
ATOM     23  C   UNL     1      50.063   3.928  18.603  0.00  0.00    +0.000 C 
BRANCH  23  24
ATOM     24  N   UNL     1      51.488   3.605  18.532  0.00  0.00    +0.000 NA
ATOM     25  H   UNL     1      51.823   3.353  19.464  0.00  0.00    +0.000 HD
BRANCH  24  26
ATOM     26  CA  UNL     1      51.743   2.481  17.590  0.00  0.00    +0.000 C 
BRANCH  26  27
ATOM     27  C   UNL     1      52.918   1.602  18.106  0.00  0.00    +0.000 C 
ATOM     28  C   UNL     1      54.216   1.683  17.322  0.00  0.00    +0.000 C 
ATOM     29  C   UNL     1      54.996   0.530  17.930  0.00  0.00    +0.000 C 
ATOM     30  C   UNL     1      53.935  -0.535  18.172  0.00  0.00    +0.000 C 
ATOM     31  N   UNL     1      52.636   0.153  18.145  0.00  0.00    +0.000 NA
ATOM     32  H   UNL     1      52.095  -0.055  18.988  0.00  0.00    +0.000 HD
ENDBRANCH  26  27
BRANCH  26  33
ATOM     33  C   UNL     1      50.428   1.697  17.333  0.00  0.00    +0.000 C 
BRANCH  33  34
ATOM     34  O   UNL     1      50.040   1.668  15.965  0.00  0.00    +0.000 OA
ATOM     35  H   UNL     1      50.778   2.077  15.465  0.00  0.00    +0.000 HD
ENDBRANCH  33  34
ENDBRANCH  26  33
ENDBRANCH  24  26
ENDBRANCH  23  24
ENDBRANCH   4  23
TORSDOF 9
ENDMDL
MODEL 4
REMARK VINA RESULT:    -6.743      1.852      2.595
REMARK INTER + INTRA:         -11.233
REMARK INTER:                  -9.941
REMARK INTRA:                  -1.292
REMARK UNBOUND:                -1.139
REMARK  Name = 
REMARK  9 active torsions:
REMARK  status: ('A' for Active; 'I' for Inactive)
REMARK    1  A    between atoms: C_2  and  C_21
REMARK    2  A    between atoms: N_3  and  C_4
REMARK    3  A    between atoms: C_4  and  C_5
REMARK    4  A    between atoms: C_8  and  C_9
REMARK    5  A    between atoms: C_9  and  N_10
REMARK    6  A    between atoms: N_10  and  CA_11
REMARK    7  A    between atoms: CA_11  and  C_12
REMARK    8  A    between atoms: CA_11  and  C_14
REMARK    9  A    between atoms: C_12  and  O_13
REMARK                            x       y       z     vdW  Elec       q    Type
REMARK                         _______ _______ _______ _____ _____    ______ ____
ROOT
ATOM      1  C   UNL     1      49.234   7.360  13.586  0.00  0.00    +0.000 A 
ATOM      2  C   UNL     1      48.204   6.610  14.167  0.00  0.00    +0.000 A 
ATOM      3  C   UNL     1      47.096   6.223  13.410  0.00  0.00    +0.000 A 
ATOM      4  C   UNL     1      47.009   6.571  12.055  0.00  0.00    +0.000 A 
ATOM      5  C   UNL     1      48.060   7.284  11.466  0.00  0.00    +0.000 A 
ATOM      6  C   UNL     1      49.166   7.670  12.221  0.00  0.00    +0.000 A 
ENDROOT
BRANCH   1   7
ATOM      7  C   UNL     1      50.410   7.808  14.410  0.00  0.00    +0.000 C 
BRANCH   7  10
ATOM      8  O   UNL     1      52.424   6.584  15.931  0.00  0.00    +0.000 OA
ATOM      9  C   UNL     1      51.343   6.827  16.463  0.00  0.00    +0.000 C 
ATOM     10  N   UNL     1      50.290   7.367  15.775  0.00  0.00    +0.000 N 
ATOM     11  H   UNL     1      49.481   7.704  16.284  0.00  0.00    +0.000 HD
BRANCH   9  12
ATOM     12  C   UNL     1      51.103   6.506  17.875  0.00  0.00    +0.000 A 
ATOM     13  C   UNL     1      51.836   7.154  18.860  0.00  0.00    +0.000 A 
ATOM     14  S   UNL     1      51.411   6.691  20.444  0.00  0.00    +0.000 S 
ATOM     15  C   UNL     1      50.204   5.638  19.869  0.00  0.00    +0.000 A 
ATOM     16  N   UNL     1      49.409   4.952  20.734  0.00  0.00    +0.000 NA
ATOM     17  C   UNL     1      48.512   4.219  20.164  0.00  0.00    +0.000 A 
ATOM     18  N   UNL     1      48.349   4.095  18.809  0.00  0.00    +0.000 N 
ATOM     19  C   UNL     1      49.185   4.699  17.901  0.00  0.00    +0.000 A 
ATOM     20  O   UNL     1      49.109   4.445  16.703  0.00  0.00    +0.000 OA
ATOM     21  C   UNL     1      50.162   5.597  18.488  0.00  0.00    +0.000 A 
ATOM     22  H   UNL     1      47.656   3.470  18.426  0.00  0.00    +0.000 HD
ENDBRANCH   9  12
ENDBRANCH   7  10
ENDBRANCH   1   7
BRANCH   4  23
ATOM     23  C   UNL     1      45.849   6.113  11.213  0.00  0.00    +0.000 C 
BRANCH  23  24
ATOM     24  N   UNL     1      45.079   5.035  11.833  0.00  0.00    +0.000 NA
ATOM     25  H   UNL     1      44.454   5.430  12.538  0.00  0.00    +0.000 HD
BRANCH  24  26
ATOM     26  CA  UNL     1      44.282   4.287  10.823  0.00  0.00    +0.000 C 
BRANCH  26  27
ATOM     27  C   UNL     1      45.225   3.609   9.788  0.00  0.00    +0.000 C 
ATOM     28  C   UNL     1      45.050   4.029   8.339  0.00  0.00    +0.000 C 
ATOM     29  C   UNL     1      45.909   2.996   7.631  0.00  0.00    +0.000 C 
ATOM     30  C   UNL     1      45.674   1.722   8.431  0.00  0.00    +0.000 C 
ATOM     31  N   UNL     1      45.123   2.137   9.728  0.00  0.00    +0.000 NA
ATOM     32  H   UNL     1      45.663   1.737  10.500  0.00  0.00    +0.000 HD
ENDBRANCH  26  27
BRANCH  26  33
ATOM     33  C   UNL     1      43.312   3.307  11.535  0.00  0.00    +0.000 C 
BRANCH  33  34
ATOM     34  O   UNL     1      43.944   2.486  12.509  0.00  0.00    +0.000 OA
ATOM     35  H   UNL     1      44.377   3.099  13.140  0.00  0.00    +0.000 HD
ENDBRANCH  33  34
ENDBRANCH  26  33
ENDBRANCH  24  26
ENDBRANCH  23  24
ENDBRANCH   4  23
TORSDOF 9
ENDMDL
MODEL 5
REMARK VINA RESULT:    -6.337      3.416      7.988
REMARK INTER + INTRA:         -10.624
REMARK INTER:                  -9.005
REMARK INTRA:                  -1.619
REMARK UNBOUND:                -1.139
REMARK  Name = 
REMARK  9 active torsions:
REMARK  status: ('A' for Active; 'I' for Inactive)
REMARK    1  A    between atoms: C_2  and  C_21
REMARK    2  A    between atoms: N_3  and  C_4
REMARK    3  A    between atoms: C_4  and  C_5
REMARK    4  A    between atoms: C_8  and  C_9
REMARK    5  A    between atoms: C_9  and  N_10
REMARK    6  A    between atoms: N_10  and  CA_11
REMARK    7  A    between atoms: CA_11  and  C_12
REMARK    8  A    between atoms: CA_11  and  C_14
REMARK    9  A    between atoms: C_12  and  O_13
REMARK                            x       y       z     vdW  Elec       q    Type
REMARK                         _______ _______ _______ _____ _____    ______ ____
ROOT
ATOM      1  C   UNL     1      48.645   8.458  14.785  0.00  0.00    +0.000 A 
ATOM      2  C   UNL     1      49.617   7.453  14.853  0.00  0.00    +0.000 A 
ATOM      3  C   UNL     1      50.116   7.031  16.086  0.00  0.00    +0.000 A 
ATOM      4  C   UNL     1      49.636   7.599  17.275  0.00  0.00    +0.000 A 
ATOM      5  C   UNL     1      48.633   8.574  17.207  0.00  0.00    +0.000 A 
ATOM      6  C   UNL     1      48.136   8.994  15.975  0.00  0.00    +0.000 A 
ENDROOT
BRANCH   1   7
ATOM      7  C   UNL     1      48.135   8.939  13.454  0.00  0.00    +0.000 C 
BRANCH   7  10
ATOM      8  O   UNL     1      47.897   6.805  11.650  0.00  0.00    +0.000 OA
ATOM      9  C   UNL     1      46.893   7.197  12.241  0.00  0.00    +0.000 C 
ATOM     10  N   UNL     1      46.913   8.270  13.091  0.00  0.00    +0.000 N 
ATOM     11  H   UNL     1      46.109   8.455  13.680  0.00  0.00    +0.000 HD
BRANCH   9  12
ATOM     12  C   UNL     1      45.589   6.556  12.030  0.00  0.00    +0.000 A 
ATOM     13  C   UNL     1      44.545   7.289  11.484  0.00  0.00    +0.000 A 
ATOM     14  S   UNL     1      43.113   6.389  11.275  0.00  0.00    +0.000 S 
ATOM     15  C   UNL     1      43.852   4.976  11.870  0.00  0.00    +0.000 A 
ATOM     16  N   UNL     1      43.173   3.798  11.909  0.00  0.00    +0.000 NA
ATOM     17  C   UNL     1      43.864   2.800  12.347  0.00  0.00    +0.000 A 
ATOM     18  N   UNL     1      45.166   2.876  12.768  0.00  0.00    +0.000 N 
ATOM     19  C   UNL     1      45.860   4.060  12.830  0.00  0.00    +0.000 A 
ATOM     20  O   UNL     1      46.967   4.119  13.355  0.00  0.00    +0.000 OA
ATOM     21  C   UNL     1      45.155   5.200  12.274  0.00  0.00    +0.000 A 
ATOM     22  H   UNL     1      45.638   2.066  13.142  0.00  0.00    +0.000 HD
ENDBRANCH   9  12
ENDBRANCH   7  10
ENDBRANCH   1   7
BRANCH   4  23
ATOM     23  C   UNL     1      50.122   7.115  18.614  0.00  0.00    +0.000 C 
BRANCH  23  24
ATOM     24  N   UNL     1      49.131   6.309  19.327  0.00  0.00    +0.000 NA
ATOM     25  H   UNL     1      48.271   6.269  18.776  0.00  0.00    +0.000 HD
BRANCH  24  26
ATOM     26  CA  UNL     1      49.631   4.929  19.574  0.00  0.00    +0.000 C 
BRANCH  26  27
ATOM     27  C   UNL     1      48.838   3.906  18.711  0.00  0.00    +0.000 C 
ATOM     28  C   UNL     1      49.515   3.427  17.440  0.00  0.00    +0.000 C 
ATOM     29  C   UNL     1      48.372   2.694  16.760  0.00  0.00    +0.000 C 
ATOM     30  C   UNL     1      47.152   3.544  17.089  0.00  0.00    +0.000 C 
ATOM     31  N   UNL     1      47.524   4.384  18.235  0.00  0.00    +0.000 NA
ATOM     32  H   UNL     1      46.844   4.290  18.994  0.00  0.00    +0.000 HD
ENDBRANCH  26  27
BRANCH  26  33
ATOM     33  C   UNL     1      51.169   4.879  19.364  0.00  0.00    +0.000 C 
BRANCH  33  34
ATOM     34  O   UNL     1      51.856   4.135  20.363  0.00  0.00    +0.000 OA
ATOM     35  H   UNL     1      51.234   4.056  21.118  0.00  0.00    +0.000 HD
ENDBRANCH  33  34
ENDBRANCH  26  33
ENDBRANCH  24  26
ENDBRANCH  23  24
ENDBRANCH   4  23
TORSDOF 9
ENDMDL
MODEL 6
REMARK VINA RESULT:    -6.286      4.819      6.443
REMARK INTER + INTRA:         -10.548
REMARK INTER:                  -9.284
REMARK INTRA:                  -1.264
REMARK UNBOUND:                -1.139
REMARK  Name = 
REMARK  9 active torsions:
REMARK  status: ('A' for Active; 'I' for Inactive)
REMARK    1  A    between atoms: C_2  and  C_21
REMARK    2  A    between atoms: N_3  and  C_4
REMARK    3  A    between atoms: C_4  and  C_5
REMARK    4  A    between atoms: C_8  and  C_9
REMARK    5  A    between atoms: C_9  and  N_10
REMARK    6  A    between atoms: N_10  and  CA_11
REMARK    7  A    between atoms: CA_11  and  C_12
REMARK    8  A    between atoms: CA_11  and  C_14
REMARK    9  A    between atoms: C_12  and  O_13
REMARK                            x       y       z     vdW  Elec       q    Type
REMARK                         _______ _______ _______ _____ _____    ______ ____
ROOT
ATOM      1  C   UNL     1      47.948   8.916  12.245  0.00  0.00    +0.000 A 
ATOM      2  C   UNL     1      46.659   9.261  12.672  0.00  0.00    +0.000 A 
ATOM      3  C   UNL     1      45.622   8.328  12.619  0.00  0.00    +0.000 A 
ATOM      4  C   UNL     1      45.863   7.029  12.152  0.00  0.00    +0.000 A 
ATOM      5  C   UNL     1      47.162   6.673  11.766  0.00  0.00    +0.000 A 
ATOM      6  C   UNL     1      48.196   7.606  11.819  0.00  0.00    +0.000 A 
ENDROOT
BRANCH   1   7
ATOM      7  C   UNL     1      49.056   9.933  12.267  0.00  0.00    +0.000 C 
BRANCH   7  10
ATOM      8  O   UNL     1      51.583  11.106  11.949  0.00  0.00    +0.000 OA
ATOM      9  C   UNL     1      51.162  10.357  11.070  0.00  0.00    +0.000 C 
ATOM     10  N   UNL     1      49.916   9.793  11.121  0.00  0.00    +0.000 N 
ATOM     11  H   UNL     1      49.675   9.055  10.468  0.00  0.00    +0.000 HD
BRANCH   9  12
ATOM     12  C   UNL     1      51.966  10.056   9.879  0.00  0.00    +0.000 A 
ATOM     13  C   UNL     1      52.407  11.093   9.069  0.00  0.00    +0.000 A 
ATOM     14  S   UNL     1      53.354  10.577   7.750  0.00  0.00    +0.000 S 
ATOM     15  C   UNL     1      53.241   8.950   8.239  0.00  0.00    +0.000 A 
ATOM     16  N   UNL     1      53.890   7.970   7.554  0.00  0.00    +0.000 NA
ATOM     17  C   UNL     1      53.750   6.789   8.055  0.00  0.00    +0.000 A 
ATOM     18  N   UNL     1      53.004   6.495   9.167  0.00  0.00    +0.000 N 
ATOM     19  C   UNL     1      52.262   7.438   9.836  0.00  0.00    +0.000 A 
ATOM     20  O   UNL     1      51.486   7.117  10.730  0.00  0.00    +0.000 OA
ATOM     21  C   UNL     1      52.447   8.797   9.361  0.00  0.00    +0.000 A 
ATOM     22  H   UNL     1      52.898   5.542   9.483  0.00  0.00    +0.000 HD
ENDBRANCH   9  12
ENDBRANCH   7  10
ENDBRANCH   1   7
BRANCH   4  23
ATOM     23  C   UNL     1      44.770   5.995  12.142  0.00  0.00    +0.000 C 
BRANCH  23  24
ATOM     24  N   UNL     1      44.285   5.684  10.798  0.00  0.00    +0.000 NA
ATOM     25  H   UNL     1      44.945   6.051  10.109  0.00  0.00    +0.000 HD
BRANCH  24  26
ATOM     26  CA  UNL     1      44.126   4.217  10.604  0.00  0.00    +0.000 C 
BRANCH  26  27
ATOM     27  C   UNL     1      44.680   3.794   9.214  0.00  0.00    +0.000 C 
ATOM     28  C   UNL     1      45.437   2.479   9.161  0.00  0.00    +0.000 C 
ATOM     29  C   UNL     1      46.035   2.544   7.766  0.00  0.00    +0.000 C 
ATOM     30  C   UNL     1      46.393   4.014   7.594  0.00  0.00    +0.000 C 
ATOM     31  N   UNL     1      45.623   4.753   8.604  0.00  0.00    +0.000 NA
ATOM     32  H   UNL     1      45.089   5.513   8.174  0.00  0.00    +0.000 HD
ENDBRANCH  26  27
BRANCH  26  33
ATOM     33  C   UNL     1      44.760   3.455  11.799  0.00  0.00    +0.000 C 
BRANCH  33  34
ATOM     34  O   UNL     1      43.906   2.464  12.360  0.00  0.00    +0.000 OA
ATOM     35  H   UNL     1      44.491   1.723  12.627  0.00  0.00    +0.000 HD
ENDBRANCH  33  34
ENDBRANCH  26  33
ENDBRANCH  24  26
ENDBRANCH  23  24
ENDBRANCH   4  23
TORSDOF 9
ENDMDL
MODEL 7
REMARK VINA RESULT:    -6.190      4.616      7.517
REMARK INTER + INTRA:         -10.405
REMARK INTER:                  -9.419
REMARK INTRA:                  -0.986
REMARK UNBOUND:                -1.139
REMARK  Name = 
REMARK  9 active torsions:
REMARK  status: ('A' for Active; 'I' for Inactive)
REMARK    1  A    between atoms: C_2  and  C_21
REMARK    2  A    between atoms: N_3  and  C_4
REMARK    3  A    between atoms: C_4  and  C_5
REMARK    4  A    between atoms: C_8  and  C_9
REMARK    5  A    between atoms: C_9  and  N_10
REMARK    6  A    between atoms: N_10  and  CA_11
REMARK    7  A    between atoms: CA_11  and  C_12
REMARK    8  A    between atoms: CA_11  and  C_14
REMARK    9  A    between atoms: C_12  and  O_13
REMARK                            x       y       z     vdW  Elec       q    Type
REMARK                         _______ _______ _______ _____ _____    ______ ____
ROOT
ATOM      1  C   UNL     1      47.651   8.387  12.526  0.00  0.00    +0.000 A 
ATOM      2  C   UNL     1      48.096   9.583  11.950  0.00  0.00    +0.000 A 
ATOM      3  C   UNL     1      49.435   9.739  11.589  0.00  0.00    +0.000 A 
ATOM      4  C   UNL     1      50.348   8.694  11.787  0.00  0.00    +0.000 A 
ATOM      5  C   UNL     1      49.892   7.485  12.324  0.00  0.00    +0.000 A 
ATOM      6  C   UNL     1      48.555   7.329  12.684  0.00  0.00    +0.000 A 
ENDROOT
BRANCH   1   7
ATOM      7  C   UNL     1      46.215   8.231  12.949  0.00  0.00    +0.000 C 
BRANCH   7  10
ATOM      8  O   UNL     1      44.230   7.504  11.107  0.00  0.00    +0.000 OA
ATOM      9  C   UNL     1      44.803   6.621  11.741  0.00  0.00    +0.000 C 
ATOM     10  N   UNL     1      45.740   6.896  12.701  0.00  0.00    +0.000 N 
ATOM     11  H   UNL     1      46.304   6.142  13.078  0.00  0.00    +0.000 HD
BRANCH   9  12
ATOM     12  C   UNL     1      44.478   5.204  11.534  0.00  0.00    +0.000 A 
ATOM     13  C   UNL     1      43.801   4.504  12.522  0.00  0.00    +0.000 A 
ATOM     14  S   UNL     1      43.472   2.884  12.110  0.00  0.00    +0.000 S 
ATOM     15  C   UNL     1      44.190   3.073  10.579  0.00  0.00    +0.000 A 
ATOM     16  N   UNL     1      44.197   2.050   9.681  0.00  0.00    +0.000 NA
ATOM     17  C   UNL     1      44.739   2.342   8.547  0.00  0.00    +0.000 A 
ATOM     18  N   UNL     1      45.292   3.556   8.234  0.00  0.00    +0.000 N 
ATOM     19  C   UNL     1      45.387   4.586   9.139  0.00  0.00    +0.000 A 
ATOM     20  O   UNL     1      46.023   5.602   8.879  0.00  0.00    +0.000 OA
ATOM     21  C   UNL     1      44.721   4.337  10.404  0.00  0.00    +0.000 A 
ATOM     22  H   UNL     1      45.741   3.707   7.343  0.00  0.00    +0.000 HD
ENDBRANCH   9  12
ENDBRANCH   7  10
ENDBRANCH   1   7
BRANCH   4  23
ATOM     23  C   UNL     1      51.782   8.828  11.351  0.00  0.00    +0.000 C 
BRANCH  23  24
ATOM     24  N   UNL     1      52.066   8.137  10.093  0.00  0.00    +0.000 NA
ATOM     25  H   UNL     1      52.426   8.811   9.413  0.00  0.00    +0.000 HD
BRANCH  24  26
ATOM     26  CA  UNL     1      53.059   7.045  10.286  0.00  0.00    +0.000 C 
BRANCH  26  27
ATOM     27  C   UNL     1      53.559   6.522   8.910  0.00  0.00    +0.000 C 
ATOM     28  C   UNL     1      52.634   6.746   7.727  0.00  0.00    +0.000 C 
ATOM     29  C   UNL     1      53.305   5.891   6.666  0.00  0.00    +0.000 C 
ATOM     30  C   UNL     1      53.807   4.680   7.442  0.00  0.00    +0.000 C 
ATOM     31  N   UNL     1      53.829   5.071   8.859  0.00  0.00    +0.000 NA
ATOM     32  H   UNL     1      54.746   4.891   9.274  0.00  0.00    +0.000 HD
ENDBRANCH  26  27
BRANCH  26  33
ATOM     33  C   UNL     1      54.193   7.523  11.234  0.00  0.00    +0.000 C 
BRANCH  33  34
ATOM     34  O   UNL     1      54.406   6.662  12.346  0.00  0.00    +0.000 OA
ATOM     35  H   UNL     1      54.925   5.902  12.005  0.00  0.00    +0.000 HD
ENDBRANCH  33  34
ENDBRANCH  26  33
ENDBRANCH  24  26
ENDBRANCH  23  24
ENDBRANCH   4  23
TORSDOF 9
ENDMDL
MODEL 8
REMARK VINA RESULT:    -6.177      3.466      8.517
REMARK INTER + INTRA:         -10.385
REMARK INTER:                  -8.592
REMARK INTRA:                  -1.793
REMARK UNBOUND:                -1.139
REMARK  Name = 
REMARK  9 active torsions:
REMARK  status: ('A' for Active; 'I' for Inactive)
REMARK    1  A    between atoms: C_2  and  C_21
REMARK    2  A    between atoms: N_3  and  C_4
REMARK    3  A    between atoms: C_4  and  C_5
REMARK    4  A    between atoms: C_8  and  C_9
REMARK    5  A    between atoms: C_9  and  N_10
REMARK    6  A    between atoms: N_10  and  CA_11
REMARK    7  A    between atoms: CA_11  and  C_12
REMARK    8  A    between atoms: CA_11  and  C_14
REMARK    9  A    between atoms: C_12  and  O_13
REMARK                            x       y       z     vdW  Elec       q    Type
REMARK                         _______ _______ _______ _____ _____    ______ ____
ROOT
ATOM      1  C   UNL     1      48.872   8.286  15.726  0.00  0.00    +0.000 A 
ATOM      2  C   UNL     1      50.035   7.513  15.816  0.00  0.00    +0.000 A 
ATOM      3  C   UNL     1      50.567   7.178  17.063  0.00  0.00    +0.000 A 
ATOM      4  C   UNL     1      49.933   7.600  18.239  0.00  0.00    +0.000 A 
ATOM      5  C   UNL     1      48.746   8.337  18.146  0.00  0.00    +0.000 A 
ATOM      6  C   UNL     1      48.216   8.671  16.902  0.00  0.00    +0.000 A 
ENDROOT
BRANCH   1   7
ATOM      7  C   UNL     1      48.319   8.679  14.383  0.00  0.00    +0.000 C 
BRANCH   7  10
ATOM      8  O   UNL     1      48.816   6.432  12.780  0.00  0.00    +0.000 OA
ATOM      9  C   UNL     1      47.674   6.628  13.189  0.00  0.00    +0.000 C 
ATOM     10  N   UNL     1      47.336   7.732  13.925  0.00  0.00    +0.000 N 
ATOM     11  H   UNL     1      46.431   7.771  14.381  0.00  0.00    +0.000 HD
BRANCH   9  12
ATOM     12  C   UNL     1      46.583   5.700  12.868  0.00  0.00    +0.000 A 
ATOM     13  C   UNL     1      46.698   4.361  13.215  0.00  0.00    +0.000 A 
ATOM     14  S   UNL     1      45.332   3.428  12.804  0.00  0.00    +0.000 S 
ATOM     15  C   UNL     1      44.523   4.791  12.184  0.00  0.00    +0.000 A 
ATOM     16  N   UNL     1      43.252   4.690  11.710  0.00  0.00    +0.000 NA
ATOM     17  C   UNL     1      42.745   5.806  11.306  0.00  0.00    +0.000 A 
ATOM     18  N   UNL     1      43.399   7.011  11.315  0.00  0.00    +0.000 N 
ATOM     19  C   UNL     1      44.711   7.142  11.702  0.00  0.00    +0.000 A 
ATOM     20  O   UNL     1      45.313   8.200  11.553  0.00  0.00    +0.000 OA
ATOM     21  C   UNL     1      45.303   5.930  12.240  0.00  0.00    +0.000 A 
ATOM     22  H   UNL     1      42.961   7.841  10.944  0.00  0.00    +0.000 HD
ENDBRANCH   9  12
ENDBRANCH   7  10
ENDBRANCH   1   7
BRANCH   4  23
ATOM     23  C   UNL     1      50.463   7.198  19.589  0.00  0.00    +0.000 C 
BRANCH  23  24
ATOM     24  N   UNL     1      49.506   6.416  20.372  0.00  0.00    +0.000 NA
ATOM     25  H   UNL     1      48.564   6.576  20.009  0.00  0.00    +0.000 HD
BRANCH  24  26
ATOM     26  CA  UNL     1      49.821   4.962  20.318  0.00  0.00    +0.000 C 
BRANCH  26  27
ATOM     27  C   UNL     1      48.887   4.246  19.302  0.00  0.00    +0.000 C 
ATOM     28  C   UNL     1      49.492   3.911  17.950  0.00  0.00    +0.000 C 
ATOM     29  C   UNL     1      48.255   3.496  17.173  0.00  0.00    +0.000 C 
ATOM     30  C   UNL     1      47.175   4.444  17.678  0.00  0.00    +0.000 C 
ATOM     31  N   UNL     1      47.663   4.995  18.950  0.00  0.00    +0.000 NA
ATOM     32  H   UNL     1      46.972   4.866  19.693  0.00  0.00    +0.000 HD
ENDBRANCH  26  27
BRANCH  26  33
ATOM     33  C   UNL     1      51.335   4.760  20.041  0.00  0.00    +0.000 C 
BRANCH  33  34
ATOM     34  O   UNL     1      52.043   4.193  21.136  0.00  0.00    +0.000 OA
ATOM     35  H   UNL     1      51.434   3.542  21.546  0.00  0.00    +0.000 HD
ENDBRANCH  33  34
ENDBRANCH  26  33
ENDBRANCH  24  26
ENDBRANCH  23  24
ENDBRANCH   4  23
TORSDOF 9
ENDMDL
MODEL 9
REMARK VINA RESULT:    -6.009      3.918      5.393
REMARK INTER + INTRA:         -10.134
REMARK INTER:                  -8.660
REMARK INTRA:                  -1.474
REMARK UNBOUND:                -1.139
REMARK  Name = 
REMARK  9 active torsions:
REMARK  status: ('A' for Active; 'I' for Inactive)
REMARK    1  A    between atoms: C_2  and  C_21
REMARK    2  A    between atoms: N_3  and  C_4
REMARK    3  A    between atoms: C_4  and  C_5
REMARK    4  A    between atoms: C_8  and  C_9
REMARK    5  A    between atoms: C_9  and  N_10
REMARK    6  A    between atoms: N_10  and  CA_11
REMARK    7  A    between atoms: CA_11  and  C_12
REMARK    8  A    between atoms: CA_11  and  C_14
REMARK    9  A    between atoms: C_12  and  O_13
REMARK                            x       y       z     vdW  Elec       q    Type
REMARK                         _______ _______ _______ _____ _____    ______ ____
ROOT
ATOM      1  C   UNL     1      48.409   6.868  14.412  0.00  0.00    +0.000 A 
ATOM      2  C   UNL     1      47.986   5.581  14.767  0.00  0.00    +0.000 A 
ATOM      3  C   UNL     1      46.825   5.039  14.213  0.00  0.00    +0.000 A 
ATOM      4  C   UNL     1      46.076   5.773  13.283  0.00  0.00    +0.000 A 
ATOM      5  C   UNL     1      46.524   7.043  12.898  0.00  0.00    +0.000 A 
ATOM      6  C   UNL     1      47.683   7.583  13.451  0.00  0.00    +0.000 A 
ENDROOT
BRANCH   1   7
ATOM      7  C   UNL     1      49.640   7.466  15.037  0.00  0.00    +0.000 C 
BRANCH   7  10
ATOM      8  O   UNL     1      50.746   9.906  14.210  0.00  0.00    +0.000 OA
ATOM      9  C   UNL     1      51.211   8.861  13.760  0.00  0.00    +0.000 C 
ATOM     10  N   UNL     1      50.689   7.633  14.067  0.00  0.00    +0.000 N 
ATOM     11  H   UNL     1      51.201   6.796  13.812  0.00  0.00    +0.000 HD
BRANCH   9  12
ATOM     12  C   UNL     1      52.339   8.875  12.821  0.00  0.00    +0.000 A 
ATOM     13  C   UNL     1      53.525   9.499  13.183  0.00  0.00    +0.000 A 
ATOM     14  S   UNL     1      54.743   9.394  11.996  0.00  0.00    +0.000 S 
ATOM     15  C   UNL     1      53.740   8.475  10.973  0.00  0.00    +0.000 A 
ATOM     16  N   UNL     1      54.203   8.002   9.784  0.00  0.00    +0.000 NA
ATOM     17  C   UNL     1      53.350   7.289   9.127  0.00  0.00    +0.000 A 
ATOM     18  N   UNL     1      52.071   7.022   9.540  0.00  0.00    +0.000 N 
ATOM     19  C   UNL     1      51.534   7.553  10.689  0.00  0.00    +0.000 A 
ATOM     20  O   UNL     1      50.343   7.422  10.951  0.00  0.00    +0.000 OA
ATOM     21  C   UNL     1      52.476   8.297  11.504  0.00  0.00    +0.000 A 
ATOM     22  H   UNL     1      51.438   6.494   8.958  0.00  0.00    +0.000 HD
ENDBRANCH   9  12
ENDBRANCH   7  10
ENDBRANCH   1   7
BRANCH   4  23
ATOM     23  C   UNL     1      44.854   5.181  12.634  0.00  0.00    +0.000 C 
BRANCH  23  24
ATOM     24  N   UNL     1      44.633   5.669  11.273  0.00  0.00    +0.000 NA
ATOM     25  H   UNL     1      45.532   5.918  10.855  0.00  0.00    +0.000 HD
BRANCH  24  26
ATOM     26  CA  UNL     1      43.958   4.644  10.432  0.00  0.00    +0.000 C 
BRANCH  26  27
ATOM     27  C   UNL     1      44.970   4.018   9.430  0.00  0.00    +0.000 C 
ATOM     28  C   UNL     1      45.919   4.982   8.740  0.00  0.00    +0.000 C 
ATOM     29  C   UNL     1      46.530   4.081   7.682  0.00  0.00    +0.000 C 
ATOM     30  C   UNL     1      45.369   3.195   7.246  0.00  0.00    +0.000 C 
ATOM     31  N   UNL     1      44.355   3.284   8.306  0.00  0.00    +0.000 NA
ATOM     32  H   UNL     1      44.082   2.353   8.629  0.00  0.00    +0.000 HD
ENDBRANCH  26  27
BRANCH  26  33
ATOM     33  C   UNL     1      43.238   3.608  11.337  0.00  0.00    +0.000 C 
BRANCH  33  34
ATOM     34  O   UNL     1      43.537   2.257  11.006  0.00  0.00    +0.000 OA
ATOM     35  H   UNL     1      43.235   2.132  10.081  0.00  0.00    +0.000 HD
ENDBRANCH  33  34
ENDBRANCH  26  33
ENDBRANCH  24  26
ENDBRANCH  23  24
ENDBRANCH   4  23
TORSDOF 9
ENDMDL
