MODEL 1
REMARK VINA RESULT:    -8.594      0.000      0.000
REMARK INTER + INTRA:         -13.453
REMARK INTER:                 -12.362
REMARK INTRA:                  -1.091
REMARK UNBOUND:                -1.091
REMARK  Name = 
REMARK  8 active torsions:
REMARK  status: ('A' for Active; 'I' for Inactive)
REMARK    1  A    between atoms: C_2  and  C_21
REMARK    2  A    between atoms: N_3  and  C_4
REMARK    3  A    between atoms: C_4  and  C_5
REMARK    4  A    between atoms: C_8  and  C_9
REMARK    5  A    between atoms: C_9  and  C_10
REMARK    6  A    between atoms: C_9  and  C_12
REMARK    7  A    between atoms: C_10  and  O_11
REMARK    8  A    between atoms: C_12  and  C_13
REMARK                            x       y       z     vdW  Elec       q    Type
REMARK                         _______ _______ _______ _____ _____    ______ ____
ROOT
ATOM      1  C   UNL     1      47.044   6.384  12.927  0.00  0.00    +0.000 A 
ATOM      2  C   UNL     1      46.809   5.152  13.549  0.00  0.00    +0.000 A 
ATOM      3  C   UNL     1      46.031   4.173  12.921  0.00  0.00    +0.000 A 
ATOM      4  C   UNL     1      45.481   4.404  11.651  0.00  0.00    +0.000 A 
ATOM      5  C   UNL     1      45.718   5.644  11.038  0.00  0.00    +0.000 A 
ATOM      6  C   UNL     1      46.503   6.612  11.658  0.00  0.00    +0.000 A 
ENDROOT
BRANCH   1   7
ATOM      7  C   UNL     1      47.889   7.437  13.592  0.00  0.00    +0.000 C 
BRANCH   7  10
ATOM      8  O   UNL     1      50.079   6.667  15.163  0.00  0.00    +0.000 OA
ATOM      9  C   UNL     1      49.021   6.947  15.720  0.00  0.00    +0.000 C 
ATOM     10  N   UNL     1      47.891   7.285  15.023  0.00  0.00    +0.000 N 
ATOM     11  H   UNL     1      47.094   7.671  15.520  0.00  0.00    +0.000 HD
BRANCH   9  12
ATOM     12  C   UNL     1      48.892   6.882  17.181  0.00  0.00    +0.000 A 
ATOM     13  C   UNL     1      48.705   8.052  17.905  0.00  0.00    +0.000 A 
ATOM     14  S   UNL     1      48.544   7.799  19.584  0.00  0.00    +0.000 S 
ATOM     15  C   UNL     1      48.678   6.113  19.396  0.00  0.00    +0.000 A 
ATOM     16  N   UNL     1      48.573   5.280  20.466  0.00  0.00    +0.000 NA
ATOM     17  C   UNL     1      48.649   4.027  20.176  0.00  0.00    +0.000 A 
ATOM     18  N   UNL     1      48.845   3.527  18.913  0.00  0.00    +0.000 N 
ATOM     19  C   UNL     1      49.062   4.334  17.819  0.00  0.00    +0.000 A 
ATOM     20  O   UNL     1      49.419   3.860  16.746  0.00  0.00    +0.000 OA
ATOM     21  C   UNL     1      48.898   5.752  18.080  0.00  0.00    +0.000 A 
ATOM     22  H   UNL     1      48.948   2.534  18.760  0.00  0.00    +0.000 HD
ENDBRANCH   9  12
ENDBRANCH   7  10
ENDBRANCH   1   7
BRANCH   4  23
ATOM     23  C   UNL     1      44.648   3.315  10.975  0.00  0.00    +0.000 C 
BRANCH  23  24
ATOM     24  C   UNL     1      43.352   3.059  11.770  0.00  0.00    +0.000 C 
BRANCH  24  25
ATOM     25  O   UNL     1      42.968   1.685  11.740  0.00  0.00    +0.000 OA
ATOM     26  H   UNL     1      42.061   1.663  11.384  0.00  0.00    +0.000 HD
ENDBRANCH  24  25
ENDBRANCH  23  24
BRANCH  23  27
ATOM     27  C   UNL     1      44.305   3.588   9.491  0.00  0.00    +0.000 C 
BRANCH  27  28
ATOM     28  C   UNL     1      45.333   3.092   8.498  0.00  0.00    +0.000 A 
ATOM     29  C   UNL     1      45.763   1.767   8.552  0.00  0.00    +0.000 A 
ATOM     30  C   UNL     1      46.747   1.338   7.664  0.00  0.00    +0.000 A 
ATOM     31  C   UNL     1      47.273   2.237   6.747  0.00  0.00    +0.000 A 
ATOM     32  C   UNL     1      46.796   3.537   6.763  0.00  0.00    +0.000 A 
ATOM     33  N   UNL     1      45.858   3.985   7.626  0.00  0.00    +0.000 NA
ENDBRANCH  27  28
ENDBRANCH  23  27
ENDBRANCH   4  23
TORSDOF 8
ENDMDL
MODEL 2
REMARK VINA RESULT:    -8.225      1.561      2.290
REMARK INTER + INTRA:         -12.923
REMARK INTER:                 -11.700
REMARK INTRA:                  -1.223
REMARK UNBOUND:                -1.091
REMARK  Name = 
REMARK  8 active torsions:
REMARK  status: ('A' for Active; 'I' for Inactive)
REMARK    1  A    between atoms: C_2  and  C_21
REMARK    2  A    between atoms: N_3  and  C_4
REMARK    3  A    between atoms: C_4  and  C_5
REMARK    4  A    between atoms: C_8  and  C_9
REMARK    5  A    between atoms: C_9  and  C_10
REMARK    6  A    between atoms: C_9  and  C_12
REMARK    7  A    between atoms: C_10  and  O_11
REMARK    8  A    between atoms: C_12  and  C_13
REMARK                            x       y       z     vdW  Elec       q    Type
REMARK                         _______ _______ _______ _____ _____    ______ ____
ROOT
ATOM      1  C   UNL     1      46.785   6.464  12.930  0.00  0.00    +0.000 A 
ATOM      2  C   UNL     1      46.557   5.239  13.567  0.00  0.00    +0.000 A 
ATOM      3  C   UNL     1      45.865   4.214  12.912  0.00  0.00    +0.000 A 
ATOM      4  C   UNL     1      45.398   4.389  11.601  0.00  0.00    +0.000 A 
ATOM      5  C   UNL     1      45.628   5.623  10.973  0.00  0.00    +0.000 A 
ATOM      6  C   UNL     1      46.327   6.639  11.620  0.00  0.00    +0.000 A 
ENDROOT
BRANCH   1   7
ATOM      7  C   UNL     1      47.537   7.568  13.623  0.00  0.00    +0.000 C 
BRANCH   7  10
ATOM      8  O   UNL     1      50.114   6.999  14.569  0.00  0.00    +0.000 OA
ATOM      9  C   UNL     1      49.176   6.986  15.363  0.00  0.00    +0.000 C 
ATOM     10  N   UNL     1      47.882   7.205  14.972  0.00  0.00    +0.000 N 
ATOM     11  H   UNL     1      47.166   7.352  15.677  0.00  0.00    +0.000 HD
BRANCH   9  12
ATOM     12  C   UNL     1      49.387   6.677  16.782  0.00  0.00    +0.000 A 
ATOM     13  C   UNL     1      50.018   5.493  17.139  0.00  0.00    +0.000 A 
ATOM     14  S   UNL     1      50.211   5.301  18.823  0.00  0.00    +0.000 S 
ATOM     15  C   UNL     1      49.495   6.814  19.130  0.00  0.00    +0.000 A 
ATOM     16  N   UNL     1      49.391   7.292  20.399  0.00  0.00    +0.000 NA
ATOM     17  C   UNL     1      48.870   8.467  20.485  0.00  0.00    +0.000 A 
ATOM     18  N   UNL     1      48.418   9.202  19.418  0.00  0.00    +0.000 N 
ATOM     19  C   UNL     1      48.406   8.714  18.130  0.00  0.00    +0.000 A 
ATOM     20  O   UNL     1      47.827   9.316  17.232  0.00  0.00    +0.000 OA
ATOM     21  C   UNL     1      49.064   7.431  17.971  0.00  0.00    +0.000 A 
ATOM     22  H   UNL     1      47.971  10.097  19.557  0.00  0.00    +0.000 HD
ENDBRANCH   9  12
ENDBRANCH   7  10
ENDBRANCH   1   7
BRANCH   4  23
ATOM     23  C   UNL     1      44.660   3.251  10.899  0.00  0.00    +0.000 C 
BRANCH  23  24
ATOM     24  C   UNL     1      43.331   2.947  11.618  0.00  0.00    +0.000 C 
BRANCH  24  25
ATOM     25  O   UNL     1      42.971   1.570  11.522  0.00  0.00    +0.000 OA
ATOM     26  H   UNL     1      42.063   1.501  11.869  0.00  0.00    +0.000 HD
ENDBRANCH  24  25
ENDBRANCH  23  24
BRANCH  23  27
ATOM     27  C   UNL     1      44.397   3.480   9.391  0.00  0.00    +0.000 C 
BRANCH  27  28
ATOM     28  C   UNL     1      45.416   2.852   8.464  0.00  0.00    +0.000 A 
ATOM     29  C   UNL     1      45.952   3.602   7.419  0.00  0.00    +0.000 A 
ATOM     30  C   UNL     1      46.851   2.995   6.544  0.00  0.00    +0.000 A 
ATOM     31  C   UNL     1      47.192   1.664   6.736  0.00  0.00    +0.000 A 
ATOM     32  C   UNL     1      46.609   0.988   7.795  0.00  0.00    +0.000 A 
ATOM     33  N   UNL     1      45.719   1.545   8.645  0.00  0.00    +0.000 NA
ENDBRANCH  27  28
ENDBRANCH  23  27
ENDBRANCH   4  23
TORSDOF 8
ENDMDL
MODEL 3
REMARK VINA RESULT:    -8.139      1.854      2.185
REMARK INTER + INTRA:         -12.799
REMARK INTER:                 -11.537
REMARK INTRA:                  -1.262
REMARK UNBOUND:                -1.091
REMARK  Name = 
REMARK  8 active torsions:
REMARK  status: ('A' for Active; 'I' for Inactive)
REMARK    1  A    between atoms: C_2  and  C_21
REMARK    2  A    between atoms: N_3  and  C_4
REMARK    3  A    between atoms: C_4  and  C_5
REMARK    4  A    between atoms: C_8  and  C_9
REMARK    5  A    between atoms: C_9  and  C_10
REMARK    6  A    between atoms: C_9  and  C_12
REMARK    7  A    between atoms: C_10  and  O_11
REMARK    8  A    between atoms: C_12  and  C_13
REMARK                            x       y       z     vdW  Elec       q    Type
REMARK                         _______ _______ _______ _____ _____    ______ ____
ROOT
ATOM      1  C   UNL     1      46.918   6.363  12.760  0.00  0.00    +0.000 A 
ATOM      2  C   UNL     1      46.718   5.160  13.446  0.00  0.00    +0.000 A 
ATOM      3  C   UNL     1      45.973   4.126  12.869  0.00  0.00    +0.000 A 
ATOM      4  C   UNL     1      45.421   4.271  11.587  0.00  0.00    +0.000 A 
ATOM      5  C   UNL     1      45.622   5.483  10.910  0.00  0.00    +0.000 A 
ATOM      6  C   UNL     1      46.375   6.507  11.479  0.00  0.00    +0.000 A 
ENDROOT
BRANCH   1   7
ATOM      7  C   UNL     1      47.727   7.476  13.369  0.00  0.00    +0.000 C 
BRANCH   7  10
ATOM      8  O   UNL     1      49.477   8.989  14.952  0.00  0.00    +0.000 OA
ATOM      9  C   UNL     1      49.624   7.770  14.908  0.00  0.00    +0.000 C 
ATOM     10  N   UNL     1      48.843   6.965  14.121  0.00  0.00    +0.000 N 
ATOM     11  H   UNL     1      48.886   5.958  14.240  0.00  0.00    +0.000 HD
BRANCH   9  12
ATOM     12  C   UNL     1      50.694   7.107  15.662  0.00  0.00    +0.000 A 
ATOM     13  C   UNL     1      52.011   7.508  15.480  0.00  0.00    +0.000 A 
ATOM     14  S   UNL     1      53.126   6.659  16.451  0.00  0.00    +0.000 S 
ATOM     15  C   UNL     1      51.882   5.753  17.178  0.00  0.00    +0.000 A 
ATOM     16  N   UNL     1      52.157   4.853  18.160  0.00  0.00    +0.000 NA
ATOM     17  C   UNL     1      51.119   4.270  18.654  0.00  0.00    +0.000 A 
ATOM     18  N   UNL     1      49.829   4.486  18.239  0.00  0.00    +0.000 N 
ATOM     19  C   UNL     1      49.516   5.308  17.180  0.00  0.00    +0.000 A 
ATOM     20  O   UNL     1      48.382   5.335  16.715  0.00  0.00    +0.000 OA
ATOM     21  C   UNL     1      50.642   6.054  16.649  0.00  0.00    +0.000 A 
ATOM     22  H   UNL     1      49.063   3.958  18.632  0.00  0.00    +0.000 HD
ENDBRANCH   9  12
ENDBRANCH   7  10
ENDBRANCH   1   7
BRANCH   4  23
ATOM     23  C   UNL     1      44.625   3.123  10.968  0.00  0.00    +0.000 C 
BRANCH  23  24
ATOM     24  C   UNL     1      43.292   2.927  11.719  0.00  0.00    +0.000 C 
BRANCH  24  25
ATOM     25  O   UNL     1      42.773   1.609  11.554  0.00  0.00    +0.000 OA
ATOM     26  H   UNL     1      42.507   1.535  10.620  0.00  0.00    +0.000 HD
ENDBRANCH  24  25
ENDBRANCH  23  24
BRANCH  23  27
ATOM     27  C   UNL     1      44.353   3.265   9.451  0.00  0.00    +0.000 C 
BRANCH  27  28
ATOM     28  C   UNL     1      45.442   2.716   8.555  0.00  0.00    +0.000 A 
ATOM     29  C   UNL     1      46.082   3.562   7.651  0.00  0.00    +0.000 A 
ATOM     30  C   UNL     1      47.048   3.032   6.798  0.00  0.00    +0.000 A 
ATOM     31  C   UNL     1      47.351   1.680   6.871  0.00  0.00    +0.000 A 
ATOM     32  C   UNL     1      46.665   0.908   7.793  0.00  0.00    +0.000 A 
ATOM     33  N   UNL     1      45.709   1.390   8.617  0.00  0.00    +0.000 NA
ENDBRANCH  27  28
ENDBRANCH  23  27
ENDBRANCH   4  23
TORSDOF 8
ENDMDL
MODEL 4
REMARK VINA RESULT:    -7.142      3.922      4.514
REMARK INTER + INTRA:         -11.365
REMARK INTER:                 -10.129
REMARK INTRA:                  -1.236
REMARK UNBOUND:                -1.091
REMARK  Name = 
REMARK  8 active torsions:
REMARK  status: ('A' for Active; 'I' for Inactive)
REMARK    1  A    between atoms: C_2  and  C_21
REMARK    2  A    between atoms: N_3  and  C_4
REMARK    3  A    between atoms: C_4  and  C_5
REMARK    4  A    between atoms: C_8  and  C_9
REMARK    5  A    between atoms: C_9  and  C_10
REMARK    6  A    between atoms: C_9  and  C_12
REMARK    7  A    between atoms: C_10  and  O_11
REMARK    8  A    between atoms: C_12  and  C_13
REMARK                            x       y       z     vdW  Elec       q    Type
REMARK                         _______ _______ _______ _____ _____    ______ ____
ROOT
ATOM      1  C   UNL     1      46.240   7.488  12.813  0.00  0.00    +0.000 A 
ATOM      2  C   UNL     1      46.767   6.216  13.064  0.00  0.00    +0.000 A 
ATOM      3  C   UNL     1      46.191   5.079  12.485  0.00  0.00    +0.000 A 
ATOM      4  C   UNL     1      45.082   5.194  11.633  0.00  0.00    +0.000 A 
ATOM      5  C   UNL     1      44.559   6.474  11.392  0.00  0.00    +0.000 A 
ATOM      6  C   UNL     1      45.140   7.606  11.958  0.00  0.00    +0.000 A 
ENDROOT
BRANCH   1   7
ATOM      7  C   UNL     1      46.860   8.716  13.423  0.00  0.00    +0.000 C 
BRANCH   7  10
ATOM      8  O   UNL     1      48.635   9.683  11.481  0.00  0.00    +0.000 OA
ATOM      9  C   UNL     1      49.094   9.158  12.492  0.00  0.00    +0.000 C 
ATOM     10  N   UNL     1      48.295   8.617  13.465  0.00  0.00    +0.000 N 
ATOM     11  H   UNL     1      48.705   8.347  14.354  0.00  0.00    +0.000 HD
BRANCH   9  12
ATOM     12  C   UNL     1      50.543   9.030  12.690  0.00  0.00    +0.000 A 
ATOM     13  C   UNL     1      51.336   8.545  11.658  0.00  0.00    +0.000 A 
ATOM     14  S   UNL     1      52.996   8.487  12.041  0.00  0.00    +0.000 S 
ATOM     15  C   UNL     1      52.718   9.147  13.584  0.00  0.00    +0.000 A 
ATOM     16  N   UNL     1      53.751   9.408  14.429  0.00  0.00    +0.000 NA
ATOM     17  C   UNL     1      53.404   9.948  15.546  0.00  0.00    +0.000 A 
ATOM     18  N   UNL     1      52.110  10.229  15.910  0.00  0.00    +0.000 N 
ATOM     19  C   UNL     1      51.027   9.885  15.132  0.00  0.00    +0.000 A 
ATOM     20  O   UNL     1      49.884   9.979  15.565  0.00  0.00    +0.000 OA
ATOM     21  C   UNL     1      51.374   9.356  13.826  0.00  0.00    +0.000 A 
ATOM     22  H   UNL     1      51.900  10.605  16.823  0.00  0.00    +0.000 HD
ENDBRANCH   9  12
ENDBRANCH   7  10
ENDBRANCH   1   7
BRANCH   4  23
ATOM     23  C   UNL     1      44.479   3.943  10.998  0.00  0.00    +0.000 C 
BRANCH  23  24
ATOM     24  C   UNL     1      43.196   3.526  11.744  0.00  0.00    +0.000 C 
BRANCH  24  25
ATOM     25  O   UNL     1      42.946   2.125  11.641  0.00  0.00    +0.000 OA
ATOM     26  H   UNL     1      42.098   1.966  12.094  0.00  0.00    +0.000 HD
ENDBRANCH  24  25
ENDBRANCH  23  24
BRANCH  23  27
ATOM     27  C   UNL     1      44.187   4.060   9.482  0.00  0.00    +0.000 C 
BRANCH  27  28
ATOM     28  C   UNL     1      45.199   3.382   8.584  0.00  0.00    +0.000 A 
ATOM     29  C   UNL     1      45.482   2.029   8.762  0.00  0.00    +0.000 A 
ATOM     30  C   UNL     1      46.452   1.431   7.961  0.00  0.00    +0.000 A 
ATOM     31  C   UNL     1      47.110   2.194   7.006  0.00  0.00    +0.000 A 
ATOM     32  C   UNL     1      46.773   3.533   6.898  0.00  0.00    +0.000 A 
ATOM     33  N   UNL     1      45.852   4.143   7.675  0.00  0.00    +0.000 NA
ENDBRANCH  27  28
ENDBRANCH  23  27
ENDBRANCH   4  23
TORSDOF 8
ENDMDL
MODEL 5
REMARK VINA RESULT:    -7.140      4.336      9.404
REMARK INTER + INTRA:         -11.363
REMARK INTER:                 -10.263
REMARK INTRA:                  -1.100
REMARK UNBOUND:                -1.091
REMARK  Name = 
REMARK  8 active torsions:
REMARK  status: ('A' for Active; 'I' for Inactive)
REMARK    1  A    between atoms: C_2  and  C_21
REMARK    2  A    between atoms: N_3  and  C_4
REMARK    3  A    between atoms: C_4  and  C_5
REMARK    4  A    between atoms: C_8  and  C_9
REMARK    5  A    between atoms: C_9  and  C_10
REMARK    6  A    between atoms: C_9  and  C_12
REMARK    7  A    between atoms: C_10  and  O_11
REMARK    8  A    between atoms: C_12  and  C_13
REMARK                            x       y       z     vdW  Elec       q    Type
REMARK                         _______ _______ _______ _____ _____    ______ ____
ROOT
ATOM      1  C   UNL     1      48.665   3.393  17.101  0.00  0.00    +0.000 A 
ATOM      2  C   UNL     1      49.309   4.601  17.395  0.00  0.00    +0.000 A 
ATOM      3  C   UNL     1      50.689   4.633  17.628  0.00  0.00    +0.000 A 
ATOM      4  C   UNL     1      51.454   3.460  17.561  0.00  0.00    +0.000 A 
ATOM      5  C   UNL     1      50.798   2.254  17.270  0.00  0.00    +0.000 A 
ATOM      6  C   UNL     1      49.428   2.223  17.025  0.00  0.00    +0.000 A 
ENDROOT
BRANCH   1   7
ATOM      7  C   UNL     1      47.185   3.351  16.838  0.00  0.00    +0.000 C 
BRANCH   7  10
ATOM      8  O   UNL     1      47.243   3.102  14.047  0.00  0.00    +0.000 OA
ATOM      9  C   UNL     1      46.805   4.138  14.538  0.00  0.00    +0.000 C 
ATOM     10  N   UNL     1      46.788   4.359  15.890  0.00  0.00    +0.000 N 
ATOM     11  H   UNL     1      46.268   5.148  16.261  0.00  0.00    +0.000 HD
BRANCH   9  12
ATOM     12  C   UNL     1      46.322   5.235  13.691  0.00  0.00    +0.000 A 
ATOM     13  C   UNL     1      47.139   6.335  13.462  0.00  0.00    +0.000 A 
ATOM     14  S   UNL     1      46.441   7.503  12.434  0.00  0.00    +0.000 S 
ATOM     15  C   UNL     1      45.038   6.561  12.229  0.00  0.00    +0.000 A 
ATOM     16  N   UNL     1      44.035   6.972  11.408  0.00  0.00    +0.000 NA
ATOM     17  C   UNL     1      43.054   6.144  11.309  0.00  0.00    +0.000 A 
ATOM     18  N   UNL     1      42.970   4.947  11.977  0.00  0.00    +0.000 N 
ATOM     19  C   UNL     1      43.911   4.541  12.896  0.00  0.00    +0.000 A 
ATOM     20  O   UNL     1      43.715   3.563  13.610  0.00  0.00    +0.000 OA
ATOM     21  C   UNL     1      45.078   5.399  12.976  0.00  0.00    +0.000 A 
ATOM     22  H   UNL     1      42.148   4.366  11.896  0.00  0.00    +0.000 HD
ENDBRANCH   9  12
ENDBRANCH   7  10
ENDBRANCH   1   7
BRANCH   4  23
ATOM     23  C   UNL     1      52.962   3.521  17.801  0.00  0.00    +0.000 C 
BRANCH  23  24
ATOM     24  C   UNL     1      53.381   4.943  18.224  0.00  0.00    +0.000 C 
BRANCH  24  25
ATOM     25  O   UNL     1      54.004   5.658  17.158  0.00  0.00    +0.000 OA
ATOM     26  H   UNL     1      53.301   5.853  16.513  0.00  0.00    +0.000 HD
ENDBRANCH  24  25
ENDBRANCH  23  24
BRANCH  23  27
ATOM     27  C   UNL     1      53.498   2.493  18.826  0.00  0.00    +0.000 C 
BRANCH  27  28
ATOM     28  C   UNL     1      54.079   1.234  18.220  0.00  0.00    +0.000 A 
ATOM     29  C   UNL     1      54.702   1.291  16.974  0.00  0.00    +0.000 A 
ATOM     30  C   UNL     1      55.188   0.115  16.407  0.00  0.00    +0.000 A 
ATOM     31  C   UNL     1      55.043  -1.081  17.094  0.00  0.00    +0.000 A 
ATOM     32  C   UNL     1      54.407  -1.053  18.324  0.00  0.00    +0.000 A 
ATOM     33  N   UNL     1      53.908   0.068  18.888  0.00  0.00    +0.000 NA
ENDBRANCH  27  28
ENDBRANCH  23  27
ENDBRANCH   4  23
TORSDOF 8
ENDMDL
MODEL 6
REMARK VINA RESULT:    -7.131      4.570      6.630
REMARK INTER + INTRA:         -11.349
REMARK INTER:                 -10.278
REMARK INTRA:                  -1.071
REMARK UNBOUND:                -1.091
REMARK  Name = 
REMARK  8 active torsions:
REMARK  status: ('A' for Active; 'I' for Inactive)
REMARK    1  A    between atoms: C_2  and  C_21
REMARK    2  A    between atoms: N_3  and  C_4
REMARK    3  A    between atoms: C_4  and  C_5
REMARK    4  A    between atoms: C_8  and  C_9
REMARK    5  A    between atoms: C_9  and  C_10
REMARK    6  A    between atoms: C_9  and  C_12
REMARK    7  A    between atoms: C_10  and  O_11
REMARK    8  A    between atoms: C_12  and  C_13
REMARK                            x       y       z     vdW  Elec       q    Type
REMARK                         _______ _______ _______ _____ _____    ______ ____
ROOT
ATOM      1  C   UNL     1      47.793   6.447  12.824  0.00  0.00    +0.000 A 
ATOM      2  C   UNL     1      47.301   5.327  13.503  0.00  0.00    +0.000 A 
ATOM      3  C   UNL     1      46.124   4.698  13.080  0.00  0.00    +0.000 A 
ATOM      4  C   UNL     1      45.423   5.170  11.961  0.00  0.00    +0.000 A 
ATOM      5  C   UNL     1      45.922   6.298  11.290  0.00  0.00    +0.000 A 
ATOM      6  C   UNL     1      47.100   6.916  11.704  0.00  0.00    +0.000 A 
ENDROOT
BRANCH   1   7
ATOM      7  C   UNL     1      49.063   7.123  13.266  0.00  0.00    +0.000 C 
BRANCH   7  10
ATOM      8  O   UNL     1      51.356   8.734  13.323  0.00  0.00    +0.000 OA
ATOM      9  C   UNL     1      51.057   8.167  12.275  0.00  0.00    +0.000 C 
ATOM     10  N   UNL     1      49.927   7.403  12.151  0.00  0.00    +0.000 N 
ATOM     11  H   UNL     1      49.806   6.821  11.328  0.00  0.00    +0.000 HD
BRANCH   9  12
ATOM     12  C   UNL     1      51.876   8.325  11.067  0.00  0.00    +0.000 A 
ATOM     13  C   UNL     1      52.685   7.279  10.646  0.00  0.00    +0.000 A 
ATOM     14  S   UNL     1      53.545   7.613   9.212  0.00  0.00    +0.000 S 
ATOM     15  C   UNL     1      52.834   9.153   9.082  0.00  0.00    +0.000 A 
ATOM     16  N   UNL     1      53.111   9.963   8.025  0.00  0.00    +0.000 NA
ATOM     17  C   UNL     1      52.471  11.081   8.028  0.00  0.00    +0.000 A 
ATOM     18  N   UNL     1      51.595  11.478   9.007  0.00  0.00    +0.000 N 
ATOM     19  C   UNL     1      51.366  10.738  10.145  0.00  0.00    +0.000 A 
ATOM     20  O   UNL     1      50.727  11.203  11.083  0.00  0.00    +0.000 OA
ATOM     21  C   UNL     1      51.996   9.430  10.145  0.00  0.00    +0.000 A 
ATOM     22  H   UNL     1      51.164  12.391   8.977  0.00  0.00    +0.000 HD
ENDBRANCH   9  12
ENDBRANCH   7  10
ENDBRANCH   1   7
BRANCH   4  23
ATOM     23  C   UNL     1      44.150   4.458  11.505  0.00  0.00    +0.000 C 
BRANCH  23  24
ATOM     24  C   UNL     1      42.935   4.963  12.309  0.00  0.00    +0.000 C 
BRANCH  24  25
ATOM     25  O   UNL     1      42.382   6.155  11.754  0.00  0.00    +0.000 OA
ATOM     26  H   UNL     1      42.557   6.116  10.797  0.00  0.00    +0.000 HD
ENDBRANCH  24  25
ENDBRANCH  23  24
BRANCH  23  27
ATOM     27  C   UNL     1      43.853   4.565   9.990  0.00  0.00    +0.000 C 
BRANCH  27  28
ATOM     28  C   UNL     1      44.759   3.737   9.104  0.00  0.00    +0.000 A 
ATOM     29  C   UNL     1      44.810   2.354   9.269  0.00  0.00    +0.000 A 
ATOM     30  C   UNL     1      45.685   1.610   8.481  0.00  0.00    +0.000 A 
ATOM     31  C   UNL     1      46.482   2.263   7.550  0.00  0.00    +0.000 A 
ATOM     32  C   UNL     1      46.375   3.640   7.453  0.00  0.00    +0.000 A 
ATOM     33  N   UNL     1      45.550   4.387   8.219  0.00  0.00    +0.000 NA
ENDBRANCH  27  28
ENDBRANCH  23  27
ENDBRANCH   4  23
TORSDOF 8
ENDMDL
MODEL 7
REMARK VINA RESULT:    -7.025      4.329      5.802
REMARK INTER + INTRA:         -11.196
REMARK INTER:                 -10.071
REMARK INTRA:                  -1.125
REMARK UNBOUND:                -1.091
REMARK  Name = 
REMARK  8 active torsions:
REMARK  status: ('A' for Active; 'I' for Inactive)
REMARK    1  A    between atoms: C_2  and  C_21
REMARK    2  A    between atoms: N_3  and  C_4
REMARK    3  A    between atoms: C_4  and  C_5
REMARK    4  A    between atoms: C_8  and  C_9
REMARK    5  A    between atoms: C_9  and  C_10
REMARK    6  A    between atoms: C_9  and  C_12
REMARK    7  A    between atoms: C_10  and  O_11
REMARK    8  A    between atoms: C_12  and  C_13
REMARK                            x       y       z     vdW  Elec       q    Type
REMARK                         _______ _______ _______ _____ _____    ______ ____
ROOT
ATOM      1  C   UNL     1      47.572   6.601  12.954  0.00  0.00    +0.000 A 
ATOM      2  C   UNL     1      47.129   5.451  13.619  0.00  0.00    +0.000 A 
ATOM      3  C   UNL     1      46.087   4.681  13.091  0.00  0.00    +0.000 A 
ATOM      4  C   UNL     1      45.473   5.038  11.882  0.00  0.00    +0.000 A 
ATOM      5  C   UNL     1      45.921   6.196  11.226  0.00  0.00    +0.000 A 
ATOM      6  C   UNL     1      46.967   6.955  11.744  0.00  0.00    +0.000 A 
ENDROOT
BRANCH   1   7
ATOM      7  C   UNL     1      48.699   7.429  13.509  0.00  0.00    +0.000 C 
BRANCH   7  10
ATOM      8  O   UNL     1      49.813   9.284  11.727  0.00  0.00    +0.000 OA
ATOM      9  C   UNL     1      50.408   8.229  11.931  0.00  0.00    +0.000 C 
ATOM     10  N   UNL     1      49.908   7.251  12.749  0.00  0.00    +0.000 N 
ATOM     11  H   UNL     1      50.503   6.475  13.021  0.00  0.00    +0.000 HD
BRANCH   9  12
ATOM     12  C   UNL     1      51.679   7.932  11.258  0.00  0.00    +0.000 A 
ATOM     13  C   UNL     1      51.667   7.343  10.001  0.00  0.00    +0.000 A 
ATOM     14  S   UNL     1      53.222   7.093   9.348  0.00  0.00    +0.000 S 
ATOM     15  C   UNL     1      53.964   7.801  10.707  0.00  0.00    +0.000 A 
ATOM     16  N   UNL     1      55.314   7.948  10.767  0.00  0.00    +0.000 NA
ATOM     17  C   UNL     1      55.739   8.540  11.830  0.00  0.00    +0.000 A 
ATOM     18  N   UNL     1      54.937   8.978  12.854  0.00  0.00    +0.000 N 
ATOM     19  C   UNL     1      53.579   8.756  12.883  0.00  0.00    +0.000 A 
ATOM     20  O   UNL     1      52.922   8.990  13.891  0.00  0.00    +0.000 OA
ATOM     21  C   UNL     1      53.043   8.172  11.667  0.00  0.00    +0.000 A 
ATOM     22  H   UNL     1      55.338   9.388  13.686  0.00  0.00    +0.000 HD
ENDBRANCH   9  12
ENDBRANCH   7  10
ENDBRANCH   1   7
BRANCH   4  23
ATOM     23  C   UNL     1      44.349   4.173  11.315  0.00  0.00    +0.000 C 
BRANCH  23  24
ATOM     24  C   UNL     1      43.024   4.468  12.046  0.00  0.00    +0.000 C 
BRANCH  24  25
ATOM     25  O   UNL     1      42.774   5.868  12.160  0.00  0.00    +0.000 OA
ATOM     26  H   UNL     1      43.322   6.183  12.901  0.00  0.00    +0.000 HD
ENDBRANCH  24  25
ENDBRANCH  23  24
BRANCH  23  27
ATOM     27  C   UNL     1      44.140   4.298   9.786  0.00  0.00    +0.000 C 
BRANCH  27  28
ATOM     28  C   UNL     1      45.110   3.498   8.944  0.00  0.00    +0.000 A 
ATOM     29  C   UNL     1      45.869   4.140   7.967  0.00  0.00    +0.000 A 
ATOM     30  C   UNL     1      46.721   3.383   7.166  0.00  0.00    +0.000 A 
ATOM     31  C   UNL     1      46.795   2.011   7.362  0.00  0.00    +0.000 A 
ATOM     32  C   UNL     1      46.004   1.450   8.350  0.00  0.00    +0.000 A 
ATOM     33  N   UNL     1      45.154   2.157   9.126  0.00  0.00    +0.000 NA
ENDBRANCH  27  28
ENDBRANCH  23  27
ENDBRANCH   4  23
TORSDOF 8
ENDMDL
MODEL 8
REMARK VINA RESULT:    -6.929      2.443      3.105
REMARK INTER + INTRA:         -11.058
REMARK INTER:                  -9.919
REMARK INTRA:                  -1.139
REMARK UNBOUND:                -1.091
REMARK  Name = 
REMARK  8 active torsions:
REMARK  status: ('A' for Active; 'I' for Inactive)
REMARK    1  A    between atoms: C_2  and  C_21
REMARK    2  A    between atoms: N_3  and  C_4
REMARK    3  A    between atoms: C_4  and  C_5
REMARK    4  A    between atoms: C_8  and  C_9
REMARK    5  A    between atoms: C_9  and  C_10
REMARK    6  A    between atoms: C_9  and  C_12
REMARK    7  A    between atoms: C_10  and  O_11
REMARK    8  A    between atoms: C_12  and  C_13
REMARK                            x       y       z     vdW  Elec       q    Type
REMARK                         _______ _______ _______ _____ _____    ______ ____
ROOT
ATOM      1  C   UNL     1      48.152   7.239  14.591  0.00  0.00    +0.000 A 
ATOM      2  C   UNL     1      47.901   5.863  14.534  0.00  0.00    +0.000 A 
ATOM      3  C   UNL     1      46.961   5.347  13.633  0.00  0.00    +0.000 A 
ATOM      4  C   UNL     1      46.262   6.197  12.763  0.00  0.00    +0.000 A 
ATOM      5  C   UNL     1      46.518   7.576  12.832  0.00  0.00    +0.000 A 
ATOM      6  C   UNL     1      47.462   8.087  13.719  0.00  0.00    +0.000 A 
ENDROOT
BRANCH   1   7
ATOM      7  C   UNL     1      49.167   7.800  15.548  0.00  0.00    +0.000 C 
BRANCH   7  10
ATOM      8  O   UNL     1      49.505   6.665  18.089  0.00  0.00    +0.000 OA
ATOM      9  C   UNL     1      50.221   6.278  17.168  0.00  0.00    +0.000 C 
ATOM     10  N   UNL     1      50.152   6.815  15.910  0.00  0.00    +0.000 N 
ATOM     11  H   UNL     1      50.636   6.357  15.144  0.00  0.00    +0.000 HD
BRANCH   9  12
ATOM     12  C   UNL     1      51.239   5.243  17.382  0.00  0.00    +0.000 A 
ATOM     13  C   UNL     1      52.548   5.616  17.655  0.00  0.00    +0.000 A 
ATOM     14  S   UNL     1      53.598   4.296  17.907  0.00  0.00    +0.000 S 
ATOM     15  C   UNL     1      52.329   3.181  17.700  0.00  0.00    +0.000 A 
ATOM     16  N   UNL     1      52.545   1.845  17.839  0.00  0.00    +0.000 NA
ATOM     17  C   UNL     1      51.491   1.118  17.700  0.00  0.00    +0.000 A 
ATOM     18  N   UNL     1      50.239   1.602  17.410  0.00  0.00    +0.000 N 
ATOM     19  C   UNL     1      49.997   2.933  17.158  0.00  0.00    +0.000 A 
ATOM     20  O   UNL     1      48.914   3.306  16.720  0.00  0.00    +0.000 OA
ATOM     21  C   UNL     1      51.136   3.802  17.389  0.00  0.00    +0.000 A 
ATOM     22  H   UNL     1      49.462   0.973  17.262  0.00  0.00    +0.000 HD
ENDBRANCH   9  12
ENDBRANCH   7  10
ENDBRANCH   1   7
BRANCH   4  23
ATOM     23  C   UNL     1      45.254   5.611  11.776  0.00  0.00    +0.000 C 
BRANCH  23  24
ATOM     24  C   UNL     1      43.838   6.143  12.076  0.00  0.00    +0.000 C 
BRANCH  24  25
ATOM     25  O   UNL     1      43.339   5.666  13.324  0.00  0.00    +0.000 OA
ATOM     26  H   UNL     1      42.943   4.795  13.145  0.00  0.00    +0.000 HD
ENDBRANCH  24  25
ENDBRANCH  23  24
BRANCH  23  27
ATOM     27  C   UNL     1      45.594   5.845  10.284  0.00  0.00    +0.000 C 
BRANCH  27  28
ATOM     28  C   UNL     1      45.565   4.601   9.422  0.00  0.00    +0.000 A 
ATOM     29  C   UNL     1      45.107   3.400   9.960  0.00  0.00    +0.000 A 
ATOM     30  C   UNL     1      45.133   2.253   9.170  0.00  0.00    +0.000 A 
ATOM     31  C   UNL     1      45.611   2.334   7.870  0.00  0.00    +0.000 A 
ATOM     32  C   UNL     1      46.053   3.564   7.414  0.00  0.00    +0.000 A 
ATOM     33  N   UNL     1      46.059   4.687   8.165  0.00  0.00    +0.000 NA
ENDBRANCH  27  28
ENDBRANCH  23  27
ENDBRANCH   4  23
TORSDOF 8
ENDMDL
MODEL 9
REMARK VINA RESULT:    -6.732      4.493      5.834
REMARK INTER + INTRA:         -10.775
REMARK INTER:                  -9.452
REMARK INTRA:                  -1.323
REMARK UNBOUND:                -1.091
REMARK  Name = 
REMARK  8 active torsions:
REMARK  status: ('A' for Active; 'I' for Inactive)
REMARK    1  A    between atoms: C_2  and  C_21
REMARK    2  A    between atoms: N_3  and  C_4
REMARK    3  A    between atoms: C_4  and  C_5
REMARK    4  A    between atoms: C_8  and  C_9
REMARK    5  A    between atoms: C_9  and  C_10
REMARK    6  A    between atoms: C_9  and  C_12
REMARK    7  A    between atoms: C_10  and  O_11
REMARK    8  A    between atoms: C_12  and  C_13
REMARK                            x       y       z     vdW  Elec       q    Type
REMARK                         _______ _______ _______ _____ _____    ______ ____
ROOT
ATOM      1  C   UNL     1      46.928   8.277  12.772  0.00  0.00    +0.000 A 
ATOM      2  C   UNL     1      47.572   7.036  12.714  0.00  0.00    +0.000 A 
ATOM      3  C   UNL     1      46.883   5.896  12.282  0.00  0.00    +0.000 A 
ATOM      4  C   UNL     1      45.539   5.978  11.890  0.00  0.00    +0.000 A 
ATOM      5  C   UNL     1      44.902   7.226  11.957  0.00  0.00    +0.000 A 
ATOM      6  C   UNL     1      45.590   8.363  12.374  0.00  0.00    +0.000 A 
ENDROOT
BRANCH   1   7
ATOM      7  C   UNL     1      47.664   9.509  13.224  0.00  0.00    +0.000 C 
BRANCH   7  10
ATOM      8  O   UNL     1      48.441  10.872  10.901  0.00  0.00    +0.000 OA
ATOM      9  C   UNL     1      49.298  10.288  11.558  0.00  0.00    +0.000 C 
ATOM     10  N   UNL     1      48.994   9.559  12.678  0.00  0.00    +0.000 N 
ATOM     11  H   UNL     1      49.744   9.236  13.282  0.00  0.00    +0.000 HD
BRANCH   9  12
ATOM     12  C   UNL     1      50.706  10.293  11.144  0.00  0.00    +0.000 A 
ATOM     13  C   UNL     1      51.368  11.503  10.979  0.00  0.00    +0.000 A 
ATOM     14  S   UNL     1      53.003  11.333  10.526  0.00  0.00    +0.000 S 
ATOM     15  C   UNL     1      52.894   9.636  10.574  0.00  0.00    +0.000 A 
ATOM     16  N   UNL     1      53.984   8.859  10.329  0.00  0.00    +0.000 NA
ATOM     17  C   UNL     1      53.773   7.594  10.443  0.00  0.00    +0.000 A 
ATOM     18  N   UNL     1      52.562   7.027  10.756  0.00  0.00    +0.000 N 
ATOM     19  C   UNL     1      51.411   7.768  10.908  0.00  0.00    +0.000 A 
ATOM     20  O   UNL     1      50.317   7.223  11.001  0.00  0.00    +0.000 OA
ATOM     21  C   UNL     1      51.617   9.205  10.877  0.00  0.00    +0.000 A 
ATOM     22  H   UNL     1      52.450   6.024  10.779  0.00  0.00    +0.000 HD
ENDBRANCH   9  12
ENDBRANCH   7  10
ENDBRANCH   1   7
BRANCH   4  23
ATOM     23  C   UNL     1      44.811   4.725  11.406  0.00  0.00    +0.000 C 
BRANCH  23  24
ATOM     24  C   UNL     1      43.596   4.428  12.308  0.00  0.00    +0.000 C 
BRANCH  24  25
ATOM     25  O   UNL     1      43.987   4.028  13.620  0.00  0.00    +0.000 OA
ATOM     26  H   UNL     1      43.711   4.746  14.217  0.00  0.00    +0.000 HD
ENDBRANCH  24  25
ENDBRANCH  23  24
BRANCH  23  27
ATOM     27  C   UNL     1      44.364   4.764   9.925  0.00  0.00    +0.000 C 
BRANCH  27  28
ATOM     28  C   UNL     1      45.186   3.903   8.989  0.00  0.00    +0.000 A 
ATOM     29  C   UNL     1      45.188   2.519   9.148  0.00  0.00    +0.000 A 
ATOM     30  C   UNL     1      45.987   1.744   8.311  0.00  0.00    +0.000 A 
ATOM     31  C   UNL     1      46.759   2.367   7.341  0.00  0.00    +0.000 A 
ATOM     32  C   UNL     1      46.704   3.747   7.252  0.00  0.00    +0.000 A 
ATOM     33  N   UNL     1      45.954   4.525   8.064  0.00  0.00    +0.000 NA
ENDBRANCH  27  28
ENDBRANCH  23  27
ENDBRANCH   4  23
TORSDOF 8
ENDMDL
