MODEL 1
REMARK VINA RESULT:    -7.835      0.000      0.000
REMARK INTER + INTRA:         -10.146
REMARK INTER:                  -9.667
REMARK INTRA:                  -0.479
REMARK UNBOUND:                -0.479
REMARK  Name = 
REMARK  5 active torsions:
REMARK  status: ('A' for Active; 'I' for Inactive)
REMARK    1  A    between atoms: C_1  and  C_2
REMARK    2  A    between atoms: C_2  and  C_3
REMARK    3  A    between atoms: C_2  and  C_14
REMARK    4  A    between atoms: C_3  and  N_4
REMARK    5  A    between atoms: C_8  and  C_9
REMARK                            x       y       z     vdW  Elec       q    Type
REMARK                         _______ _______ _______ _____ _____    ______ ____
ROOT
ATOM      1  N   UNL     1      43.767   4.641   9.847  0.00  0.00    +0.000 N 
ATOM      2  C   UNL     1      44.724   3.899   9.152  0.00  0.00    +0.000 A 
ATOM      3  C   UNL     1      44.874   2.508   9.264  0.00  0.00    +0.000 A 
ATOM      4  N   UNL     1      45.761   1.761   8.554  0.00  0.00    +0.000 NA
ATOM      5  C   UNL     1      46.501   2.473   7.667  0.00  0.00    +0.000 A 
ATOM      6  C   UNL     1      46.370   3.848   7.536  0.00  0.00    +0.000 A 
ATOM      7  N   UNL     1      45.490   4.583   8.278  0.00  0.00    +0.000 NA
ATOM      8  H   UNL     1      44.021   5.621   9.759  0.00  0.00    +0.000 HD
ENDROOT
BRANCH   5   9
ATOM      9  C   UNL     1      47.467   1.724   6.818  0.00  0.00    +0.000 C 
ATOM     10  N   UNL     1      48.532   2.433   6.311  0.00  0.00    +0.000 N 
ATOM     11  O   UNL     1      47.332   0.530   6.584  0.00  0.00    +0.000 OA
ATOM     12  H   UNL     1      48.644   3.416   6.512  0.00  0.00    +0.000 HD
ATOM     13  H   UNL     1      49.215   1.950   5.751  0.00  0.00    +0.000 HD
ENDBRANCH   5   9
BRANCH   1  14
ATOM     14  C   UNL     1      43.366   4.171  11.151  0.00  0.00    +0.000 C 
BRANCH  14  16
ATOM     15  C   UNL     1      42.229   6.407  11.763  0.00  0.00    +0.000 C 
ATOM     16  C   UNL     1      43.187   5.305  12.125  0.00  0.00    +0.000 C 
BRANCH  16  17
ATOM     17  C   UNL     1      44.445   5.681  12.916  0.00  0.00    +0.000 C 
ATOM     18  C   UNL     1      45.256   6.834  12.293  0.00  0.00    +0.000 C 
ATOM     19  C   UNL     1      46.577   7.083  13.024  0.00  0.00    +0.000 C 
ATOM     20  C   UNL     1      47.404   5.806  13.119  0.00  0.00    +0.000 C 
ATOM     21  C   UNL     1      46.626   4.717  13.845  0.00  0.00    +0.000 C 
ATOM     22  C   UNL     1      45.307   4.424  13.146  0.00  0.00    +0.000 C 
ENDBRANCH  16  17
ENDBRANCH  14  16
ENDBRANCH   1  14
TORSDOF 4
ENDMDL
MODEL 2
REMARK VINA RESULT:    -7.600      1.297      2.175
REMARK INTER + INTRA:          -9.855
REMARK INTER:                  -9.448
REMARK INTRA:                  -0.407
REMARK UNBOUND:                -0.479
REMARK  Name = 
REMARK  5 active torsions:
REMARK  status: ('A' for Active; 'I' for Inactive)
REMARK    1  A    between atoms: C_1  and  C_2
REMARK    2  A    between atoms: C_2  and  C_3
REMARK    3  A    between atoms: C_2  and  C_14
REMARK    4  A    between atoms: C_3  and  N_4
REMARK    5  A    between atoms: C_8  and  C_9
REMARK                            x       y       z     vdW  Elec       q    Type
REMARK                         _______ _______ _______ _____ _____    ______ ____
ROOT
ATOM      1  N   UNL     1      44.116   5.120   9.609  0.00  0.00    +0.000 N 
ATOM      2  C   UNL     1      44.890   4.084   9.083  0.00  0.00    +0.000 A 
ATOM      3  C   UNL     1      44.854   2.760   9.549  0.00  0.00    +0.000 A 
ATOM      4  N   UNL     1      45.557   1.727   9.014  0.00  0.00    +0.000 NA
ATOM      5  C   UNL     1      46.303   2.064   7.932  0.00  0.00    +0.000 A 
ATOM      6  C   UNL     1      46.355   3.365   7.452  0.00  0.00    +0.000 A 
ATOM      7  N   UNL     1      45.660   4.394   8.020  0.00  0.00    +0.000 NA
ATOM      8  H   UNL     1      44.496   5.993   9.252  0.00  0.00    +0.000 HD
ENDROOT
BRANCH   5   9
ATOM      9  C   UNL     1      47.072   0.982   7.260  0.00  0.00    +0.000 C 
ATOM     10  N   UNL     1      46.809  -0.309   7.656  0.00  0.00    +0.000 N 
ATOM     11  O   UNL     1      47.897   1.222   6.386  0.00  0.00    +0.000 OA
ATOM     12  H   UNL     1      46.123  -0.503   8.371  0.00  0.00    +0.000 HD
ATOM     13  H   UNL     1      47.297  -1.065   7.203  0.00  0.00    +0.000 HD
ENDBRANCH   5   9
BRANCH   1  14
ATOM     14  C   UNL     1      43.776   5.063  11.010  0.00  0.00    +0.000 C 
BRANCH  14  16
ATOM     15  C   UNL     1      44.914   4.814  13.314  0.00  0.00    +0.000 C 
ATOM     16  C   UNL     1      44.978   5.287  11.887  0.00  0.00    +0.000 C 
BRANCH  16  17
ATOM     17  C   UNL     1      45.761   6.572  11.594  0.00  0.00    +0.000 C 
ATOM     18  C   UNL     1      47.241   6.517  12.027  0.00  0.00    +0.000 C 
ATOM     19  C   UNL     1      47.951   7.861  11.856  0.00  0.00    +0.000 C 
ATOM     20  C   UNL     1      47.200   8.978  12.573  0.00  0.00    +0.000 C 
ATOM     21  C   UNL     1      45.777   9.092  12.045  0.00  0.00    +0.000 C 
ATOM     22  C   UNL     1      45.024   7.779  12.206  0.00  0.00    +0.000 C 
ENDBRANCH  16  17
ENDBRANCH  14  16
ENDBRANCH   1  14
TORSDOF 4
ENDMDL
MODEL 3
REMARK VINA RESULT:    -6.942      3.530      5.918
REMARK INTER + INTRA:          -9.044
REMARK INTER:                  -8.466
REMARK INTRA:                  -0.578
REMARK UNBOUND:                -0.479
REMARK  Name = 
REMARK  5 active torsions:
REMARK  status: ('A' for Active; 'I' for Inactive)
REMARK    1  A    between atoms: C_1  and  C_2
REMARK    2  A    between atoms: C_2  and  C_3
REMARK    3  A    between atoms: C_2  and  C_14
REMARK    4  A    between atoms: C_3  and  N_4
REMARK    5  A    between atoms: C_8  and  C_9
REMARK                            x       y       z     vdW  Elec       q    Type
REMARK                         _______ _______ _______ _____ _____    ______ ____
ROOT
ATOM      1  N   UNL     1      44.111   5.186  12.367  0.00  0.00    +0.000 N 
ATOM      2  C   UNL     1      45.432   5.590  12.567  0.00  0.00    +0.000 A 
ATOM      3  C   UNL     1      46.152   6.399  11.673  0.00  0.00    +0.000 A 
ATOM      4  N   UNL     1      47.418   6.848  11.876  0.00  0.00    +0.000 NA
ATOM      5  C   UNL     1      47.955   6.477  13.066  0.00  0.00    +0.000 A 
ATOM      6  C   UNL     1      47.264   5.679  13.967  0.00  0.00    +0.000 A 
ATOM      7  N   UNL     1      46.001   5.216  13.731  0.00  0.00    +0.000 NA
ATOM      8  H   UNL     1      43.918   4.441  13.032  0.00  0.00    +0.000 HD
ENDROOT
BRANCH   5   9
ATOM      9  C   UNL     1      49.324   6.963  13.387  0.00  0.00    +0.000 C 
ATOM     10  N   UNL     1      50.093   7.405  12.334  0.00  0.00    +0.000 N 
ATOM     11  O   UNL     1      49.752   6.979  14.535  0.00  0.00    +0.000 OA
ATOM     12  H   UNL     1      49.734   7.396  11.390  0.00  0.00    +0.000 HD
ATOM     13  H   UNL     1      51.015   7.760  12.522  0.00  0.00    +0.000 HD
ENDBRANCH   5   9
BRANCH   1  14
ATOM     14  C   UNL     1      43.661   5.001  11.009  0.00  0.00    +0.000 C 
BRANCH  14  16
ATOM     15  C   UNL     1      43.404   2.471  11.459  0.00  0.00    +0.000 C 
ATOM     16  C   UNL     1      43.848   3.581  10.545  0.00  0.00    +0.000 C 
BRANCH  16  17
ATOM     17  C   UNL     1      45.092   3.342   9.682  0.00  0.00    +0.000 C 
ATOM     18  C   UNL     1      45.332   4.429   8.614  0.00  0.00    +0.000 C 
ATOM     19  C   UNL     1      46.491   4.083   7.677  0.00  0.00    +0.000 C 
ATOM     20  C   UNL     1      46.299   2.710   7.043  0.00  0.00    +0.000 C 
ATOM     21  C   UNL     1      46.183   1.637   8.116  0.00  0.00    +0.000 C 
ATOM     22  C   UNL     1      45.032   1.931   9.067  0.00  0.00    +0.000 C 
ENDBRANCH  16  17
ENDBRANCH  14  16
ENDBRANCH   1  14
TORSDOF 4
ENDMDL
MODEL 4
REMARK VINA RESULT:    -6.757      4.344      7.033
REMARK INTER + INTRA:          -8.816
REMARK INTER:                  -8.472
REMARK INTRA:                  -0.344
REMARK UNBOUND:                -0.479
REMARK  Name = 
REMARK  5 active torsions:
REMARK  status: ('A' for Active; 'I' for Inactive)
REMARK    1  A    between atoms: C_1  and  C_2
REMARK    2  A    between atoms: C_2  and  C_3
REMARK    3  A    between atoms: C_2  and  C_14
REMARK    4  A    between atoms: C_3  and  N_4
REMARK    5  A    between atoms: C_8  and  C_9
REMARK                            x       y       z     vdW  Elec       q    Type
REMARK                         _______ _______ _______ _____ _____    ______ ____
ROOT
ATOM      1  N   UNL     1      45.358   4.824  12.877  0.00  0.00    +0.000 N 
ATOM      2  C   UNL     1      46.370   4.990  13.823  0.00  0.00    +0.000 A 
ATOM      3  C   UNL     1      47.304   6.039  13.801  0.00  0.00    +0.000 A 
ATOM      4  N   UNL     1      48.261   6.249  14.743  0.00  0.00    +0.000 NA
ATOM      5  C   UNL     1      48.234   5.362  15.770  0.00  0.00    +0.000 A 
ATOM      6  C   UNL     1      47.321   4.318  15.815  0.00  0.00    +0.000 A 
ATOM      7  N   UNL     1      46.384   4.109  14.844  0.00  0.00    +0.000 NA
ATOM      8  H   UNL     1      44.983   3.886  12.996  0.00  0.00    +0.000 HD
ENDROOT
BRANCH   5   9
ATOM      9  C   UNL     1      49.222   5.547  16.866  0.00  0.00    +0.000 C 
ATOM     10  N   UNL     1      48.727   5.913  18.097  0.00  0.00    +0.000 N 
ATOM     11  O   UNL     1      50.422   5.375  16.691  0.00  0.00    +0.000 OA
ATOM     12  H   UNL     1      47.737   6.047  18.240  0.00  0.00    +0.000 HD
ATOM     13  H   UNL     1      49.369   6.024  18.865  0.00  0.00    +0.000 HD
ENDBRANCH   5   9
BRANCH   1  14
ATOM     14  C   UNL     1      45.613   5.274  11.530  0.00  0.00    +0.000 C 
BRANCH  14  16
ATOM     15  C   UNL     1      43.042   5.284  11.288  0.00  0.00    +0.000 C 
ATOM     16  C   UNL     1      44.397   5.135  10.653  0.00  0.00    +0.000 C 
BRANCH  16  17
ATOM     17  C   UNL     1      44.542   4.130   9.503  0.00  0.00    +0.000 C 
ATOM     18  C   UNL     1      44.657   2.663   9.963  0.00  0.00    +0.000 C 
ATOM     19  C   UNL     1      44.949   1.707   8.805  0.00  0.00    +0.000 C 
ATOM     20  C   UNL     1      46.182   2.147   8.023  0.00  0.00    +0.000 C 
ATOM     21  C   UNL     1      45.996   3.555   7.477  0.00  0.00    +0.000 C 
ATOM     22  C   UNL     1      45.717   4.547   8.597  0.00  0.00    +0.000 C 
ENDBRANCH  16  17
ENDBRANCH  14  16
ENDBRANCH   1  14
TORSDOF 4
ENDMDL
MODEL 5
REMARK VINA RESULT:    -6.541      3.947      6.994
REMARK INTER + INTRA:          -8.549
REMARK INTER:                  -8.177
REMARK INTRA:                  -0.372
REMARK UNBOUND:                -0.479
REMARK  Name = 
REMARK  5 active torsions:
REMARK  status: ('A' for Active; 'I' for Inactive)
REMARK    1  A    between atoms: C_1  and  C_2
REMARK    2  A    between atoms: C_2  and  C_3
REMARK    3  A    between atoms: C_2  and  C_14
REMARK    4  A    between atoms: C_3  and  N_4
REMARK    5  A    between atoms: C_8  and  C_9
REMARK                            x       y       z     vdW  Elec       q    Type
REMARK                         _______ _______ _______ _____ _____    ______ ____
ROOT
ATOM      1  N   UNL     1      45.688   4.757  11.701  0.00  0.00    +0.000 N 
ATOM      2  C   UNL     1      46.340   5.809  12.348  0.00  0.00    +0.000 A 
ATOM      3  C   UNL     1      46.001   7.162  12.187  0.00  0.00    +0.000 A 
ATOM      4  N   UNL     1      46.587   8.194  12.849  0.00  0.00    +0.000 NA
ATOM      5  C   UNL     1      47.537   7.815  13.740  0.00  0.00    +0.000 A 
ATOM      6  C   UNL     1      47.889   6.485  13.918  0.00  0.00    +0.000 A 
ATOM      7  N   UNL     1      47.306   5.464  13.224  0.00  0.00    +0.000 NA
ATOM      8  H   UNL     1      46.265   3.928  11.815  0.00  0.00    +0.000 HD
ENDROOT
BRANCH   5   9
ATOM      9  C   UNL     1      48.198   8.883  14.539  0.00  0.00    +0.000 C 
ATOM     10  N   UNL     1      47.567   9.278  15.696  0.00  0.00    +0.000 N 
ATOM     11  O   UNL     1      49.261   9.385  14.193  0.00  0.00    +0.000 OA
ATOM     12  H   UNL     1      46.695   8.857  15.982  0.00  0.00    +0.000 HD
ATOM     13  H   UNL     1      48.000   9.983  16.269  0.00  0.00    +0.000 HD
ENDBRANCH   5   9
BRANCH   1  14
ATOM     14  C   UNL     1      45.133   5.009  10.394  0.00  0.00    +0.000 C 
BRANCH  14  16
ATOM     15  C   UNL     1      43.703   2.907  10.844  0.00  0.00    +0.000 C 
ATOM     16  C   UNL     1      44.390   3.814   9.860  0.00  0.00    +0.000 C 
BRANCH  16  17
ATOM     17  C   UNL     1      45.006   3.177   8.609  0.00  0.00    +0.000 C 
ATOM     18  C   UNL     1      45.669   1.808   8.865  0.00  0.00    +0.000 C 
ATOM     19  C   UNL     1      46.400   1.273   7.632  0.00  0.00    +0.000 C 
ATOM     20  C   UNL     1      47.404   2.290   7.100  0.00  0.00    +0.000 C 
ATOM     21  C   UNL     1      46.706   3.594   6.742  0.00  0.00    +0.000 C 
ATOM     22  C   UNL     1      45.974   4.174   7.944  0.00  0.00    +0.000 C 
ENDBRANCH  16  17
ENDBRANCH  14  16
ENDBRANCH   1  14
TORSDOF 4
ENDMDL
MODEL 6
REMARK VINA RESULT:    -6.173      4.469      6.665
REMARK INTER + INTRA:          -8.095
REMARK INTER:                  -7.676
REMARK INTRA:                  -0.419
REMARK UNBOUND:                -0.479
REMARK  Name = 
REMARK  5 active torsions:
REMARK  status: ('A' for Active; 'I' for Inactive)
REMARK    1  A    between atoms: C_1  and  C_2
REMARK    2  A    between atoms: C_2  and  C_3
REMARK    3  A    between atoms: C_2  and  C_14
REMARK    4  A    between atoms: C_3  and  N_4
REMARK    5  A    between atoms: C_8  and  C_9
REMARK                            x       y       z     vdW  Elec       q    Type
REMARK                         _______ _______ _______ _____ _____    ______ ____
ROOT
ATOM      1  N   UNL     1      48.101   6.687  12.707  0.00  0.00    +0.000 N 
ATOM      2  C   UNL     1      47.879   5.865  13.813  0.00  0.00    +0.000 A 
ATOM      3  C   UNL     1      47.298   4.588  13.741  0.00  0.00    +0.000 A 
ATOM      4  N   UNL     1      47.125   3.751  14.797  0.00  0.00    +0.000 NA
ATOM      5  C   UNL     1      47.602   4.234  15.972  0.00  0.00    +0.000 A 
ATOM      6  C   UNL     1      48.181   5.491  16.070  0.00  0.00    +0.000 A 
ATOM      7  N   UNL     1      48.322   6.328  15.000  0.00  0.00    +0.000 NA
ATOM      8  H   UNL     1      48.314   7.617  13.059  0.00  0.00    +0.000 HD
ENDROOT
BRANCH   5   9
ATOM      9  C   UNL     1      47.491   3.361  17.172  0.00  0.00    +0.000 C 
ATOM     10  N   UNL     1      48.618   3.221  17.949  0.00  0.00    +0.000 N 
ATOM     11  O   UNL     1      46.444   2.796  17.466  0.00  0.00    +0.000 OA
ATOM     12  H   UNL     1      49.476   3.694  17.708  0.00  0.00    +0.000 HD
ATOM     13  H   UNL     1      48.568   2.655  18.780  0.00  0.00    +0.000 HD
ENDBRANCH   5   9
BRANCH   1  14
ATOM     14  C   UNL     1      47.183   6.588  11.598  0.00  0.00    +0.000 C 
BRANCH  14  16
ATOM     15  C   UNL     1      45.870   8.342  12.964  0.00  0.00    +0.000 C 
ATOM     16  C   UNL     1      45.888   7.302  11.877  0.00  0.00    +0.000 C 
BRANCH  16  17
ATOM     17  C   UNL     1      44.626   6.454  11.678  0.00  0.00    +0.000 C 
ATOM     18  C   UNL     1      44.025   5.906  12.988  0.00  0.00    +0.000 C 
ATOM     19  C   UNL     1      42.860   4.946  12.741  0.00  0.00    +0.000 C 
ATOM     20  C   UNL     1      43.263   3.819  11.798  0.00  0.00    +0.000 C 
ATOM     21  C   UNL     1      43.741   4.380  10.466  0.00  0.00    +0.000 C 
ATOM     22  C   UNL     1      44.912   5.333  10.659  0.00  0.00    +0.000 C 
ENDBRANCH  16  17
ENDBRANCH  14  16
ENDBRANCH   1  14
TORSDOF 4
ENDMDL
MODEL 7
REMARK VINA RESULT:    -6.084      5.198      7.476
REMARK INTER + INTRA:          -7.986
REMARK INTER:                  -7.638
REMARK INTRA:                  -0.348
REMARK UNBOUND:                -0.479
REMARK  Name = 
REMARK  5 active torsions:
REMARK  status: ('A' for Active; 'I' for Inactive)
REMARK    1  A    between atoms: C_1  and  C_2
REMARK    2  A    between atoms: C_2  and  C_3
REMARK    3  A    between atoms: C_2  and  C_14
REMARK    4  A    between atoms: C_3  and  N_4
REMARK    5  A    between atoms: C_8  and  C_9
REMARK                            x       y       z     vdW  Elec       q    Type
REMARK                         _______ _______ _______ _____ _____    ______ ____
ROOT
ATOM      1  N   UNL     1      46.135   4.483  14.279  0.00  0.00    +0.000 N 
ATOM      2  C   UNL     1      47.202   4.392  15.175  0.00  0.00    +0.000 A 
ATOM      3  C   UNL     1      47.953   5.493  15.618  0.00  0.00    +0.000 A 
ATOM      4  N   UNL     1      48.958   5.432  16.532  0.00  0.00    +0.000 NA
ATOM      5  C   UNL     1      49.176   4.191  17.036  0.00  0.00    +0.000 A 
ATOM      6  C   UNL     1      48.447   3.089  16.616  0.00  0.00    +0.000 A 
ATOM      7  N   UNL     1      47.458   3.167  15.677  0.00  0.00    +0.000 NA
ATOM      8  H   UNL     1      45.926   3.540  13.962  0.00  0.00    +0.000 HD
ENDROOT
BRANCH   5   9
ATOM      9  C   UNL     1      50.231   4.045  18.075  0.00  0.00    +0.000 C 
ATOM     10  N   UNL     1      49.814   3.988  19.385  0.00  0.00    +0.000 N 
ATOM     11  O   UNL     1      51.419   3.970  17.784  0.00  0.00    +0.000 OA
ATOM     12  H   UNL     1      48.834   4.043  19.621  0.00  0.00    +0.000 HD
ATOM     13  H   UNL     1      50.503   3.867  20.109  0.00  0.00    +0.000 HD
ENDBRANCH   5   9
BRANCH   1  14
ATOM     14  C   UNL     1      46.176   5.527  13.285  0.00  0.00    +0.000 C 
BRANCH  14  16
ATOM     15  C   UNL     1      43.644   5.371  12.805  0.00  0.00    +0.000 C 
ATOM     16  C   UNL     1      45.057   5.396  12.288  0.00  0.00    +0.000 C 
BRANCH  16  17
ATOM     17  C   UNL     1      45.384   4.541  11.058  0.00  0.00    +0.000 C 
ATOM     18  C   UNL     1      45.561   5.352   9.759  0.00  0.00    +0.000 C 
ATOM     19  C   UNL     1      45.738   4.458   8.530  0.00  0.00    +0.000 C 
ATOM     20  C   UNL     1      44.598   3.453   8.409  0.00  0.00    +0.000 C 
ATOM     21  C   UNL     1      44.518   2.582   9.655  0.00  0.00    +0.000 C 
ATOM     22  C   UNL     1      44.328   3.429  10.906  0.00  0.00    +0.000 C 
ENDBRANCH  16  17
ENDBRANCH  14  16
ENDBRANCH   1  14
TORSDOF 4
ENDMDL
MODEL 8
REMARK VINA RESULT:    -6.011      4.576      6.529
REMARK INTER + INTRA:          -7.895
REMARK INTER:                  -7.592
REMARK INTRA:                  -0.303
REMARK UNBOUND:                -0.479
REMARK  Name = 
REMARK  5 active torsions:
REMARK  status: ('A' for Active; 'I' for Inactive)
REMARK    1  A    between atoms: C_1  and  C_2
REMARK    2  A    between atoms: C_2  and  C_3
REMARK    3  A    between atoms: C_2  and  C_14
REMARK    4  A    between atoms: C_3  and  N_4
REMARK    5  A    between atoms: C_8  and  C_9
REMARK                            x       y       z     vdW  Elec       q    Type
REMARK                         _______ _______ _______ _____ _____    ______ ____
ROOT
ATOM      1  N   UNL     1      47.266   3.546  14.717  0.00  0.00    +0.000 N 
ATOM      2  C   UNL     1      46.334   3.956  13.763  0.00  0.00    +0.000 A 
ATOM      3  C   UNL     1      45.951   5.292  13.561  0.00  0.00    +0.000 A 
ATOM      4  N   UNL     1      45.088   5.717  12.601  0.00  0.00    +0.000 NA
ATOM      5  C   UNL     1      44.625   4.730  11.793  0.00  0.00    +0.000 A 
ATOM      6  C   UNL     1      44.989   3.403  11.971  0.00  0.00    +0.000 A 
ATOM      7  N   UNL     1      45.838   2.993  12.959  0.00  0.00    +0.000 NA
ATOM      8  H   UNL     1      47.186   2.536  14.803  0.00  0.00    +0.000 HD
ENDROOT
BRANCH   5   9
ATOM      9  C   UNL     1      43.707   5.117  10.688  0.00  0.00    +0.000 C 
ATOM     10  N   UNL     1      44.073   4.748   9.414  0.00  0.00    +0.000 N 
ATOM     11  O   UNL     1      42.666   5.729  10.896  0.00  0.00    +0.000 OA
ATOM     12  H   UNL     1      44.928   4.237   9.247  0.00  0.00    +0.000 HD
ATOM     13  H   UNL     1      43.462   4.977   8.647  0.00  0.00    +0.000 HD
ENDBRANCH   5   9
BRANCH   1  14
ATOM     14  C   UNL     1      47.369   4.313  15.934  0.00  0.00    +0.000 C 
BRANCH  14  16
ATOM     15  C   UNL     1      48.804   2.296  16.667  0.00  0.00    +0.000 C 
ATOM     16  C   UNL     1      48.368   3.718  16.890  0.00  0.00    +0.000 C 
BRANCH  16  17
ATOM     17  C   UNL     1      48.252   4.213  18.336  0.00  0.00    +0.000 C 
ATOM     18  C   UNL     1      47.356   5.456  18.504  0.00  0.00    +0.000 C 
ATOM     19  C   UNL     1      47.382   6.009  19.930  0.00  0.00    +0.000 C 
ATOM     20  C   UNL     1      48.810   6.284  20.389  0.00  0.00    +0.000 C 
ATOM     21  C   UNL     1      49.646   5.014  20.328  0.00  0.00    +0.000 C 
ATOM     22  C   UNL     1      49.661   4.432  18.922  0.00  0.00    +0.000 C 
ENDBRANCH  16  17
ENDBRANCH  14  16
ENDBRANCH   1  14
TORSDOF 4
ENDMDL
MODEL 9
REMARK VINA RESULT:    -5.680      3.750      5.834
REMARK INTER + INTRA:          -7.488
REMARK INTER:                  -7.104
REMARK INTRA:                  -0.384
REMARK UNBOUND:                -0.479
REMARK  Name = 
REMARK  5 active torsions:
REMARK  status: ('A' for Active; 'I' for Inactive)
REMARK    1  A    between atoms: C_1  and  C_2
REMARK    2  A    between atoms: C_2  and  C_3
REMARK    3  A    between atoms: C_2  and  C_14
REMARK    4  A    between atoms: C_3  and  N_4
REMARK    5  A    between atoms: C_8  and  C_9
REMARK                            x       y       z     vdW  Elec       q    Type
REMARK                         _______ _______ _______ _____ _____    ______ ____
ROOT
ATOM      1  N   UNL     1      47.306   6.753  13.885  0.00  0.00    +0.000 N 
ATOM      2  C   UNL     1      46.547   5.826  13.169  0.00  0.00    +0.000 A 
ATOM      3  C   UNL     1      46.413   4.474  13.526  0.00  0.00    +0.000 A 
ATOM      4  N   UNL     1      45.635   3.570  12.875  0.00  0.00    +0.000 NA
ATOM      5  C   UNL     1      44.939   4.087  11.831  0.00  0.00    +0.000 A 
ATOM      6  C   UNL     1      45.052   5.418  11.459  0.00  0.00    +0.000 A 
ATOM      7  N   UNL     1      45.860   6.305  12.112  0.00  0.00    +0.000 NA
ATOM      8  H   UNL     1      47.413   7.575  13.297  0.00  0.00    +0.000 HD
ENDROOT
BRANCH   5   9
ATOM      9  C   UNL     1      44.029   3.173  11.089  0.00  0.00    +0.000 C 
ATOM     10  N   UNL     1      43.434   2.163  11.811  0.00  0.00    +0.000 N 
ATOM     11  O   UNL     1      43.808   3.311   9.892  0.00  0.00    +0.000 OA
ATOM     12  H   UNL     1      43.612   2.056  12.799  0.00  0.00    +0.000 HD
ATOM     13  H   UNL     1      42.796   1.542  11.341  0.00  0.00    +0.000 HD
ENDBRANCH   5   9
BRANCH   1  14
ATOM     14  C   UNL     1      48.475   6.274  14.581  0.00  0.00    +0.000 C 
BRANCH  14  16
ATOM     15  C   UNL     1      48.871   8.040  16.422  0.00  0.00    +0.000 C 
ATOM     16  C   UNL     1      48.452   6.647  16.039  0.00  0.00    +0.000 C 
BRANCH  16  17
ATOM     17  C   UNL     1      48.794   5.506  17.004  0.00  0.00    +0.000 C 
ATOM     18  C   UNL     1      50.299   5.181  17.081  0.00  0.00    +0.000 C 
ATOM     19  C   UNL     1      50.588   3.944  17.935  0.00  0.00    +0.000 C 
ATOM     20  C   UNL     1      49.781   2.742  17.458  0.00  0.00    +0.000 C 
ATOM     21  C   UNL     1      48.290   3.046  17.504  0.00  0.00    +0.000 C 
ATOM     22  C   UNL     1      47.951   4.264  16.655  0.00  0.00    +0.000 C 
ENDBRANCH  16  17
ENDBRANCH  14  16
ENDBRANCH   1  14
TORSDOF 4
ENDMDL
