MODEL 1
REMARK VINA RESULT:    -9.511      0.000      0.000
REMARK INTER + INTRA:         -14.552
REMARK INTER:                 -13.404
REMARK INTRA:                  -1.148
REMARK UNBOUND:                -1.148
REMARK  Name = 
REMARK  7 active torsions:
REMARK  status: ('A' for Active; 'I' for Inactive)
REMARK    1  A    between atoms: C_2  and  C_4
REMARK    2  A    between atoms: C_7  and  N_8
REMARK    3  A    between atoms: N_8  and  C_9
REMARK    4  A    between atoms: C_9  and  C_10
REMARK    5  A    between atoms: C_10  and  C_13
REMARK    6  A    between atoms: C_15  and  C_16
REMARK    7  A    between atoms: C_20  and  C_21
REMARK                            x       y       z     vdW  Elec       q    Type
REMARK                         _______ _______ _______ _____ _____    ______ ____
ROOT
ATOM      1  C   UNL     1      43.385   5.189  12.436  0.00  0.00    +0.000 C 
ATOM      2  F   UNL     1      42.887   6.378  11.981  0.00  0.00    +0.000 F 
ATOM      3  F   UNL     1      42.555   4.834  13.473  0.00  0.00    +0.000 F 
ENDROOT
BRANCH   1   4
ATOM      4  C   UNL     1      44.834   5.325  12.885  0.00  0.00    +0.000 A 
ATOM      5  C   UNL     1      45.582   6.404  12.417  0.00  0.00    +0.000 A 
ATOM      6  C   UNL     1      46.941   6.524  12.745  0.00  0.00    +0.000 A 
ATOM      7  C   UNL     1      47.490   5.515  13.546  0.00  0.00    +0.000 A 
ATOM      8  C   UNL     1      46.683   4.479  13.987  0.00  0.00    +0.000 A 
ATOM      9  N   UNL     1      45.378   4.365  13.679  0.00  0.00    +0.000 NA
BRANCH   6  10
ATOM     10  C   UNL     1      47.744   7.677  12.279  0.00  0.00    +0.000 A 
ATOM     11  C   UNL     1      47.204   8.976  12.234  0.00  0.00    +0.000 A 
ATOM     12  C   UNL     1      47.970  10.072  11.828  0.00  0.00    +0.000 A 
ATOM     13  C   UNL     1      49.300   9.891  11.462  0.00  0.00    +0.000 A 
ATOM     14  C   UNL     1      49.869   8.617  11.504  0.00  0.00    +0.000 A 
ATOM     15  C   UNL     1      49.088   7.519  11.889  0.00  0.00    +0.000 A 
BRANCH  14  16
ATOM     16  C   UNL     1      51.304   8.473  11.141  0.00  0.00    +0.000 C 
ATOM     17  N   UNL     1      51.762   7.215  10.859  0.00  0.00    +0.000 N 
ATOM     18  O   UNL     1      52.063   9.430  11.144  0.00  0.00    +0.000 OA
ATOM     19  H   UNL     1      51.238   6.376  11.055  0.00  0.00    +0.000 HD
ATOM     20  H   UNL     1      52.765   7.125  10.750  0.00  0.00    +0.000 HD
ENDBRANCH  14  16
ENDBRANCH   6  10
ENDBRANCH   1   4
BRANCH   1  21
ATOM     21  C   UNL     1      43.236   4.116  11.337  0.00  0.00    +0.000 C 
BRANCH  21  22
ATOM     22  N   UNL     1      43.662   4.594  10.008  0.00  0.00    +0.000 N 
ATOM     23  H   UNL     1      42.921   4.996   9.436  0.00  0.00    +0.000 HD
BRANCH  22  27
ATOM     24  C   UNL     1      46.489   2.473   7.717  0.00  0.00    +0.000 A 
ATOM     25  C   UNL     1      46.424   3.865   7.611  0.00  0.00    +0.000 A 
ATOM     26  C   UNL     1      45.503   4.583   8.381  0.00  0.00    +0.000 A 
ATOM     27  C   UNL     1      44.656   3.938   9.290  0.00  0.00    +0.000 A 
ATOM     28  C   UNL     1      44.722   2.542   9.370  0.00  0.00    +0.000 A 
ATOM     29  C   UNL     1      45.623   1.811   8.590  0.00  0.00    +0.000 A 
BRANCH  24  31
ATOM     30  N   UNL     1      48.528   2.321   6.402  0.00  0.00    +0.000 N 
ATOM     31  C   UNL     1      47.427   1.674   6.891  0.00  0.00    +0.000 C 
ATOM     32  O   UNL     1      47.249   0.481   6.684  0.00  0.00    +0.000 OA
ATOM     33  H   UNL     1      49.214   1.742   5.933  0.00  0.00    +0.000 HD
ATOM     34  H   UNL     1      48.832   3.213   6.763  0.00  0.00    +0.000 HD
ENDBRANCH  24  31
ENDBRANCH  22  27
ENDBRANCH  21  22
ENDBRANCH   1  21
TORSDOF 7
ENDMDL
MODEL 2
REMARK VINA RESULT:    -9.264      2.877      4.178
REMARK INTER + INTRA:         -14.202
REMARK INTER:                 -12.970
REMARK INTRA:                  -1.232
REMARK UNBOUND:                -1.148
REMARK  Name = 
REMARK  7 active torsions:
REMARK  status: ('A' for Active; 'I' for Inactive)
REMARK    1  A    between atoms: C_2  and  C_4
REMARK    2  A    between atoms: C_7  and  N_8
REMARK    3  A    between atoms: N_8  and  C_9
REMARK    4  A    between atoms: C_9  and  C_10
REMARK    5  A    between atoms: C_10  and  C_13
REMARK    6  A    between atoms: C_15  and  C_16
REMARK    7  A    between atoms: C_20  and  C_21
REMARK                            x       y       z     vdW  Elec       q    Type
REMARK                         _______ _______ _______ _____ _____    ______ ____
ROOT
ATOM      1  C   UNL     1      43.427   5.305  12.175  0.00  0.00    +0.000 C 
ATOM      2  F   UNL     1      42.625   6.245  11.589  0.00  0.00    +0.000 F 
ATOM      3  F   UNL     1      42.884   5.108  13.422  0.00  0.00    +0.000 F 
ENDROOT
BRANCH   1   4
ATOM      4  C   UNL     1      44.875   5.775  12.250  0.00  0.00    +0.000 A 
ATOM      5  C   UNL     1      45.602   5.522  13.413  0.00  0.00    +0.000 A 
ATOM      6  C   UNL     1      46.912   6.005  13.551  0.00  0.00    +0.000 A 
ATOM      7  C   UNL     1      47.432   6.744  12.481  0.00  0.00    +0.000 A 
ATOM      8  C   UNL     1      46.657   6.943  11.350  0.00  0.00    +0.000 A 
ATOM      9  N   UNL     1      45.402   6.476  11.212  0.00  0.00    +0.000 NA
BRANCH   6  10
ATOM     10  C   UNL     1      47.709   5.724  14.768  0.00  0.00    +0.000 A 
ATOM     11  C   UNL     1      48.751   6.578  15.175  0.00  0.00    +0.000 A 
ATOM     12  C   UNL     1      49.481   6.335  16.341  0.00  0.00    +0.000 A 
ATOM     13  C   UNL     1      49.178   5.231  17.132  0.00  0.00    +0.000 A 
ATOM     14  C   UNL     1      48.143   4.370  16.762  0.00  0.00    +0.000 A 
ATOM     15  C   UNL     1      47.431   4.606  15.577  0.00  0.00    +0.000 A 
BRANCH  14  16
ATOM     16  C   UNL     1      47.827   3.223  17.654  0.00  0.00    +0.000 C 
ATOM     17  N   UNL     1      48.812   2.785  18.497  0.00  0.00    +0.000 N 
ATOM     18  O   UNL     1      46.747   2.655  17.605  0.00  0.00    +0.000 OA
ATOM     19  H   UNL     1      49.776   3.073  18.419  0.00  0.00    +0.000 HD
ATOM     20  H   UNL     1      48.618   1.924  18.991  0.00  0.00    +0.000 HD
ENDBRANCH  14  16
ENDBRANCH   6  10
ENDBRANCH   1   4
BRANCH   1  21
ATOM     21  C   UNL     1      43.309   3.975  11.403  0.00  0.00    +0.000 C 
BRANCH  21  22
ATOM     22  N   UNL     1      43.426   4.148   9.943  0.00  0.00    +0.000 N 
ATOM     23  H   UNL     1      42.542   4.144   9.435  0.00  0.00    +0.000 HD
BRANCH  22  27
ATOM     24  C   UNL     1      46.514   2.388   7.683  0.00  0.00    +0.000 A 
ATOM     25  C   UNL     1      46.307   3.768   7.605  0.00  0.00    +0.000 A 
ATOM     26  C   UNL     1      45.297   4.367   8.365  0.00  0.00    +0.000 A 
ATOM     27  C   UNL     1      44.500   3.616   9.238  0.00  0.00    +0.000 A 
ATOM     28  C   UNL     1      44.710   2.233   9.289  0.00  0.00    +0.000 A 
ATOM     29  C   UNL     1      45.701   1.618   8.518  0.00  0.00    +0.000 A 
BRANCH  24  31
ATOM     30  N   UNL     1      48.646   2.451   6.516  0.00  0.00    +0.000 N 
ATOM     31  C   UNL     1      47.550   1.711   6.866  0.00  0.00    +0.000 C 
ATOM     32  O   UNL     1      47.454   0.533   6.547  0.00  0.00    +0.000 OA
ATOM     33  H   UNL     1      49.393   1.949   6.053  0.00  0.00    +0.000 HD
ATOM     34  H   UNL     1      48.874   3.322   6.971  0.00  0.00    +0.000 HD
ENDBRANCH  24  31
ENDBRANCH  22  27
ENDBRANCH  21  22
ENDBRANCH   1  21
TORSDOF 7
ENDMDL
MODEL 3
REMARK VINA RESULT:    -8.819      2.474      3.346
REMARK INTER + INTRA:         -13.576
REMARK INTER:                 -12.362
REMARK INTRA:                  -1.214
REMARK UNBOUND:                -1.148
REMARK  Name = 
REMARK  7 active torsions:
REMARK  status: ('A' for Active; 'I' for Inactive)
REMARK    1  A    between atoms: C_2  and  C_4
REMARK    2  A    between atoms: C_7  and  N_8
REMARK    3  A    between atoms: N_8  and  C_9
REMARK    4  A    between atoms: C_9  and  C_10
REMARK    5  A    between atoms: C_10  and  C_13
REMARK    6  A    between atoms: C_15  and  C_16
REMARK    7  A    between atoms: C_20  and  C_21
REMARK                            x       y       z     vdW  Elec       q    Type
REMARK                         _______ _______ _______ _____ _____    ______ ____
ROOT
ATOM      1  C   UNL     1      43.848   4.772  12.425  0.00  0.00    +0.000 C 
ATOM      2  F   UNL     1      42.954   4.859  13.456  0.00  0.00    +0.000 F 
ATOM      3  F   UNL     1      44.576   3.635  12.687  0.00  0.00    +0.000 F 
ENDROOT
BRANCH   1   4
ATOM      4  C   UNL     1      44.731   6.011  12.345  0.00  0.00    +0.000 A 
ATOM      5  C   UNL     1      45.934   6.023  13.050  0.00  0.00    +0.000 A 
ATOM      6  C   UNL     1      46.738   7.172  13.064  0.00  0.00    +0.000 A 
ATOM      7  C   UNL     1      46.270   8.283  12.351  0.00  0.00    +0.000 A 
ATOM      8  C   UNL     1      45.072   8.194  11.661  0.00  0.00    +0.000 A 
ATOM      9  N   UNL     1      44.301   7.090  11.640  0.00  0.00    +0.000 NA
BRANCH   6  10
ATOM     10  C   UNL     1      48.032   7.195  13.786  0.00  0.00    +0.000 A 
ATOM     11  C   UNL     1      49.103   7.994  13.345  0.00  0.00    +0.000 A 
ATOM     12  C   UNL     1      50.312   8.045  14.044  0.00  0.00    +0.000 A 
ATOM     13  C   UNL     1      50.473   7.298  15.206  0.00  0.00    +0.000 A 
ATOM     14  C   UNL     1      49.426   6.502  15.676  0.00  0.00    +0.000 A 
ATOM     15  C   UNL     1      48.225   6.437  14.957  0.00  0.00    +0.000 A 
BRANCH  14  16
ATOM     16  C   UNL     1      49.626   5.749  16.943  0.00  0.00    +0.000 C 
ATOM     17  N   UNL     1      49.241   6.355  18.107  0.00  0.00    +0.000 N 
ATOM     18  O   UNL     1      50.162   4.651  16.956  0.00  0.00    +0.000 OA
ATOM     19  H   UNL     1      49.002   7.333  18.171  0.00  0.00    +0.000 HD
ATOM     20  H   UNL     1      49.512   5.883  18.960  0.00  0.00    +0.000 HD
ENDBRANCH  14  16
ENDBRANCH   6  10
ENDBRANCH   1   4
BRANCH   1  21
ATOM     21  C   UNL     1      43.087   4.539  11.103  0.00  0.00    +0.000 C 
BRANCH  21  22
ATOM     22  N   UNL     1      43.860   4.949   9.916  0.00  0.00    +0.000 N 
ATOM     23  H   UNL     1      43.429   5.678   9.351  0.00  0.00    +0.000 HD
BRANCH  22  27
ATOM     24  C   UNL     1      46.365   2.279   7.833  0.00  0.00    +0.000 A 
ATOM     25  C   UNL     1      45.437   1.777   8.750  0.00  0.00    +0.000 A 
ATOM     26  C   UNL     1      44.587   2.652   9.433  0.00  0.00    +0.000 A 
ATOM     27  C   UNL     1      44.618   4.031   9.197  0.00  0.00    +0.000 A 
ATOM     28  C   UNL     1      45.566   4.518   8.289  0.00  0.00    +0.000 A 
ATOM     29  C   UNL     1      46.437   3.657   7.615  0.00  0.00    +0.000 A 
BRANCH  24  31
ATOM     30  N   UNL     1      48.310   1.990   6.405  0.00  0.00    +0.000 N 
ATOM     31  C   UNL     1      47.308   1.388   7.115  0.00  0.00    +0.000 C 
ATOM     32  O   UNL     1      47.223   0.169   7.181  0.00  0.00    +0.000 OA
ATOM     33  H   UNL     1      49.010   1.373   6.010  0.00  0.00    +0.000 HD
ATOM     34  H   UNL     1      48.559   2.959   6.540  0.00  0.00    +0.000 HD
ENDBRANCH  24  31
ENDBRANCH  22  27
ENDBRANCH  21  22
ENDBRANCH   1  21
TORSDOF 7
ENDMDL
MODEL 4
REMARK VINA RESULT:    -8.783      2.818      3.931
REMARK INTER + INTRA:         -13.525
REMARK INTER:                 -13.023
REMARK INTRA:                  -0.502
REMARK UNBOUND:                -1.148
REMARK  Name = 
REMARK  7 active torsions:
REMARK  status: ('A' for Active; 'I' for Inactive)
REMARK    1  A    between atoms: C_2  and  C_4
REMARK    2  A    between atoms: C_7  and  N_8
REMARK    3  A    between atoms: N_8  and  C_9
REMARK    4  A    between atoms: C_9  and  C_10
REMARK    5  A    between atoms: C_10  and  C_13
REMARK    6  A    between atoms: C_15  and  C_16
REMARK    7  A    between atoms: C_20  and  C_21
REMARK                            x       y       z     vdW  Elec       q    Type
REMARK                         _______ _______ _______ _____ _____    ______ ____
ROOT
ATOM      1  C   UNL     1      43.901   4.062  12.552  0.00  0.00    +0.000 C 
ATOM      2  F   UNL     1      43.037   4.010  13.610  0.00  0.00    +0.000 F 
ATOM      3  F   UNL     1      44.476   2.814  12.507  0.00  0.00    +0.000 F 
ENDROOT
BRANCH   1   4
ATOM      4  C   UNL     1      44.939   5.163  12.732  0.00  0.00    +0.000 A 
ATOM      5  C   UNL     1      44.646   6.444  12.265  0.00  0.00    +0.000 A 
ATOM      6  C   UNL     1      45.603   7.466  12.342  0.00  0.00    +0.000 A 
ATOM      7  C   UNL     1      46.844   7.131  12.897  0.00  0.00    +0.000 A 
ATOM      8  C   UNL     1      47.061   5.841  13.355  0.00  0.00    +0.000 A 
ATOM      9  N   UNL     1      46.142   4.860  13.288  0.00  0.00    +0.000 NA
BRANCH   6  10
ATOM     10  C   UNL     1      45.300   8.838  11.874  0.00  0.00    +0.000 A 
ATOM     11  C   UNL     1      46.138   9.923  12.193  0.00  0.00    +0.000 A 
ATOM     12  C   UNL     1      45.874  11.212  11.724  0.00  0.00    +0.000 A 
ATOM     13  C   UNL     1      44.764  11.443  10.917  0.00  0.00    +0.000 A 
ATOM     14  C   UNL     1      43.919  10.387  10.574  0.00  0.00    +0.000 A 
ATOM     15  C   UNL     1      44.176   9.100  11.068  0.00  0.00    +0.000 A 
BRANCH  14  16
ATOM     16  C   UNL     1      42.765  10.669   9.678  0.00  0.00    +0.000 C 
ATOM     17  N   UNL     1      41.521  10.719  10.245  0.00  0.00    +0.000 N 
ATOM     18  O   UNL     1      42.910  10.799   8.472  0.00  0.00    +0.000 OA
ATOM     19  H   UNL     1      41.325  10.404  11.183  0.00  0.00    +0.000 HD
ATOM     20  H   UNL     1      40.745  10.776   9.598  0.00  0.00    +0.000 HD
ENDBRANCH  14  16
ENDBRANCH   6  10
ENDBRANCH   1   4
BRANCH   1  21
ATOM     21  C   UNL     1      43.103   4.252  11.245  0.00  0.00    +0.000 C 
BRANCH  21  22
ATOM     22  N   UNL     1      43.929   4.771  10.139  0.00  0.00    +0.000 N 
ATOM     23  H   UNL     1      43.543   5.580   9.655  0.00  0.00    +0.000 HD
BRANCH  22  27
ATOM     24  C   UNL     1      46.400   2.289   7.801  0.00  0.00    +0.000 A 
ATOM     25  C   UNL     1      45.493   1.710   8.692  0.00  0.00    +0.000 A 
ATOM     26  C   UNL     1      44.654   2.523   9.460  0.00  0.00    +0.000 A 
ATOM     27  C   UNL     1      44.675   3.917   9.335  0.00  0.00    +0.000 A 
ATOM     28  C   UNL     1      45.603   4.480   8.450  0.00  0.00    +0.000 A 
ATOM     29  C   UNL     1      46.463   3.680   7.692  0.00  0.00    +0.000 A 
BRANCH  24  31
ATOM     30  N   UNL     1      48.380   2.111   6.400  0.00  0.00    +0.000 N 
ATOM     31  C   UNL     1      47.333   1.463   6.995  0.00  0.00    +0.000 C 
ATOM     32  O   UNL     1      47.199   0.250   6.894  0.00  0.00    +0.000 OA
ATOM     33  H   UNL     1      49.068   1.524   5.946  0.00  0.00    +0.000 HD
ATOM     34  H   UNL     1      48.660   3.042   6.672  0.00  0.00    +0.000 HD
ENDBRANCH  24  31
ENDBRANCH  22  27
ENDBRANCH  21  22
ENDBRANCH   1  21
TORSDOF 7
ENDMDL
MODEL 5
REMARK VINA RESULT:    -8.709      3.208      4.992
REMARK INTER + INTRA:         -13.421
REMARK INTER:                 -12.445
REMARK INTRA:                  -0.975
REMARK UNBOUND:                -1.148
REMARK  Name = 
REMARK  7 active torsions:
REMARK  status: ('A' for Active; 'I' for Inactive)
REMARK    1  A    between atoms: C_2  and  C_4
REMARK    2  A    between atoms: C_7  and  N_8
REMARK    3  A    between atoms: N_8  and  C_9
REMARK    4  A    between atoms: C_9  and  C_10
REMARK    5  A    between atoms: C_10  and  C_13
REMARK    6  A    between atoms: C_15  and  C_16
REMARK    7  A    between atoms: C_20  and  C_21
REMARK                            x       y       z     vdW  Elec       q    Type
REMARK                         _______ _______ _______ _____ _____    ______ ____
ROOT
ATOM      1  C   UNL     1      44.303   5.038  12.440  0.00  0.00    +0.000 C 
ATOM      2  F   UNL     1      43.285   5.506  13.223  0.00  0.00    +0.000 F 
ATOM      3  F   UNL     1      44.098   3.680  12.372  0.00  0.00    +0.000 F 
ENDROOT
BRANCH   1   4
ATOM      4  C   UNL     1      45.665   5.382  13.029  0.00  0.00    +0.000 A 
ATOM      5  C   UNL     1      46.053   4.771  14.221  0.00  0.00    +0.000 A 
ATOM      6  C   UNL     1      47.266   5.118  14.836  0.00  0.00    +0.000 A 
ATOM      7  C   UNL     1      48.042   6.095  14.200  0.00  0.00    +0.000 A 
ATOM      8  C   UNL     1      47.600   6.649  13.009  0.00  0.00    +0.000 A 
ATOM      9  N   UNL     1      46.440   6.313  12.414  0.00  0.00    +0.000 NA
BRANCH   6  10
ATOM     10  C   UNL     1      47.706   4.462  16.088  0.00  0.00    +0.000 A 
ATOM     11  C   UNL     1      48.009   3.088  16.128  0.00  0.00    +0.000 A 
ATOM     12  C   UNL     1      48.459   2.473  17.299  0.00  0.00    +0.000 A 
ATOM     13  C   UNL     1      48.620   3.224  18.459  0.00  0.00    +0.000 A 
ATOM     14  C   UNL     1      48.337   4.591  18.451  0.00  0.00    +0.000 A 
ATOM     15  C   UNL     1      47.864   5.196  17.279  0.00  0.00    +0.000 A 
BRANCH  14  16
ATOM     16  C   UNL     1      48.559   5.365  19.702  0.00  0.00    +0.000 C 
ATOM     17  N   UNL     1      47.881   4.967  20.822  0.00  0.00    +0.000 N 
ATOM     18  O   UNL     1      49.278   6.352  19.723  0.00  0.00    +0.000 OA
ATOM     19  H   UNL     1      47.119   4.306  20.803  0.00  0.00    +0.000 HD
ATOM     20  H   UNL     1      47.943   5.588  21.618  0.00  0.00    +0.000 HD
ENDBRANCH  14  16
ENDBRANCH   6  10
ENDBRANCH   1   4
BRANCH   1  21
ATOM     21  C   UNL     1      44.151   5.600  11.011  0.00  0.00    +0.000 C 
BRANCH  21  22
ATOM     22  N   UNL     1      43.625   4.606  10.057  0.00  0.00    +0.000 N 
ATOM     23  H   UNL     1      42.789   4.113  10.365  0.00  0.00    +0.000 HD
BRANCH  22  27
ATOM     24  C   UNL     1      46.401   2.451   7.736  0.00  0.00    +0.000 A 
ATOM     25  C   UNL     1      45.526   1.759   8.577  0.00  0.00    +0.000 A 
ATOM     26  C   UNL     1      44.587   2.462   9.339  0.00  0.00    +0.000 A 
ATOM     27  C   UNL     1      44.477   3.855   9.254  0.00  0.00    +0.000 A 
ATOM     28  C   UNL     1      45.373   4.533   8.420  0.00  0.00    +0.000 A 
ATOM     29  C   UNL     1      46.332   3.844   7.670  0.00  0.00    +0.000 A 
BRANCH  24  31
ATOM     30  N   UNL     1      48.481   2.496   6.479  0.00  0.00    +0.000 N 
ATOM     31  C   UNL     1      47.435   1.745   6.941  0.00  0.00    +0.000 C 
ATOM     32  O   UNL     1      47.381   0.540   6.734  0.00  0.00    +0.000 OA
ATOM     33  H   UNL     1      49.233   1.985   6.032  0.00  0.00    +0.000 HD
ATOM     34  H   UNL     1      48.686   3.414   6.843  0.00  0.00    +0.000 HD
ENDBRANCH  24  31
ENDBRANCH  22  27
ENDBRANCH  21  22
ENDBRANCH   1  21
TORSDOF 7
ENDMDL
MODEL 6
REMARK VINA RESULT:    -8.546      1.467      2.211
REMARK INTER + INTRA:         -13.192
REMARK INTER:                 -11.708
REMARK INTRA:                  -1.484
REMARK UNBOUND:                -1.148
REMARK  Name = 
REMARK  7 active torsions:
REMARK  status: ('A' for Active; 'I' for Inactive)
REMARK    1  A    between atoms: C_2  and  C_4
REMARK    2  A    between atoms: C_7  and  N_8
REMARK    3  A    between atoms: N_8  and  C_9
REMARK    4  A    between atoms: C_9  and  C_10
REMARK    5  A    between atoms: C_10  and  C_13
REMARK    6  A    between atoms: C_15  and  C_16
REMARK    7  A    between atoms: C_20  and  C_21
REMARK                            x       y       z     vdW  Elec       q    Type
REMARK                         _______ _______ _______ _____ _____    ______ ____
ROOT
ATOM      1  C   UNL     1      44.753   4.661  12.387  0.00  0.00    +0.000 C 
ATOM      2  F   UNL     1      44.361   4.491  13.686  0.00  0.00    +0.000 F 
ATOM      3  F   UNL     1      45.730   3.715  12.188  0.00  0.00    +0.000 F 
ENDROOT
BRANCH   1   4
ATOM      4  C   UNL     1      45.266   6.074  12.139  0.00  0.00    +0.000 A 
ATOM      5  C   UNL     1      46.603   6.360  12.414  0.00  0.00    +0.000 A 
ATOM      6  C   UNL     1      47.095   7.666  12.272  0.00  0.00    +0.000 A 
ATOM      7  C   UNL     1      46.185   8.644  11.854  0.00  0.00    +0.000 A 
ATOM      8  C   UNL     1      44.874   8.285  11.583  0.00  0.00    +0.000 A 
ATOM      9  N   UNL     1      44.401   7.032  11.713  0.00  0.00    +0.000 NA
BRANCH   6  10
ATOM     10  C   UNL     1      48.518   7.982  12.536  0.00  0.00    +0.000 A 
ATOM     11  C   UNL     1      48.951   8.409  13.805  0.00  0.00    +0.000 A 
ATOM     12  C   UNL     1      50.297   8.674  14.067  0.00  0.00    +0.000 A 
ATOM     13  C   UNL     1      51.244   8.511  13.061  0.00  0.00    +0.000 A 
ATOM     14  C   UNL     1      50.850   8.080  11.793  0.00  0.00    +0.000 A 
ATOM     15  C   UNL     1      49.494   7.839  11.531  0.00  0.00    +0.000 A 
BRANCH  14  16
ATOM     16  C   UNL     1      51.898   7.882  10.757  0.00  0.00    +0.000 C 
ATOM     17  N   UNL     1      53.055   8.601  10.882  0.00  0.00    +0.000 N 
ATOM     18  O   UNL     1      51.719   7.146   9.799  0.00  0.00    +0.000 OA
ATOM     19  H   UNL     1      53.162   9.375  11.520  0.00  0.00    +0.000 HD
ATOM     20  H   UNL     1      53.691   8.552  10.096  0.00  0.00    +0.000 HD
ENDBRANCH  14  16
ENDBRANCH   6  10
ENDBRANCH   1   4
BRANCH   1  21
ATOM     21  C   UNL     1      43.578   4.318  11.446  0.00  0.00    +0.000 C 
BRANCH  21  22
ATOM     22  N   UNL     1      43.832   4.706  10.046  0.00  0.00    +0.000 N 
ATOM     23  H   UNL     1      43.039   5.126   9.564  0.00  0.00    +0.000 HD
BRANCH  22  27
ATOM     24  C   UNL     1      46.579   2.548   7.694  0.00  0.00    +0.000 A 
ATOM     25  C   UNL     1      45.678   1.855   8.506  0.00  0.00    +0.000 A 
ATOM     26  C   UNL     1      44.748   2.560   9.278  0.00  0.00    +0.000 A 
ATOM     27  C   UNL     1      44.674   3.957   9.232  0.00  0.00    +0.000 A 
ATOM     28  C   UNL     1      45.596   4.635   8.426  0.00  0.00    +0.000 A 
ATOM     29  C   UNL     1      46.545   3.944   7.667  0.00  0.00    +0.000 A 
BRANCH  24  31
ATOM     30  N   UNL     1      48.553   2.610   6.276  0.00  0.00    +0.000 N 
ATOM     31  C   UNL     1      47.604   1.839   6.890  0.00  0.00    +0.000 C 
ATOM     32  O   UNL     1      47.628   0.618   6.804  0.00  0.00    +0.000 OA
ATOM     33  H   UNL     1      49.307   2.111   5.821  0.00  0.00    +0.000 HD
ATOM     34  H   UNL     1      48.712   3.573   6.533  0.00  0.00    +0.000 HD
ENDBRANCH  24  31
ENDBRANCH  22  27
ENDBRANCH  21  22
ENDBRANCH   1  21
TORSDOF 7
ENDMDL
MODEL 7
REMARK VINA RESULT:    -7.631      3.014      7.442
REMARK INTER + INTRA:         -11.903
REMARK INTER:                 -10.765
REMARK INTRA:                  -1.137
REMARK UNBOUND:                -1.148
REMARK  Name = 
REMARK  7 active torsions:
REMARK  status: ('A' for Active; 'I' for Inactive)
REMARK    1  A    between atoms: C_2  and  C_4
REMARK    2  A    between atoms: C_7  and  N_8
REMARK    3  A    between atoms: N_8  and  C_9
REMARK    4  A    between atoms: C_9  and  C_10
REMARK    5  A    between atoms: C_10  and  C_13
REMARK    6  A    between atoms: C_15  and  C_16
REMARK    7  A    between atoms: C_20  and  C_21
REMARK                            x       y       z     vdW  Elec       q    Type
REMARK                         _______ _______ _______ _____ _____    ______ ____
ROOT
ATOM      1  C   UNL     1      46.130   7.782  12.119  0.00  0.00    +0.000 C 
ATOM      2  F   UNL     1      45.729   8.303  13.318  0.00  0.00    +0.000 F 
ATOM      3  F   UNL     1      46.230   8.867  11.281  0.00  0.00    +0.000 F 
ENDROOT
BRANCH   1   4
ATOM      4  C   UNL     1      45.138   6.749  11.599  0.00  0.00    +0.000 A 
ATOM      5  C   UNL     1      45.605   5.728  10.773  0.00  0.00    +0.000 A 
ATOM      6  C   UNL     1      44.712   4.802  10.212  0.00  0.00    +0.000 A 
ATOM      7  C   UNL     1      43.356   4.964  10.519  0.00  0.00    +0.000 A 
ATOM      8  C   UNL     1      42.965   5.993  11.360  0.00  0.00    +0.000 A 
ATOM      9  N   UNL     1      43.820   6.879  11.905  0.00  0.00    +0.000 NA
BRANCH   6  10
ATOM     10  C   UNL     1      45.193   3.696   9.352  0.00  0.00    +0.000 A 
ATOM     11  C   UNL     1      44.846   2.358   9.617  0.00  0.00    +0.000 A 
ATOM     12  C   UNL     1      45.269   1.316   8.788  0.00  0.00    +0.000 A 
ATOM     13  C   UNL     1      46.048   1.593   7.669  0.00  0.00    +0.000 A 
ATOM     14  C   UNL     1      46.402   2.910   7.372  0.00  0.00    +0.000 A 
ATOM     15  C   UNL     1      45.994   3.948   8.222  0.00  0.00    +0.000 A 
BRANCH  14  16
ATOM     16  C   UNL     1      47.203   3.167   6.146  0.00  0.00    +0.000 C 
ATOM     17  N   UNL     1      48.384   2.491   6.008  0.00  0.00    +0.000 N 
ATOM     18  O   UNL     1      46.851   3.989   5.313  0.00  0.00    +0.000 OA
ATOM     19  H   UNL     1      48.820   1.977   6.758  0.00  0.00    +0.000 HD
ATOM     20  H   UNL     1      48.971   2.783   5.238  0.00  0.00    +0.000 HD
ENDBRANCH  14  16
ENDBRANCH   6  10
ENDBRANCH   1   4
BRANCH   1  21
ATOM     21  C   UNL     1      47.542   7.179  12.267  0.00  0.00    +0.000 C 
BRANCH  21  22
ATOM     22  N   UNL     1      48.104   7.362  13.618  0.00  0.00    +0.000 N 
ATOM     23  H   UNL     1      48.928   7.960  13.666  0.00  0.00    +0.000 HD
BRANCH  22  27
ATOM     24  C   UNL     1      47.956   4.418  16.626  0.00  0.00    +0.000 A 
ATOM     25  C   UNL     1      47.168   4.270  15.482  0.00  0.00    +0.000 A 
ATOM     26  C   UNL     1      47.223   5.231  14.467  0.00  0.00    +0.000 A 
ATOM     27  C   UNL     1      48.081   6.334  14.554  0.00  0.00    +0.000 A 
ATOM     28  C   UNL     1      48.850   6.475  15.716  0.00  0.00    +0.000 A 
ATOM     29  C   UNL     1      48.788   5.533  16.747  0.00  0.00    +0.000 A 
BRANCH  24  31
ATOM     30  N   UNL     1      46.802   2.625  17.794  0.00  0.00    +0.000 N 
ATOM     31  C   UNL     1      47.899   3.440  17.740  0.00  0.00    +0.000 C 
ATOM     32  O   UNL     1      48.806   3.336  18.556  0.00  0.00    +0.000 OA
ATOM     33  H   UNL     1      46.826   1.892  18.492  0.00  0.00    +0.000 HD
ATOM     34  H   UNL     1      46.179   2.510  17.009  0.00  0.00    +0.000 HD
ENDBRANCH  24  31
ENDBRANCH  22  27
ENDBRANCH  21  22
ENDBRANCH   1  21
TORSDOF 7
ENDMDL
MODEL 8
REMARK VINA RESULT:    -7.395      3.798      7.761
REMARK INTER + INTRA:         -11.570
REMARK INTER:                 -10.190
REMARK INTRA:                  -1.380
REMARK UNBOUND:                -1.148
REMARK  Name = 
REMARK  7 active torsions:
REMARK  status: ('A' for Active; 'I' for Inactive)
REMARK    1  A    between atoms: C_2  and  C_4
REMARK    2  A    between atoms: C_7  and  N_8
REMARK    3  A    between atoms: N_8  and  C_9
REMARK    4  A    between atoms: C_9  and  C_10
REMARK    5  A    between atoms: C_10  and  C_13
REMARK    6  A    between atoms: C_15  and  C_16
REMARK    7  A    between atoms: C_20  and  C_21
REMARK                            x       y       z     vdW  Elec       q    Type
REMARK                         _______ _______ _______ _____ _____    ______ ____
ROOT
ATOM      1  C   UNL     1      49.383   8.217  11.978  0.00  0.00    +0.000 C 
ATOM      2  F   UNL     1      49.908   9.449  11.700  0.00  0.00    +0.000 F 
ATOM      3  F   UNL     1      49.851   7.403  10.974  0.00  0.00    +0.000 F 
ENDROOT
BRANCH   1   4
ATOM      4  C   UNL     1      47.861   8.256  12.021  0.00  0.00    +0.000 A 
ATOM      5  C   UNL     1      47.154   7.077  11.785  0.00  0.00    +0.000 A 
ATOM      6  C   UNL     1      45.752   7.086  11.740  0.00  0.00    +0.000 A 
ATOM      7  C   UNL     1      45.119   8.319  11.934  0.00  0.00    +0.000 A 
ATOM      8  C   UNL     1      45.885   9.448  12.178  0.00  0.00    +0.000 A 
ATOM      9  N   UNL     1      47.230   9.441  12.228  0.00  0.00    +0.000 NA
BRANCH   6  10
ATOM     10  C   UNL     1      44.984   5.839  11.518  0.00  0.00    +0.000 A 
ATOM     11  C   UNL     1      43.915   5.476  12.358  0.00  0.00    +0.000 A 
ATOM     12  C   UNL     1      43.166   4.319  12.130  0.00  0.00    +0.000 A 
ATOM     13  C   UNL     1      43.469   3.499  11.048  0.00  0.00    +0.000 A 
ATOM     14  C   UNL     1      44.517   3.835  10.189  0.00  0.00    +0.000 A 
ATOM     15  C   UNL     1      45.279   4.985  10.438  0.00  0.00    +0.000 A 
BRANCH  14  16
ATOM     16  C   UNL     1      44.784   2.952   9.022  0.00  0.00    +0.000 C 
ATOM     17  N   UNL     1      44.632   1.604   9.200  0.00  0.00    +0.000 N 
ATOM     18  O   UNL     1      45.174   3.403   7.956  0.00  0.00    +0.000 OA
ATOM     19  H   UNL     1      44.529   1.173  10.106  0.00  0.00    +0.000 HD
ATOM     20  H   UNL     1      44.950   1.021   8.437  0.00  0.00    +0.000 HD
ENDBRANCH  14  16
ENDBRANCH   6  10
ENDBRANCH   1   4
BRANCH   1  21
ATOM     21  C   UNL     1      49.969   7.697  13.307  0.00  0.00    +0.000 C 
BRANCH  21  22
ATOM     22  N   UNL     1      49.100   7.978  14.465  0.00  0.00    +0.000 N 
ATOM     23  H   UNL     1      49.264   8.875  14.919  0.00  0.00    +0.000 HD
BRANCH  22  27
ATOM     24  C   UNL     1      47.969   4.736  16.903  0.00  0.00    +0.000 A 
ATOM     25  C   UNL     1      48.757   5.757  17.441  0.00  0.00    +0.000 A 
ATOM     26  C   UNL     1      49.123   6.848  16.647  0.00  0.00    +0.000 A 
ATOM     27  C   UNL     1      48.689   6.963  15.321  0.00  0.00    +0.000 A 
ATOM     28  C   UNL     1      47.915   5.921  14.793  0.00  0.00    +0.000 A 
ATOM     29  C   UNL     1      47.561   4.814  15.570  0.00  0.00    +0.000 A 
BRANCH  24  31
ATOM     30  N   UNL     1      48.371   3.251  18.785  0.00  0.00    +0.000 N 
ATOM     31  C   UNL     1      47.590   3.544  17.701  0.00  0.00    +0.000 C 
ATOM     32  O   UNL     1      46.604   2.872  17.431  0.00  0.00    +0.000 OA
ATOM     33  H   UNL     1      48.041   2.503  19.383  0.00  0.00    +0.000 HD
ATOM     34  H   UNL     1      49.018   3.918  19.178  0.00  0.00    +0.000 HD
ENDBRANCH  24  31
ENDBRANCH  22  27
ENDBRANCH  21  22
ENDBRANCH   1  21
TORSDOF 7
ENDMDL
MODEL 9
REMARK VINA RESULT:    -7.188      4.498      6.486
REMARK INTER + INTRA:         -11.277
REMARK INTER:                  -9.729
REMARK INTRA:                  -1.548
REMARK UNBOUND:                -1.148
REMARK  Name = 
REMARK  7 active torsions:
REMARK  status: ('A' for Active; 'I' for Inactive)
REMARK    1  A    between atoms: C_2  and  C_4
REMARK    2  A    between atoms: C_7  and  N_8
REMARK    3  A    between atoms: N_8  and  C_9
REMARK    4  A    between atoms: C_9  and  C_10
REMARK    5  A    between atoms: C_10  and  C_13
REMARK    6  A    between atoms: C_15  and  C_16
REMARK    7  A    between atoms: C_20  and  C_21
REMARK                            x       y       z     vdW  Elec       q    Type
REMARK                         _______ _______ _______ _____ _____    ______ ____
ROOT
ATOM      1  C   UNL     1      48.768   8.101  12.902  0.00  0.00    +0.000 C 
ATOM      2  F   UNL     1      49.029   6.820  12.500  0.00  0.00    +0.000 F 
ATOM      3  F   UNL     1      49.770   8.856  12.341  0.00  0.00    +0.000 F 
ENDROOT
BRANCH   1   4
ATOM      4  C   UNL     1      48.746   8.217  14.421  0.00  0.00    +0.000 A 
ATOM      5  C   UNL     1      48.829   7.053  15.183  0.00  0.00    +0.000 A 
ATOM      6  C   UNL     1      48.736   7.110  16.582  0.00  0.00    +0.000 A 
ATOM      7  C   UNL     1      48.551   8.375  17.153  0.00  0.00    +0.000 A 
ATOM      8  C   UNL     1      48.492   9.491  16.335  0.00  0.00    +0.000 A 
ATOM      9  N   UNL     1      48.588   9.440  14.993  0.00  0.00    +0.000 NA
BRANCH   6  10
ATOM     10  C   UNL     1      48.848   5.886  17.409  0.00  0.00    +0.000 A 
ATOM     11  C   UNL     1      48.365   5.848  18.731  0.00  0.00    +0.000 A 
ATOM     12  C   UNL     1      48.438   4.685  19.501  0.00  0.00    +0.000 A 
ATOM     13  C   UNL     1      48.992   3.529  18.962  0.00  0.00    +0.000 A 
ATOM     14  C   UNL     1      49.471   3.530  17.650  0.00  0.00    +0.000 A 
ATOM     15  C   UNL     1      49.417   4.707  16.891  0.00  0.00    +0.000 A 
BRANCH  14  16
ATOM     16  C   UNL     1      50.021   2.263  17.099  0.00  0.00    +0.000 C 
ATOM     17  N   UNL     1      51.027   1.652  17.797  0.00  0.00    +0.000 N 
ATOM     18  O   UNL     1      49.630   1.806  16.035  0.00  0.00    +0.000 OA
ATOM     19  H   UNL     1      51.528   2.097  18.551  0.00  0.00    +0.000 HD
ATOM     20  H   UNL     1      51.474   0.872  17.333  0.00  0.00    +0.000 HD
ENDBRANCH  14  16
ENDBRANCH   6  10
ENDBRANCH   1   4
BRANCH   1  21
ATOM     21  C   UNL     1      47.434   8.571  12.284  0.00  0.00    +0.000 C 
BRANCH  21  22
ATOM     22  N   UNL     1      46.255   8.031  12.987  0.00  0.00    +0.000 N 
ATOM     23  H   UNL     1      46.223   8.224  13.987  0.00  0.00    +0.000 HD
BRANCH  22  27
ATOM     24  C   UNL     1      44.648   4.382  11.631  0.00  0.00    +0.000 A 
ATOM     25  C   UNL     1      45.442   4.397  12.781  0.00  0.00    +0.000 A 
ATOM     26  C   UNL     1      45.966   5.605  13.252  0.00  0.00    +0.000 A 
ATOM     27  C   UNL     1      45.685   6.819  12.614  0.00  0.00    +0.000 A 
ATOM     28  C   UNL     1      44.903   6.782  11.453  0.00  0.00    +0.000 A 
ATOM     29  C   UNL     1      44.391   5.579  10.959  0.00  0.00    +0.000 A 
BRANCH  24  31
ATOM     30  N   UNL     1      44.894   2.438  10.193  0.00  0.00    +0.000 N 
ATOM     31  C   UNL     1      44.104   3.117  11.079  0.00  0.00    +0.000 C 
ATOM     32  O   UNL     1      43.016   2.676  11.424  0.00  0.00    +0.000 OA
ATOM     33  H   UNL     1      44.561   1.525   9.908  0.00  0.00    +0.000 HD
ATOM     34  H   UNL     1      45.879   2.633  10.091  0.00  0.00    +0.000 HD
ENDBRANCH  24  31
ENDBRANCH  22  27
ENDBRANCH  21  22
ENDBRANCH   1  21
TORSDOF 7
ENDMDL
