MODEL 1
REMARK VINA RESULT:    -7.737      0.000      0.000
REMARK INTER + INTRA:          -9.483
REMARK INTER:                  -9.094
REMARK INTRA:                  -0.389
REMARK UNBOUND:                -0.389
REMARK  Name = 
REMARK  3 active torsions:
REMARK  status: ('A' for Active; 'I' for Inactive)
REMARK    1  A    between atoms: C_2  and  C_4
REMARK    2  A    between atoms: N_8  and  C_9
REMARK    3  A    between atoms: C_9  and  C_10
REMARK                            x       y       z     vdW  Elec       q    Type
REMARK                         _______ _______ _______ _____ _____    ______ ____
ROOT
ATOM      1  C   UNL     1      46.471   5.002  13.355  0.00  0.00    +0.000 A 
ATOM      2  C   UNL     1      46.840   6.043  12.508  0.00  0.00    +0.000 A 
ATOM      3  C   UNL     1      46.297   6.097  11.228  0.00  0.00    +0.000 A 
ATOM      4  C   UNL     1      45.421   5.098  10.798  0.00  0.00    +0.000 A 
ATOM      5  N   UNL     1      44.987   5.158   9.477  0.00  0.00    +0.000 N 
ATOM      6  N   UNL     1      45.063   4.080  11.603  0.00  0.00    +0.000 NA
ATOM      7  C   UNL     1      45.590   4.052  12.858  0.00  0.00    +0.000 A 
ATOM      8  H   UNL     1      44.493   6.027   9.299  0.00  0.00    +0.000 HD
ENDROOT
BRANCH   1  10
ATOM      9  N   UNL     1      47.809   5.847  15.201  0.00  0.00    +0.000 N 
ATOM     10  C   UNL     1      47.005   4.849  14.725  0.00  0.00    +0.000 C 
ATOM     11  O   UNL     1      46.718   3.882  15.416  0.00  0.00    +0.000 OA
ATOM     12  H   UNL     1      48.100   5.768  16.168  0.00  0.00    +0.000 HD
ATOM     13  H   UNL     1      47.889   6.751  14.761  0.00  0.00    +0.000 HD
ENDBRANCH   1  10
BRANCH   5  14
ATOM     14  C   UNL     1      44.296   3.995   8.952  0.00  0.00    +0.000 C 
BRANCH  14  15
ATOM     15  C   UNL     1      45.330   3.144   8.264  0.00  0.00    +0.000 A 
ATOM     16  C   UNL     1      46.195   3.656   7.293  0.00  0.00    +0.000 A 
ATOM     17  C   UNL     1      47.183   2.836   6.753  0.00  0.00    +0.000 A 
ATOM     18  C   UNL     1      47.277   1.529   7.205  0.00  0.00    +0.000 A 
ATOM     19  N   UNL     1      46.463   1.000   8.142  0.00  0.00    +0.000 NA
ATOM     20  C   UNL     1      45.516   1.819   8.652  0.00  0.00    +0.000 A 
ENDBRANCH  14  15
ENDBRANCH   5  14
TORSDOF 3
ENDMDL
MODEL 2
REMARK VINA RESULT:    -7.522      2.750      6.281
REMARK INTER + INTRA:          -9.230
REMARK INTER:                  -8.874
REMARK INTRA:                  -0.356
REMARK UNBOUND:                -0.389
REMARK  Name = 
REMARK  3 active torsions:
REMARK  status: ('A' for Active; 'I' for Inactive)
REMARK    1  A    between atoms: C_2  and  C_4
REMARK    2  A    between atoms: N_8  and  C_9
REMARK    3  A    between atoms: C_9  and  C_10
REMARK                            x       y       z     vdW  Elec       q    Type
REMARK                         _______ _______ _______ _____ _____    ______ ____
ROOT
ATOM      1  C   UNL     1      46.522   2.600   7.392  0.00  0.00    +0.000 A 
ATOM      2  C   UNL     1      46.007   1.626   8.242  0.00  0.00    +0.000 A 
ATOM      3  C   UNL     1      45.073   1.995   9.205  0.00  0.00    +0.000 A 
ATOM      4  C   UNL     1      44.688   3.332   9.328  0.00  0.00    +0.000 A 
ATOM      5  N   UNL     1      43.822   3.651  10.371  0.00  0.00    +0.000 N 
ATOM      6  N   UNL     1      45.184   4.286   8.519  0.00  0.00    +0.000 NA
ATOM      7  C   UNL     1      46.084   3.905   7.572  0.00  0.00    +0.000 A 
ATOM      8  H   UNL     1      42.949   3.139  10.284  0.00  0.00    +0.000 HD
ENDROOT
BRANCH   1  10
ATOM      9  N   UNL     1      47.491   3.068   5.212  0.00  0.00    +0.000 N 
ATOM     10  C   UNL     1      47.529   2.311   6.350  0.00  0.00    +0.000 C 
ATOM     11  O   UNL     1      48.380   1.448   6.508  0.00  0.00    +0.000 OA
ATOM     12  H   UNL     1      48.237   2.913   4.543  0.00  0.00    +0.000 HD
ATOM     13  H   UNL     1      46.961   3.922   5.132  0.00  0.00    +0.000 HD
ENDBRANCH   1  10
BRANCH   5  14
ATOM     14  C   UNL     1      43.628   5.058  10.665  0.00  0.00    +0.000 C 
BRANCH  14  15
ATOM     15  C   UNL     1      44.698   5.453  11.647  0.00  0.00    +0.000 A 
ATOM     16  C   UNL     1      44.952   4.722  12.811  0.00  0.00    +0.000 A 
ATOM     17  C   UNL     1      46.009   5.093  13.638  0.00  0.00    +0.000 A 
ATOM     18  C   UNL     1      46.782   6.184  13.272  0.00  0.00    +0.000 A 
ATOM     19  N   UNL     1      46.570   6.912  12.156  0.00  0.00    +0.000 NA
ATOM     20  C   UNL     1      45.540   6.527  11.369  0.00  0.00    +0.000 A 
ENDBRANCH  14  15
ENDBRANCH   5  14
TORSDOF 3
ENDMDL
MODEL 3
REMARK VINA RESULT:    -6.974      1.890      2.344
REMARK INTER + INTRA:          -8.586
REMARK INTER:                  -8.295
REMARK INTRA:                  -0.292
REMARK UNBOUND:                -0.389
REMARK  Name = 
REMARK  3 active torsions:
REMARK  status: ('A' for Active; 'I' for Inactive)
REMARK    1  A    between atoms: C_2  and  C_4
REMARK    2  A    between atoms: N_8  and  C_9
REMARK    3  A    between atoms: C_9  and  C_10
REMARK                            x       y       z     vdW  Elec       q    Type
REMARK                         _______ _______ _______ _____ _____    ______ ____
ROOT
ATOM      1  C   UNL     1      45.741   6.607  12.431  0.00  0.00    +0.000 A 
ATOM      2  C   UNL     1      45.800   5.447  13.199  0.00  0.00    +0.000 A 
ATOM      3  C   UNL     1      45.556   4.220  12.589  0.00  0.00    +0.000 A 
ATOM      4  C   UNL     1      45.227   4.168  11.233  0.00  0.00    +0.000 A 
ATOM      5  N   UNL     1      44.903   2.920  10.705  0.00  0.00    +0.000 N 
ATOM      6  N   UNL     1      45.157   5.282  10.480  0.00  0.00    +0.000 NA
ATOM      7  C   UNL     1      45.415   6.472  11.089  0.00  0.00    +0.000 A 
ATOM      8  H   UNL     1      45.679   2.274  10.806  0.00  0.00    +0.000 HD
ENDROOT
BRANCH   1  10
ATOM      9  N   UNL     1      44.977   8.882  12.819  0.00  0.00    +0.000 N 
ATOM     10  C   UNL     1      45.969   7.956  12.990  0.00  0.00    +0.000 C 
ATOM     11  O   UNL     1      46.990   8.228  13.604  0.00  0.00    +0.000 OA
ATOM     12  H   UNL     1      45.112   9.776  13.277  0.00  0.00    +0.000 HD
ATOM     13  H   UNL     1      44.042   8.644  12.523  0.00  0.00    +0.000 HD
ENDBRANCH   1  10
BRANCH   5  14
ATOM     14  C   UNL     1      44.311   2.895   9.381  0.00  0.00    +0.000 C 
BRANCH  14  15
ATOM     15  C   UNL     1      45.407   2.524   8.417  0.00  0.00    +0.000 A 
ATOM     16  C   UNL     1      46.011   3.462   7.575  0.00  0.00    +0.000 A 
ATOM     17  C   UNL     1      47.075   3.072   6.765  0.00  0.00    +0.000 A 
ATOM     18  C   UNL     1      47.502   1.754   6.825  0.00  0.00    +0.000 A 
ATOM     19  N   UNL     1      46.946   0.822   7.625  0.00  0.00    +0.000 NA
ATOM     20  C   UNL     1      45.919   1.229   8.405  0.00  0.00    +0.000 A 
ENDBRANCH  14  15
ENDBRANCH   5  14
TORSDOF 3
ENDMDL
MODEL 4
REMARK VINA RESULT:    -6.643      1.898      2.307
REMARK INTER + INTRA:          -8.198
REMARK INTER:                  -7.913
REMARK INTRA:                  -0.285
REMARK UNBOUND:                -0.389
REMARK  Name = 
REMARK  3 active torsions:
REMARK  status: ('A' for Active; 'I' for Inactive)
REMARK    1  A    between atoms: C_2  and  C_4
REMARK    2  A    between atoms: N_8  and  C_9
REMARK    3  A    between atoms: C_9  and  C_10
REMARK                            x       y       z     vdW  Elec       q    Type
REMARK                         _______ _______ _______ _____ _____    ______ ____
ROOT
ATOM      1  C   UNL     1      45.084   5.538  11.964  0.00  0.00    +0.000 A 
ATOM      2  C   UNL     1      44.134   5.842  10.993  0.00  0.00    +0.000 A 
ATOM      3  C   UNL     1      43.795   4.873  10.054  0.00  0.00    +0.000 A 
ATOM      4  C   UNL     1      44.428   3.628  10.075  0.00  0.00    +0.000 A 
ATOM      5  N   UNL     1      44.111   2.737   9.052  0.00  0.00    +0.000 N 
ATOM      6  N   UNL     1      45.354   3.323  11.002  0.00  0.00    +0.000 NA
ATOM      7  C   UNL     1      45.663   4.276  11.923  0.00  0.00    +0.000 A 
ATOM      8  H   UNL     1      43.119   2.521   9.056  0.00  0.00    +0.000 HD
ENDROOT
BRANCH   1  10
ATOM      9  N   UNL     1      46.444   6.073  13.907  0.00  0.00    +0.000 N 
ATOM     10  C   UNL     1      45.523   6.504  12.993  0.00  0.00    +0.000 C 
ATOM     11  O   UNL     1      45.102   7.651  13.011  0.00  0.00    +0.000 OA
ATOM     12  H   UNL     1      46.795   6.768  14.555  0.00  0.00    +0.000 HD
ATOM     13  H   UNL     1      46.977   5.223  13.798  0.00  0.00    +0.000 HD
ENDBRANCH   1  10
BRANCH   5  14
ATOM     14  C   UNL     1      44.948   1.559   8.917  0.00  0.00    +0.000 C 
BRANCH  14  15
ATOM     15  C   UNL     1      45.931   1.843   7.813  0.00  0.00    +0.000 A 
ATOM     16  C   UNL     1      45.880   3.012   7.048  0.00  0.00    +0.000 A 
ATOM     17  C   UNL     1      46.868   3.253   6.096  0.00  0.00    +0.000 A 
ATOM     18  C   UNL     1      47.878   2.317   5.941  0.00  0.00    +0.000 A 
ATOM     19  N   UNL     1      47.963   1.179   6.661  0.00  0.00    +0.000 NA
ATOM     20  C   UNL     1      46.994   0.973   7.581  0.00  0.00    +0.000 A 
ENDBRANCH  14  15
ENDBRANCH   5  14
TORSDOF 3
ENDMDL
MODEL 5
REMARK VINA RESULT:    -6.259      3.115      7.025
REMARK INTER + INTRA:          -7.746
REMARK INTER:                  -7.432
REMARK INTRA:                  -0.313
REMARK UNBOUND:                -0.389
REMARK  Name = 
REMARK  3 active torsions:
REMARK  status: ('A' for Active; 'I' for Inactive)
REMARK    1  A    between atoms: C_2  and  C_4
REMARK    2  A    between atoms: N_8  and  C_9
REMARK    3  A    between atoms: C_9  and  C_10
REMARK                            x       y       z     vdW  Elec       q    Type
REMARK                         _______ _______ _______ _____ _____    ______ ____
ROOT
ATOM      1  C   UNL     1      45.411   4.624  11.696  0.00  0.00    +0.000 A 
ATOM      2  C   UNL     1      45.969   5.850  12.047  0.00  0.00    +0.000 A 
ATOM      3  C   UNL     1      46.625   5.967  13.269  0.00  0.00    +0.000 A 
ATOM      4  C   UNL     1      46.690   4.874  14.135  0.00  0.00    +0.000 A 
ATOM      5  N   UNL     1      47.279   5.083  15.379  0.00  0.00    +0.000 N 
ATOM      6  N   UNL     1      46.147   3.686  13.812  0.00  0.00    +0.000 NA
ATOM      7  C   UNL     1      45.523   3.583  12.607  0.00  0.00    +0.000 A 
ATOM      8  H   UNL     1      48.242   5.387  15.276  0.00  0.00    +0.000 HD
ENDROOT
BRANCH   1  10
ATOM      9  N   UNL     1      43.577   5.177  10.199  0.00  0.00    +0.000 N 
ATOM     10  C   UNL     1      44.680   4.404  10.430  0.00  0.00    +0.000 C 
ATOM     11  O   UNL     1      45.061   3.583   9.609  0.00  0.00    +0.000 OA
ATOM     12  H   UNL     1      43.134   5.072   9.293  0.00  0.00    +0.000 HD
ATOM     13  H   UNL     1      43.359   6.005  10.732  0.00  0.00    +0.000 HD
ENDBRANCH   1  10
BRANCH   5  14
ATOM     14  C   UNL     1      47.116   4.039  16.373  0.00  0.00    +0.000 C 
BRANCH  14  15
ATOM     15  C   UNL     1      48.493   3.527  16.702  0.00  0.00    +0.000 A 
ATOM     16  C   UNL     1      49.403   4.264  17.465  0.00  0.00    +0.000 A 
ATOM     17  C   UNL     1      50.631   3.700  17.803  0.00  0.00    +0.000 A 
ATOM     18  C   UNL     1      50.908   2.413  17.369  0.00  0.00    +0.000 A 
ATOM     19  N   UNL     1      50.056   1.670  16.634  0.00  0.00    +0.000 NA
ATOM     20  C   UNL     1      48.869   2.240  16.324  0.00  0.00    +0.000 A 
ENDBRANCH  14  15
ENDBRANCH   5  14
TORSDOF 3
ENDMDL
MODEL 6
REMARK VINA RESULT:    -5.696      3.004      7.791
REMARK INTER + INTRA:          -7.085
REMARK INTER:                  -6.867
REMARK INTRA:                  -0.217
REMARK UNBOUND:                -0.389
REMARK  Name = 
REMARK  3 active torsions:
REMARK  status: ('A' for Active; 'I' for Inactive)
REMARK    1  A    between atoms: C_2  and  C_4
REMARK    2  A    between atoms: N_8  and  C_9
REMARK    3  A    between atoms: C_9  and  C_10
REMARK                            x       y       z     vdW  Elec       q    Type
REMARK                         _______ _______ _______ _____ _____    ______ ____
ROOT
ATOM      1  C   UNL     1      45.168   4.424  11.555  0.00  0.00    +0.000 A 
ATOM      2  C   UNL     1      45.634   5.708  11.824  0.00  0.00    +0.000 A 
ATOM      3  C   UNL     1      46.368   5.930  12.985  0.00  0.00    +0.000 A 
ATOM      4  C   UNL     1      46.599   4.881  13.877  0.00  0.00    +0.000 A 
ATOM      5  N   UNL     1      47.258   5.189  15.064  0.00  0.00    +0.000 N 
ATOM      6  N   UNL     1      46.147   3.636  13.634  0.00  0.00    +0.000 NA
ATOM      7  C   UNL     1      45.445   3.432  12.486  0.00  0.00    +0.000 A 
ATOM      8  H   UNL     1      48.179   5.574  14.876  0.00  0.00    +0.000 HD
ENDROOT
BRANCH   1  10
ATOM      9  N   UNL     1      44.661   4.757   9.201  0.00  0.00    +0.000 N 
ATOM     10  C   UNL     1      44.367   4.091  10.358  0.00  0.00    +0.000 C 
ATOM     11  O   UNL     1      43.496   3.235  10.392  0.00  0.00    +0.000 OA
ATOM     12  H   UNL     1      44.160   4.461   8.371  0.00  0.00    +0.000 HD
ATOM     13  H   UNL     1      45.503   5.298   9.071  0.00  0.00    +0.000 HD
ENDBRANCH   1  10
BRANCH   5  14
ATOM     14  C   UNL     1      47.269   4.172  16.099  0.00  0.00    +0.000 C 
BRANCH  14  15
ATOM     15  C   UNL     1      47.960   4.771  17.296  0.00  0.00    +0.000 A 
ATOM     16  C   UNL     1      47.256   5.243  18.407  0.00  0.00    +0.000 A 
ATOM     17  C   UNL     1      47.957   5.710  19.516  0.00  0.00    +0.000 A 
ATOM     18  C   UNL     1      49.343   5.688  19.479  0.00  0.00    +0.000 A 
ATOM     19  N   UNL     1      50.057   5.238  18.427  0.00  0.00    +0.000 NA
ATOM     20  C   UNL     1      49.351   4.785  17.365  0.00  0.00    +0.000 A 
ENDBRANCH  14  15
ENDBRANCH   5  14
TORSDOF 3
ENDMDL
MODEL 7
REMARK VINA RESULT:    -5.623      3.811      5.832
REMARK INTER + INTRA:          -6.999
REMARK INTER:                  -6.753
REMARK INTRA:                  -0.246
REMARK UNBOUND:                -0.389
REMARK  Name = 
REMARK  3 active torsions:
REMARK  status: ('A' for Active; 'I' for Inactive)
REMARK    1  A    between atoms: C_2  and  C_4
REMARK    2  A    between atoms: N_8  and  C_9
REMARK    3  A    between atoms: C_9  and  C_10
REMARK                            x       y       z     vdW  Elec       q    Type
REMARK                         _______ _______ _______ _____ _____    ______ ____
ROOT
ATOM      1  C   UNL     1      48.860   4.473  18.229  0.00  0.00    +0.000 A 
ATOM      2  C   UNL     1      47.932   3.438  18.188  0.00  0.00    +0.000 A 
ATOM      3  C   UNL     1      47.237   3.199  17.006  0.00  0.00    +0.000 A 
ATOM      4  C   UNL     1      47.454   4.013  15.893  0.00  0.00    +0.000 A 
ATOM      5  N   UNL     1      46.662   3.781  14.771  0.00  0.00    +0.000 N 
ATOM      6  N   UNL     1      48.343   5.023  15.920  0.00  0.00    +0.000 NA
ATOM      7  C   UNL     1      49.025   5.233  17.079  0.00  0.00    +0.000 A 
ATOM      8  H   UNL     1      46.792   2.834  14.427  0.00  0.00    +0.000 HD
ENDROOT
BRANCH   1  10
ATOM      9  N   UNL     1      49.304   4.172  20.600  0.00  0.00    +0.000 N 
ATOM     10  C   UNL     1      49.635   4.815  19.441  0.00  0.00    +0.000 C 
ATOM     11  O   UNL     1      50.553   5.622  19.404  0.00  0.00    +0.000 OA
ATOM     12  H   UNL     1      49.895   4.356  21.402  0.00  0.00    +0.000 HD
ATOM     13  H   UNL     1      48.716   3.352  20.631  0.00  0.00    +0.000 HD
ENDBRANCH   1  10
BRANCH   5  14
ATOM     14  C   UNL     1      46.696   4.777  13.718  0.00  0.00    +0.000 C 
BRANCH  14  15
ATOM     15  C   UNL     1      45.424   4.623  12.926  0.00  0.00    +0.000 A 
ATOM     16  C   UNL     1      45.046   3.409  12.346  0.00  0.00    +0.000 A 
ATOM     17  C   UNL     1      43.819   3.312  11.695  0.00  0.00    +0.000 A 
ATOM     18  C   UNL     1      43.006   4.434  11.648  0.00  0.00    +0.000 A 
ATOM     19  N   UNL     1      43.334   5.621  12.197  0.00  0.00    +0.000 NA
ATOM     20  C   UNL     1      44.529   5.686  12.827  0.00  0.00    +0.000 A 
ENDBRANCH  14  15
ENDBRANCH   5  14
TORSDOF 3
ENDMDL
MODEL 8
REMARK VINA RESULT:    -5.437      3.250      6.152
REMARK INTER + INTRA:          -6.780
REMARK INTER:                  -6.467
REMARK INTRA:                  -0.312
REMARK UNBOUND:                -0.389
REMARK  Name = 
REMARK  3 active torsions:
REMARK  status: ('A' for Active; 'I' for Inactive)
REMARK    1  A    between atoms: C_2  and  C_4
REMARK    2  A    between atoms: N_8  and  C_9
REMARK    3  A    between atoms: C_9  and  C_10
REMARK                            x       y       z     vdW  Elec       q    Type
REMARK                         _______ _______ _______ _____ _____    ______ ____
ROOT
ATOM      1  C   UNL     1      44.568   4.029  11.677  0.00  0.00    +0.000 A 
ATOM      2  C   UNL     1      45.232   3.960  12.899  0.00  0.00    +0.000 A 
ATOM      3  C   UNL     1      45.798   5.117  13.427  0.00  0.00    +0.000 A 
ATOM      4  C   UNL     1      45.722   6.317  12.717  0.00  0.00    +0.000 A 
ATOM      5  N   UNL     1      46.388   7.416  13.255  0.00  0.00    +0.000 N 
ATOM      6  N   UNL     1      45.092   6.397  11.531  0.00  0.00    +0.000 NA
ATOM      7  C   UNL     1      44.530   5.261  11.037  0.00  0.00    +0.000 A 
ATOM      8  H   UNL     1      46.029   7.640  14.178  0.00  0.00    +0.000 HD
ENDROOT
BRANCH   1  10
ATOM      9  N   UNL     1      44.596   2.322   9.947  0.00  0.00    +0.000 N 
ATOM     10  C   UNL     1      43.950   2.855  11.027  0.00  0.00    +0.000 C 
ATOM     11  O   UNL     1      42.916   2.361  11.454  0.00  0.00    +0.000 OA
ATOM     12  H   UNL     1      44.204   1.470   9.563  0.00  0.00    +0.000 HD
ATOM     13  H   UNL     1      45.547   2.551   9.701  0.00  0.00    +0.000 HD
ENDBRANCH   1  10
BRANCH   5  14
ATOM     14  C   UNL     1      46.536   8.582  12.405  0.00  0.00    +0.000 C 
BRANCH  14  15
ATOM     15  C   UNL     1      48.005   8.729  12.111  0.00  0.00    +0.000 A 
ATOM     16  C   UNL     1      48.786   7.665  11.650  0.00  0.00    +0.000 A 
ATOM     17  C   UNL     1      50.121   7.885  11.319  0.00  0.00    +0.000 A 
ATOM     18  C   UNL     1      50.632   9.166  11.457  0.00  0.00    +0.000 A 
ATOM     19  N   UNL     1      49.911  10.218  11.896  0.00  0.00    +0.000 NA
ATOM     20  C   UNL     1      48.617   9.977  12.206  0.00  0.00    +0.000 A 
ENDBRANCH  14  15
ENDBRANCH   5  14
TORSDOF 3
ENDMDL
MODEL 9
REMARK VINA RESULT:    -5.177      2.954      6.526
REMARK INTER + INTRA:          -6.475
REMARK INTER:                  -6.143
REMARK INTRA:                  -0.332
REMARK UNBOUND:                -0.389
REMARK  Name = 
REMARK  3 active torsions:
REMARK  status: ('A' for Active; 'I' for Inactive)
REMARK    1  A    between atoms: C_2  and  C_4
REMARK    2  A    between atoms: N_8  and  C_9
REMARK    3  A    between atoms: C_9  and  C_10
REMARK                            x       y       z     vdW  Elec       q    Type
REMARK                         _______ _______ _______ _____ _____    ______ ____
ROOT
ATOM      1  C   UNL     1      44.839   4.193  11.111  0.00  0.00    +0.000 A 
ATOM      2  C   UNL     1      45.326   5.033  10.114  0.00  0.00    +0.000 A 
ATOM      3  C   UNL     1      46.067   6.153  10.476  0.00  0.00    +0.000 A 
ATOM      4  C   UNL     1      46.286   6.439  11.826  0.00  0.00    +0.000 A 
ATOM      5  N   UNL     1      46.955   7.623  12.124  0.00  0.00    +0.000 N 
ATOM      6  N   UNL     1      45.814   5.641  12.801  0.00  0.00    +0.000 NA
ATOM      7  C   UNL     1      45.105   4.540  12.429  0.00  0.00    +0.000 A 
ATOM      8  H   UNL     1      47.880   7.631  11.707  0.00  0.00    +0.000 HD
ENDROOT
BRANCH   1  10
ATOM      9  N   UNL     1      44.506   2.118   9.889  0.00  0.00    +0.000 N 
ATOM     10  C   UNL     1      44.029   2.990  10.828  0.00  0.00    +0.000 C 
ATOM     11  O   UNL     1      42.988   2.767  11.428  0.00  0.00    +0.000 OA
ATOM     12  H   UNL     1      43.983   1.259   9.765  0.00  0.00    +0.000 HD
ATOM     13  H   UNL     1      45.452   2.144   9.538  0.00  0.00    +0.000 HD
ENDBRANCH   1  10
BRANCH   5  14
ATOM     14  C   UNL     1      46.954   8.053  13.510  0.00  0.00    +0.000 C 
BRANCH  14  15
ATOM     15  C   UNL     1      48.348   7.839  14.037  0.00  0.00    +0.000 A 
ATOM     16  C   UNL     1      49.399   8.714  13.750  0.00  0.00    +0.000 A 
ATOM     17  C   UNL     1      50.646   8.504  14.335  0.00  0.00    +0.000 A 
ATOM     18  C   UNL     1      50.800   7.426  15.193  0.00  0.00    +0.000 A 
ATOM     19  N   UNL     1      49.810   6.562  15.496  0.00  0.00    +0.000 NA
ATOM     20  C   UNL     1      48.609   6.791  14.918  0.00  0.00    +0.000 A 
ENDBRANCH  14  15
ENDBRANCH   5  14
TORSDOF 3
ENDMDL
