MODEL 1
REMARK VINA RESULT:    -8.151      0.000      0.000
REMARK INTER + INTRA:         -11.169
REMARK INTER:                 -10.295
REMARK INTRA:                  -0.874
REMARK UNBOUND:                -0.874
REMARK  Name = 
REMARK  5 active torsions:
REMARK  status: ('A' for Active; 'I' for Inactive)
REMARK    1  A    between atoms: C_2  and  C_4
REMARK    2  A    between atoms: C_7  and  O_8
REMARK    3  A    between atoms: O_8  and  C_9
REMARK    4  A    between atoms: C_9  and  C_10
REMARK    5  A    between atoms: C_15  and  O_16
REMARK                            x       y       z     vdW  Elec       q    Type
REMARK                         _______ _______ _______ _____ _____    ______ ____
ROOT
ATOM      1  O   UNL     1      43.691   3.746  10.387  0.00  0.00    +0.000 OA
ENDROOT
BRANCH   1   5
ATOM      2  C   UNL     1      46.458   2.708   7.535  0.00  0.00    +0.000 A 
ATOM      3  C   UNL     1      45.925   1.748   8.390  0.00  0.00    +0.000 A 
ATOM      4  C   UNL     1      44.982   2.138   9.330  0.00  0.00    +0.000 A 
ATOM      5  C   UNL     1      44.589   3.473   9.377  0.00  0.00    +0.000 A 
ATOM      6  N   UNL     1      45.071   4.433   8.567  0.00  0.00    +0.000 NA
ATOM      7  C   UNL     1      46.011   4.025   7.665  0.00  0.00    +0.000 A 
BRANCH   2   9
ATOM      8  N   UNL     1      47.496   3.094   5.369  0.00  0.00    +0.000 N 
ATOM      9  C   UNL     1      47.502   2.381   6.539  0.00  0.00    +0.000 C 
ATOM     10  O   UNL     1      48.345   1.521   6.752  0.00  0.00    +0.000 OA
ATOM     11  H   UNL     1      48.243   2.906   4.712  0.00  0.00    +0.000 HD
ATOM     12  H   UNL     1      46.962   3.941   5.236  0.00  0.00    +0.000 HD
ENDBRANCH   2   9
ENDBRANCH   1   5
BRANCH   1  13
ATOM     13  C   UNL     1      43.861   4.935  11.185  0.00  0.00    +0.000 C 
ATOM     14  C   UNL     1      42.547   5.248  11.904  0.00  0.00    +0.000 C 
ATOM     15  C   UNL     1      43.053   6.172  10.849  0.00  0.00    +0.000 C 
BRANCH  13  16
ATOM     16  C   UNL     1      45.130   4.999  12.027  0.00  0.00    +0.000 A 
ATOM     17  C   UNL     1      45.942   6.148  12.075  0.00  0.00    +0.000 A 
ATOM     18  C   UNL     1      47.123   6.185  12.826  0.00  0.00    +0.000 A 
ATOM     19  C   UNL     1      47.532   5.063  13.540  0.00  0.00    +0.000 A 
ATOM     20  C   UNL     1      46.752   3.911  13.520  0.00  0.00    +0.000 A 
ATOM     21  C   UNL     1      45.568   3.891  12.778  0.00  0.00    +0.000 A 
BRANCH  21  22
ATOM     22  O   UNL     1      44.801   2.754  12.780  0.00  0.00    +0.000 OA
ATOM     23  H   UNL     1      44.781   2.392  13.677  0.00  0.00    +0.000 HD
ENDBRANCH  21  22
ENDBRANCH  13  16
ENDBRANCH   1  13
TORSDOF 5
ENDMDL
MODEL 2
REMARK VINA RESULT:    -7.354      1.347      2.143
REMARK INTER + INTRA:         -10.163
REMARK INTER:                 -10.162
REMARK INTRA:                  -0.001
REMARK UNBOUND:                -0.874
REMARK  Name = 
REMARK  5 active torsions:
REMARK  status: ('A' for Active; 'I' for Inactive)
REMARK    1  A    between atoms: C_2  and  C_4
REMARK    2  A    between atoms: C_7  and  O_8
REMARK    3  A    between atoms: O_8  and  C_9
REMARK    4  A    between atoms: C_9  and  C_10
REMARK    5  A    between atoms: C_15  and  O_16
REMARK                            x       y       z     vdW  Elec       q    Type
REMARK                         _______ _______ _______ _____ _____    ______ ____
ROOT
ATOM      1  O   UNL     1      43.720   4.602  10.027  0.00  0.00    +0.000 OA
ENDROOT
BRANCH   1   5
ATOM      2  C   UNL     1      46.399   2.402   7.825  0.00  0.00    +0.000 A 
ATOM      3  C   UNL     1      46.321   3.784   7.674  0.00  0.00    +0.000 A 
ATOM      4  C   UNL     1      45.412   4.491   8.449  0.00  0.00    +0.000 A 
ATOM      5  C   UNL     1      44.620   3.798   9.360  0.00  0.00    +0.000 A 
ATOM      6  N   UNL     1      44.665   2.466   9.545  0.00  0.00    +0.000 NA
ATOM      7  C   UNL     1      45.555   1.793   8.757  0.00  0.00    +0.000 A 
BRANCH   2   9
ATOM      8  N   UNL     1      48.446   2.170   6.533  0.00  0.00    +0.000 N 
ATOM      9  C   UNL     1      47.307   1.573   7.004  0.00  0.00    +0.000 C 
ATOM     10  O   UNL     1      47.064   0.398   6.765  0.00  0.00    +0.000 OA
ATOM     11  H   UNL     1      49.092   1.587   6.017  0.00  0.00    +0.000 HD
ATOM     12  H   UNL     1      48.790   3.058   6.872  0.00  0.00    +0.000 HD
ENDBRANCH   2   9
ENDBRANCH   1   5
BRANCH   1  13
ATOM     13  C   UNL     1      43.872   4.813  11.446  0.00  0.00    +0.000 C 
ATOM     14  C   UNL     1      43.309   3.603  12.195  0.00  0.00    +0.000 C 
ATOM     15  C   UNL     1      42.635   4.928  12.313  0.00  0.00    +0.000 C 
BRANCH  13  16
ATOM     16  C   UNL     1      45.234   5.323  11.903  0.00  0.00    +0.000 A 
ATOM     17  C   UNL     1      46.061   4.584  12.769  0.00  0.00    +0.000 A 
ATOM     18  C   UNL     1      47.296   5.077  13.207  0.00  0.00    +0.000 A 
ATOM     19  C   UNL     1      47.730   6.334  12.801  0.00  0.00    +0.000 A 
ATOM     20  C   UNL     1      46.941   7.092  11.941  0.00  0.00    +0.000 A 
ATOM     21  C   UNL     1      45.717   6.583  11.498  0.00  0.00    +0.000 A 
BRANCH  21  22
ATOM     22  O   UNL     1      44.956   7.333  10.638  0.00  0.00    +0.000 OA
ATOM     23  H   UNL     1      44.808   6.825   9.828  0.00  0.00    +0.000 HD
ENDBRANCH  21  22
ENDBRANCH  13  16
ENDBRANCH   1  13
TORSDOF 5
ENDMDL
MODEL 3
REMARK VINA RESULT:    -6.172      3.101      6.344
REMARK INTER + INTRA:          -8.670
REMARK INTER:                  -8.398
REMARK INTRA:                  -0.272
REMARK UNBOUND:                -0.874
REMARK  Name = 
REMARK  5 active torsions:
REMARK  status: ('A' for Active; 'I' for Inactive)
REMARK    1  A    between atoms: C_2  and  C_4
REMARK    2  A    between atoms: C_7  and  O_8
REMARK    3  A    between atoms: O_8  and  C_9
REMARK    4  A    between atoms: C_9  and  C_10
REMARK    5  A    between atoms: C_15  and  O_16
REMARK                            x       y       z     vdW  Elec       q    Type
REMARK                         _______ _______ _______ _____ _____    ______ ____
ROOT
ATOM      1  O   UNL     1      45.331   5.858  11.410  0.00  0.00    +0.000 OA
ENDROOT
BRANCH   1   5
ATOM      2  C   UNL     1      47.691   5.860  14.771  0.00  0.00    +0.000 A 
ATOM      3  C   UNL     1      47.630   6.979  13.945  0.00  0.00    +0.000 A 
ATOM      4  C   UNL     1      46.809   6.942  12.827  0.00  0.00    +0.000 A 
ATOM      5  C   UNL     1      46.062   5.793  12.577  0.00  0.00    +0.000 A 
ATOM      6  N   UNL     1      46.084   4.692  13.350  0.00  0.00    +0.000 NA
ATOM      7  C   UNL     1      46.914   4.749  14.432  0.00  0.00    +0.000 A 
BRANCH   2   9
ATOM      8  N   UNL     1      47.992   5.543  17.163  0.00  0.00    +0.000 N 
ATOM      9  C   UNL     1      48.578   5.804  15.953  0.00  0.00    +0.000 C 
ATOM     10  O   UNL     1      49.786   5.969  15.858  0.00  0.00    +0.000 OA
ATOM     11  H   UNL     1      48.607   5.452  17.962  0.00  0.00    +0.000 HD
ATOM     12  H   UNL     1      47.047   5.198  17.262  0.00  0.00    +0.000 HD
ENDBRANCH   2   9
ENDBRANCH   1   5
BRANCH   1  13
ATOM     13  C   UNL     1      44.498   4.742  11.032  0.00  0.00    +0.000 C 
ATOM     14  C   UNL     1      43.042   5.206  10.961  0.00  0.00    +0.000 C 
ATOM     15  C   UNL     1      43.459   4.231  12.009  0.00  0.00    +0.000 C 
BRANCH  13  16
ATOM     16  C   UNL     1      45.001   3.898   9.867  0.00  0.00    +0.000 A 
ATOM     17  C   UNL     1      44.850   2.499   9.834  0.00  0.00    +0.000 A 
ATOM     18  C   UNL     1      45.345   1.729   8.774  0.00  0.00    +0.000 A 
ATOM     19  C   UNL     1      46.019   2.341   7.722  0.00  0.00    +0.000 A 
ATOM     20  C   UNL     1      46.184   3.722   7.719  0.00  0.00    +0.000 A 
ATOM     21  C   UNL     1      45.673   4.481   8.775  0.00  0.00    +0.000 A 
BRANCH  21  22
ATOM     22  O   UNL     1      45.828   5.844   8.751  0.00  0.00    +0.000 OA
ATOM     23  H   UNL     1      46.711   6.052   8.415  0.00  0.00    +0.000 HD
ENDBRANCH  21  22
ENDBRANCH  13  16
ENDBRANCH   1  13
TORSDOF 5
ENDMDL
MODEL 4
REMARK VINA RESULT:    -6.130      3.586      6.743
REMARK INTER + INTRA:          -8.617
REMARK INTER:                  -8.136
REMARK INTRA:                  -0.481
REMARK UNBOUND:                -0.874
REMARK  Name = 
REMARK  5 active torsions:
REMARK  status: ('A' for Active; 'I' for Inactive)
REMARK    1  A    between atoms: C_2  and  C_4
REMARK    2  A    between atoms: C_7  and  O_8
REMARK    3  A    between atoms: O_8  and  C_9
REMARK    4  A    between atoms: C_9  and  C_10
REMARK    5  A    between atoms: C_15  and  O_16
REMARK                            x       y       z     vdW  Elec       q    Type
REMARK                         _______ _______ _______ _____ _____    ______ ____
ROOT
ATOM      1  O   UNL     1      46.890   5.623  12.419  0.00  0.00    +0.000 OA
ENDROOT
BRANCH   1   5
ATOM      2  C   UNL     1      47.918   4.698  16.286  0.00  0.00    +0.000 A 
ATOM      3  C   UNL     1      48.293   5.915  15.723  0.00  0.00    +0.000 A 
ATOM      4  C   UNL     1      47.913   6.194  14.418  0.00  0.00    +0.000 A 
ATOM      5  C   UNL     1      47.157   5.255  13.721  0.00  0.00    +0.000 A 
ATOM      6  N   UNL     1      46.767   4.071  14.226  0.00  0.00    +0.000 NA
ATOM      7  C   UNL     1      47.170   3.815  15.505  0.00  0.00    +0.000 A 
BRANCH   2   9
ATOM      8  N   UNL     1      47.609   3.309  18.258  0.00  0.00    +0.000 N 
ATOM      9  C   UNL     1      48.325   4.308  17.653  0.00  0.00    +0.000 C 
ATOM     10  O   UNL     1      49.270   4.841  18.219  0.00  0.00    +0.000 OA
ATOM     11  H   UNL     1      47.922   3.006  19.172  0.00  0.00    +0.000 HD
ATOM     12  H   UNL     1      46.968   2.705  17.762  0.00  0.00    +0.000 HD
ENDBRANCH   2   9
ENDBRANCH   1   5
BRANCH   1  13
ATOM     13  C   UNL     1      45.531   5.590  11.936  0.00  0.00    +0.000 C 
ATOM     14  C   UNL     1      45.042   7.023  11.719  0.00  0.00    +0.000 C 
ATOM     15  C   UNL     1      44.430   6.184  12.789  0.00  0.00    +0.000 C 
BRANCH  13  16
ATOM     16  C   UNL     1      45.244   4.595  10.818  0.00  0.00    +0.000 A 
ATOM     17  C   UNL     1      45.353   4.942   9.458  0.00  0.00    +0.000 A 
ATOM     18  C   UNL     1      45.056   4.029   8.438  0.00  0.00    +0.000 A 
ATOM     19  C   UNL     1      44.626   2.745   8.754  0.00  0.00    +0.000 A 
ATOM     20  C   UNL     1      44.511   2.364  10.087  0.00  0.00    +0.000 A 
ATOM     21  C   UNL     1      44.825   3.279  11.096  0.00  0.00    +0.000 A 
BRANCH  21  22
ATOM     22  O   UNL     1      44.722   2.886  12.407  0.00  0.00    +0.000 OA
ATOM     23  H   UNL     1      45.168   2.034  12.513  0.00  0.00    +0.000 HD
ENDBRANCH  21  22
ENDBRANCH  13  16
ENDBRANCH   1  13
TORSDOF 5
ENDMDL
MODEL 5
REMARK VINA RESULT:    -5.593      4.492      6.930
REMARK INTER + INTRA:          -7.939
REMARK INTER:                  -7.307
REMARK INTRA:                  -0.632
REMARK UNBOUND:                -0.874
REMARK  Name = 
REMARK  5 active torsions:
REMARK  status: ('A' for Active; 'I' for Inactive)
REMARK    1  A    between atoms: C_2  and  C_4
REMARK    2  A    between atoms: C_7  and  O_8
REMARK    3  A    between atoms: O_8  and  C_9
REMARK    4  A    between atoms: C_9  and  C_10
REMARK    5  A    between atoms: C_15  and  O_16
REMARK                            x       y       z     vdW  Elec       q    Type
REMARK                         _______ _______ _______ _____ _____    ______ ____
ROOT
ATOM      1  O   UNL     1      47.966   3.396  15.476  0.00  0.00    +0.000 OA
ENDROOT
BRANCH   1   5
ATOM      2  C   UNL     1      46.358   6.101  12.836  0.00  0.00    +0.000 A 
ATOM      3  C   UNL     1      45.747   4.868  13.051  0.00  0.00    +0.000 A 
ATOM      4  C   UNL     1      46.315   3.989  13.962  0.00  0.00    +0.000 A 
ATOM      5  C   UNL     1      47.467   4.375  14.643  0.00  0.00    +0.000 A 
ATOM      6  N   UNL     1      48.088   5.557  14.473  0.00  0.00    +0.000 NA
ATOM      7  C   UNL     1      47.518   6.394  13.557  0.00  0.00    +0.000 A 
BRANCH   2   9
ATOM      8  N   UNL     1      45.061   6.579  10.835  0.00  0.00    +0.000 N 
ATOM      9  C   UNL     1      45.841   7.072  11.847  0.00  0.00    +0.000 C 
ATOM     10  O   UNL     1      46.086   8.267  11.933  0.00  0.00    +0.000 OA
ATOM     11  H   UNL     1      44.664   7.251  10.191  0.00  0.00    +0.000 HD
ATOM     12  H   UNL     1      44.664   5.649  10.841  0.00  0.00    +0.000 HD
ENDBRANCH   2   9
ENDBRANCH   1   5
BRANCH   1  13
ATOM     13  C   UNL     1      48.143   3.682  16.879  0.00  0.00    +0.000 C 
ATOM     14  C   UNL     1      47.050   2.968  17.677  0.00  0.00    +0.000 C 
ATOM     15  C   UNL     1      47.071   4.458  17.616  0.00  0.00    +0.000 C 
BRANCH  13  16
ATOM     16  C   UNL     1      49.566   3.558  17.411  0.00  0.00    +0.000 A 
ATOM     17  C   UNL     1      50.135   4.522  18.263  0.00  0.00    +0.000 A 
ATOM     18  C   UNL     1      51.454   4.415  18.720  0.00  0.00    +0.000 A 
ATOM     19  C   UNL     1      52.246   3.343  18.322  0.00  0.00    +0.000 A 
ATOM     20  C   UNL     1      51.716   2.368  17.484  0.00  0.00    +0.000 A 
ATOM     21  C   UNL     1      50.393   2.478  17.046  0.00  0.00    +0.000 A 
BRANCH  21  22
ATOM     22  O   UNL     1      49.878   1.501  16.232  0.00  0.00    +0.000 OA
ATOM     23  H   UNL     1      49.078   1.143  16.643  0.00  0.00    +0.000 HD
ENDBRANCH  21  22
ENDBRANCH  13  16
ENDBRANCH   1  13
TORSDOF 5
ENDMDL
MODEL 6
REMARK VINA RESULT:    -5.544      4.348      7.702
REMARK INTER + INTRA:          -7.877
REMARK INTER:                  -7.693
REMARK INTRA:                  -0.184
REMARK UNBOUND:                -0.874
REMARK  Name = 
REMARK  5 active torsions:
REMARK  status: ('A' for Active; 'I' for Inactive)
REMARK    1  A    between atoms: C_2  and  C_4
REMARK    2  A    between atoms: C_7  and  O_8
REMARK    3  A    between atoms: O_8  and  C_9
REMARK    4  A    between atoms: C_9  and  C_10
REMARK    5  A    between atoms: C_15  and  O_16
REMARK                            x       y       z     vdW  Elec       q    Type
REMARK                         _______ _______ _______ _____ _____    ______ ____
ROOT
ATOM      1  O   UNL     1      47.541   4.880  13.728  0.00  0.00    +0.000 OA
ENDROOT
BRANCH   1   5
ATOM      2  C   UNL     1      47.914   4.849  17.818  0.00  0.00    +0.000 A 
ATOM      3  C   UNL     1      48.594   5.790  17.050  0.00  0.00    +0.000 A 
ATOM      4  C   UNL     1      48.429   5.775  15.672  0.00  0.00    +0.000 A 
ATOM      5  C   UNL     1      47.578   4.830  15.105  0.00  0.00    +0.000 A 
ATOM      6  N   UNL     1      46.896   3.906  15.808  0.00  0.00    +0.000 NA
ATOM      7  C   UNL     1      47.092   3.932  17.159  0.00  0.00    +0.000 A 
BRANCH   2   9
ATOM      8  N   UNL     1      48.479   3.569  19.807  0.00  0.00    +0.000 N 
ATOM      9  C   UNL     1      48.075   4.769  19.286  0.00  0.00    +0.000 C 
ATOM     10  O   UNL     1      47.870   5.736  20.007  0.00  0.00    +0.000 OA
ATOM     11  H   UNL     1      48.640   3.532  20.806  0.00  0.00    +0.000 HD
ATOM     12  H   UNL     1      48.856   2.817  19.247  0.00  0.00    +0.000 HD
ENDBRANCH   2   9
ENDBRANCH   1   5
BRANCH   1  13
ATOM     13  C   UNL     1      46.664   5.820  13.075  0.00  0.00    +0.000 C 
ATOM     14  C   UNL     1      47.474   6.660  12.086  0.00  0.00    +0.000 C 
ATOM     15  C   UNL     1      46.879   7.305  13.291  0.00  0.00    +0.000 C 
BRANCH  13  16
ATOM     16  C   UNL     1      45.341   5.257  12.567  0.00  0.00    +0.000 A 
ATOM     17  C   UNL     1      44.292   6.086  12.128  0.00  0.00    +0.000 A 
ATOM     18  C   UNL     1      43.070   5.559  11.693  0.00  0.00    +0.000 A 
ATOM     19  C   UNL     1      42.860   4.184  11.701  0.00  0.00    +0.000 A 
ATOM     20  C   UNL     1      43.876   3.333  12.125  0.00  0.00    +0.000 A 
ATOM     21  C   UNL     1      45.097   3.870  12.542  0.00  0.00    +0.000 A 
BRANCH  21  22
ATOM     22  O   UNL     1      46.096   3.020  12.942  0.00  0.00    +0.000 OA
ATOM     23  H   UNL     1      46.939   3.496  12.921  0.00  0.00    +0.000 HD
ENDBRANCH  21  22
ENDBRANCH  13  16
ENDBRANCH   1  13
TORSDOF 5
ENDMDL
MODEL 7
REMARK VINA RESULT:    -5.434      3.644      5.775
REMARK INTER + INTRA:          -7.738
REMARK INTER:                  -6.955
REMARK INTRA:                  -0.782
REMARK UNBOUND:                -0.874
REMARK  Name = 
REMARK  5 active torsions:
REMARK  status: ('A' for Active; 'I' for Inactive)
REMARK    1  A    between atoms: C_2  and  C_4
REMARK    2  A    between atoms: C_7  and  O_8
REMARK    3  A    between atoms: O_8  and  C_9
REMARK    4  A    between atoms: C_9  and  C_10
REMARK    5  A    between atoms: C_15  and  O_16
REMARK                            x       y       z     vdW  Elec       q    Type
REMARK                         _______ _______ _______ _____ _____    ______ ____
ROOT
ATOM      1  O   UNL     1      46.823   7.934  12.813  0.00  0.00    +0.000 OA
ENDROOT
BRANCH   1   5
ATOM      2  C   UNL     1      44.869   4.469  11.792  0.00  0.00    +0.000 A 
ATOM      3  C   UNL     1      44.750   5.610  11.003  0.00  0.00    +0.000 A 
ATOM      4  C   UNL     1      45.439   6.756  11.376  0.00  0.00    +0.000 A 
ATOM      5  C   UNL     1      46.237   6.721  12.517  0.00  0.00    +0.000 A 
ATOM      6  N   UNL     1      46.386   5.641  13.304  0.00  0.00    +0.000 NA
ATOM      7  C   UNL     1      45.683   4.534  12.925  0.00  0.00    +0.000 A 
BRANCH   2   9
ATOM      8  N   UNL     1      43.818   2.408  12.543  0.00  0.00    +0.000 N 
ATOM      9  C   UNL     1      44.129   3.224  11.488  0.00  0.00    +0.000 C 
ATOM     10  O   UNL     1      43.795   2.938  10.346  0.00  0.00    +0.000 OA
ATOM     11  H   UNL     1      43.266   1.584  12.340  0.00  0.00    +0.000 HD
ATOM     12  H   UNL     1      43.885   2.697  13.509  0.00  0.00    +0.000 HD
ENDBRANCH   2   9
ENDBRANCH   1   5
BRANCH   1  13
ATOM     13  C   UNL     1      48.261   8.051  12.791  0.00  0.00    +0.000 C 
ATOM     14  C   UNL     1      48.656   9.199  11.861  0.00  0.00    +0.000 C 
ATOM     15  C   UNL     1      49.003   7.796  11.495  0.00  0.00    +0.000 C 
BRANCH  13  16
ATOM     16  C   UNL     1      48.955   8.003  14.147  0.00  0.00    +0.000 A 
ATOM     17  C   UNL     1      50.208   7.387  14.327  0.00  0.00    +0.000 A 
ATOM     18  C   UNL     1      50.822   7.321  15.584  0.00  0.00    +0.000 A 
ATOM     19  C   UNL     1      50.189   7.859  16.700  0.00  0.00    +0.000 A 
ATOM     20  C   UNL     1      48.952   8.480  16.559  0.00  0.00    +0.000 A 
ATOM     21  C   UNL     1      48.356   8.553  15.297  0.00  0.00    +0.000 A 
BRANCH  21  22
ATOM     22  O   UNL     1      47.144   9.182  15.169  0.00  0.00    +0.000 OA
ATOM     23  H   UNL     1      47.060   9.844  15.870  0.00  0.00    +0.000 HD
ENDBRANCH  21  22
ENDBRANCH  13  16
ENDBRANCH   1  13
TORSDOF 5
ENDMDL
MODEL 8
REMARK VINA RESULT:    -5.375      4.483      6.904
REMARK INTER + INTRA:          -7.663
REMARK INTER:                  -6.825
REMARK INTRA:                  -0.838
REMARK UNBOUND:                -0.874
REMARK  Name = 
REMARK  5 active torsions:
REMARK  status: ('A' for Active; 'I' for Inactive)
REMARK    1  A    between atoms: C_2  and  C_4
REMARK    2  A    between atoms: C_7  and  O_8
REMARK    3  A    between atoms: O_8  and  C_9
REMARK    4  A    between atoms: C_9  and  C_10
REMARK    5  A    between atoms: C_15  and  O_16
REMARK                            x       y       z     vdW  Elec       q    Type
REMARK                         _______ _______ _______ _____ _____    ______ ____
ROOT
ATOM      1  O   UNL     1      48.166   4.230  15.395  0.00  0.00    +0.000 OA
ENDROOT
BRANCH   1   5
ATOM      2  C   UNL     1      45.515   6.025  12.822  0.00  0.00    +0.000 A 
ATOM      3  C   UNL     1      46.731   6.631  13.127  0.00  0.00    +0.000 A 
ATOM      4  C   UNL     1      47.604   5.984  13.989  0.00  0.00    +0.000 A 
ATOM      5  C   UNL     1      47.242   4.744  14.509  0.00  0.00    +0.000 A 
ATOM      6  N   UNL     1      46.083   4.118  14.238  0.00  0.00    +0.000 NA
ATOM      7  C   UNL     1      45.235   4.785  13.402  0.00  0.00    +0.000 A 
BRANCH   2   9
ATOM      8  N   UNL     1      44.526   8.041  11.888  0.00  0.00    +0.000 N 
ATOM      9  C   UNL     1      44.511   6.673  11.950  0.00  0.00    +0.000 C 
ATOM     10  O   UNL     1      43.709   6.018  11.299  0.00  0.00    +0.000 OA
ATOM     11  H   UNL     1      43.874   8.480  11.250  0.00  0.00    +0.000 HD
ATOM     12  H   UNL     1      45.289   8.606  12.236  0.00  0.00    +0.000 HD
ENDBRANCH   2   9
ENDBRANCH   1   5
BRANCH   1  13
ATOM     13  C   UNL     1      47.855   4.194  16.803  0.00  0.00    +0.000 C 
ATOM     14  C   UNL     1      48.410   2.903  17.406  0.00  0.00    +0.000 C 
ATOM     15  C   UNL     1      46.936   3.110  17.329  0.00  0.00    +0.000 C 
BRANCH  13  16
ATOM     16  C   UNL     1      48.122   5.478  17.579  0.00  0.00    +0.000 A 
ATOM     17  C   UNL     1      47.240   5.957  18.566  0.00  0.00    +0.000 A 
ATOM     18  C   UNL     1      47.480   7.155  19.250  0.00  0.00    +0.000 A 
ATOM     19  C   UNL     1      48.606   7.916  18.952  0.00  0.00    +0.000 A 
ATOM     20  C   UNL     1      49.503   7.472  17.986  0.00  0.00    +0.000 A 
ATOM     21  C   UNL     1      49.261   6.267  17.320  0.00  0.00    +0.000 A 
BRANCH  21  22
ATOM     22  O   UNL     1      50.161   5.833  16.381  0.00  0.00    +0.000 OA
ATOM     23  H   UNL     1      50.680   6.590  16.072  0.00  0.00    +0.000 HD
ENDBRANCH  21  22
ENDBRANCH  13  16
ENDBRANCH   1  13
TORSDOF 5
ENDMDL
