MODEL 1
REMARK VINA RESULT:    -6.498      0.000      0.000
REMARK INTER + INTRA:          -9.659
REMARK INTER:                  -8.587
REMARK INTRA:                  -1.071
REMARK UNBOUND:                -1.071
REMARK  Name = 
REMARK  7 active torsions:
REMARK  status: ('A' for Active; 'I' for Inactive)
REMARK    1  A    between atoms: C_1  and  C_2
REMARK    2  A    between atoms: C_2  and  N_3
REMARK    3  A    between atoms: C_2  and  C_18
REMARK    4  A    between atoms: C_7  and  C_8
REMARK    5  A    between atoms: C_8  and  N_9
REMARK    6  A    between atoms: N_9  and  C_10
REMARK    7  A    between atoms: C_13  and  N_14
REMARK                            x       y       z     vdW  Elec       q    Type
REMARK                         _______ _______ _______ _____ _____    ______ ____
ROOT
ATOM      1  N   UNL     1      48.115   4.352  16.961  0.00  0.00    +0.000 N 
ATOM      2  C   UNL     1      47.930   4.676  15.639  0.00  0.00    +0.000 A 
ATOM      3  N   UNL     1      47.156   3.840  14.939  0.00  0.00    +0.000 NA
ATOM      4  C   UNL     1      46.677   4.301  13.775  0.00  0.00    +0.000 A 
ATOM      5  C   UNL     1      46.961   5.554  13.272  0.00  0.00    +0.000 A 
ATOM      6  C   UNL     1      47.914   6.253  13.974  0.00  0.00    +0.000 A 
ATOM      7  N   UNL     1      48.401   5.838  15.154  0.00  0.00    +0.000 NA
ATOM      8  H   UNL     1      47.939   3.369  17.140  0.00  0.00    +0.000 HD
ENDROOT
BRANCH   1  10
ATOM      9  C   UNL     1      50.230   3.922  18.097  0.00  0.00    +0.000 C 
ATOM     10  C   UNL     1      49.192   4.981  17.683  0.00  0.00    +0.000 C 
BRANCH  10  11
ATOM     11  C   UNL     1      48.749   5.781  18.891  0.00  0.00    +0.000 A 
ATOM     12  C   UNL     1      48.373   5.234  20.109  0.00  0.00    +0.000 A 
ATOM     13  S   UNL     1      47.542   6.363  21.096  0.00  0.00    +0.000 S 
ATOM     14  C   UNL     1      47.776   7.611  19.960  0.00  0.00    +0.000 A 
ATOM     15  N   UNL     1      47.185   8.830  20.084  0.00  0.00    +0.000 NA
ATOM     16  C   UNL     1      47.512   9.668  19.155  0.00  0.00    +0.000 A 
ATOM     17  N   UNL     1      48.422   9.426  18.153  0.00  0.00    +0.000 N 
ATOM     18  C   UNL     1      49.067   8.220  18.011  0.00  0.00    +0.000 A 
ATOM     19  O   UNL     1      49.949   8.049  17.176  0.00  0.00    +0.000 OA
ATOM     20  C   UNL     1      48.610   7.208  18.939  0.00  0.00    +0.000 A 
ATOM     21  H   UNL     1      48.698  10.154  17.513  0.00  0.00    +0.000 HD
ENDBRANCH  10  11
ENDBRANCH   1  10
BRANCH   5  22
ATOM     22  C   UNL     1      46.122   6.173  12.200  0.00  0.00    +0.000 C 
BRANCH  22  23
ATOM     23  N   UNL     1      44.747   5.676  12.361  0.00  0.00    +0.000 NA
ATOM     24  H   UNL     1      44.214   6.380  12.877  0.00  0.00    +0.000 HD
BRANCH  23  25
ATOM     25  C   UNL     1      44.056   5.417  11.098  0.00  0.00    +0.000 C 
ATOM     26  C   UNL     1      44.913   4.659  10.087  0.00  0.00    +0.000 C 
ATOM     27  C   UNL     1      44.779   3.178  10.437  0.00  0.00    +0.000 C 
ATOM     28  C   UNL     1      43.516   3.036  11.297  0.00  0.00    +0.000 C 
ATOM     29  C   UNL     1      42.894   4.438  11.330  0.00  0.00    +0.000 C 
BRANCH  28  30
ATOM     30  N   UNL     1      43.824   2.554  12.644  0.00  0.00    +0.000 NA
ATOM     31  H   UNL     1      44.636   3.059  13.000  0.00  0.00    +0.000 HD
ATOM     32  H   UNL     1      44.105   1.572  12.607  0.00  0.00    +0.000 HD
ENDBRANCH  28  30
ENDBRANCH  23  25
ENDBRANCH  22  23
ENDBRANCH   5  22
TORSDOF 6
ENDMDL
MODEL 2
REMARK VINA RESULT:    -6.453      4.982      8.700
REMARK INTER + INTRA:          -9.599
REMARK INTER:                  -8.803
REMARK INTRA:                  -0.796
REMARK UNBOUND:                -1.071
REMARK  Name = 
REMARK  7 active torsions:
REMARK  status: ('A' for Active; 'I' for Inactive)
REMARK    1  A    between atoms: C_1  and  C_2
REMARK    2  A    between atoms: C_2  and  N_3
REMARK    3  A    between atoms: C_2  and  C_18
REMARK    4  A    between atoms: C_7  and  C_8
REMARK    5  A    between atoms: C_8  and  N_9
REMARK    6  A    between atoms: N_9  and  C_10
REMARK    7  A    between atoms: C_13  and  N_14
REMARK                            x       y       z     vdW  Elec       q    Type
REMARK                         _______ _______ _______ _____ _____    ______ ____
ROOT
ATOM      1  N   UNL     1      47.327   6.254  12.582  0.00  0.00    +0.000 N 
ATOM      2  C   UNL     1      48.344   7.156  12.776  0.00  0.00    +0.000 A 
ATOM      3  N   UNL     1      49.118   6.939  13.844  0.00  0.00    +0.000 NA
ATOM      4  C   UNL     1      50.301   7.571  13.865  0.00  0.00    +0.000 A 
ATOM      5  C   UNL     1      50.728   8.430  12.874  0.00  0.00    +0.000 A 
ATOM      6  C   UNL     1      49.780   8.730  11.925  0.00  0.00    +0.000 A 
ATOM      7  N   UNL     1      48.594   8.103  11.854  0.00  0.00    +0.000 NA
ATOM      8  H   UNL     1      47.085   5.765  13.436  0.00  0.00    +0.000 HD
ENDROOT
BRANCH   1  10
ATOM      9  C   UNL     1      45.087   7.214  12.481  0.00  0.00    +0.000 C 
ATOM     10  C   UNL     1      46.255   6.603  11.684  0.00  0.00    +0.000 C 
BRANCH  10  11
ATOM     11  C   UNL     1      45.760   5.455  10.827  0.00  0.00    +0.000 A 
ATOM     12  C   UNL     1      45.779   5.437   9.441  0.00  0.00    +0.000 A 
ATOM     13  S   UNL     1      44.780   4.201   8.798  0.00  0.00    +0.000 S 
ATOM     14  C   UNL     1      44.409   3.615  10.354  0.00  0.00    +0.000 A 
ATOM     15  N   UNL     1      43.473   2.652  10.567  0.00  0.00    +0.000 NA
ATOM     16  C   UNL     1      43.356   2.297  11.805  0.00  0.00    +0.000 A 
ATOM     17  N   UNL     1      44.131   2.766  12.839  0.00  0.00    +0.000 N 
ATOM     18  C   UNL     1      45.110   3.714  12.664  0.00  0.00    +0.000 A 
ATOM     19  O   UNL     1      45.861   4.051  13.574  0.00  0.00    +0.000 OA
ATOM     20  C   UNL     1      45.164   4.247  11.319  0.00  0.00    +0.000 A 
ATOM     21  H   UNL     1      44.047   2.382  13.768  0.00  0.00    +0.000 HD
ENDBRANCH  10  11
ENDBRANCH   1  10
BRANCH   5  22
ATOM     22  C   UNL     1      52.169   8.801  12.730  0.00  0.00    +0.000 C 
BRANCH  22  23
ATOM     23  N   UNL     1      52.847   7.704  12.023  0.00  0.00    +0.000 NA
ATOM     24  H   UNL     1      52.276   6.862  12.121  0.00  0.00    +0.000 HD
BRANCH  23  25
ATOM     25  C   UNL     1      53.052   7.952  10.596  0.00  0.00    +0.000 C 
ATOM     26  C   UNL     1      54.500   8.284  10.244  0.00  0.00    +0.000 C 
ATOM     27  C   UNL     1      55.221   6.946  10.090  0.00  0.00    +0.000 C 
ATOM     28  C   UNL     1      54.139   5.879   9.873  0.00  0.00    +0.000 C 
ATOM     29  C   UNL     1      52.819   6.657   9.802  0.00  0.00    +0.000 C 
BRANCH  28  30
ATOM     30  N   UNL     1      54.122   4.891  10.952  0.00  0.00    +0.000 NA
ATOM     31  H   UNL     1      53.211   4.916  11.412  0.00  0.00    +0.000 HD
ATOM     32  H   UNL     1      54.801   5.149  11.672  0.00  0.00    +0.000 HD
ENDBRANCH  28  30
ENDBRANCH  23  25
ENDBRANCH  22  23
ENDBRANCH   5  22
TORSDOF 6
ENDMDL
MODEL 3
REMARK VINA RESULT:    -6.417      2.675      4.507
REMARK INTER + INTRA:          -9.552
REMARK INTER:                  -8.810
REMARK INTRA:                  -0.741
REMARK UNBOUND:                -1.071
REMARK  Name = 
REMARK  7 active torsions:
REMARK  status: ('A' for Active; 'I' for Inactive)
REMARK    1  A    between atoms: C_1  and  C_2
REMARK    2  A    between atoms: C_2  and  N_3
REMARK    3  A    between atoms: C_2  and  C_18
REMARK    4  A    between atoms: C_7  and  C_8
REMARK    5  A    between atoms: C_8  and  N_9
REMARK    6  A    between atoms: N_9  and  C_10
REMARK    7  A    between atoms: C_13  and  N_14
REMARK                            x       y       z     vdW  Elec       q    Type
REMARK                         _______ _______ _______ _____ _____    ______ ____
ROOT
ATOM      1  N   UNL     1      49.551   5.855  16.511  0.00  0.00    +0.000 N 
ATOM      2  C   UNL     1      48.601   6.076  15.544  0.00  0.00    +0.000 A 
ATOM      3  N   UNL     1      48.691   7.242  14.898  0.00  0.00    +0.000 NA
ATOM      4  C   UNL     1      48.021   7.338  13.740  0.00  0.00    +0.000 A 
ATOM      5  C   UNL     1      47.246   6.324  13.217  0.00  0.00    +0.000 A 
ATOM      6  C   UNL     1      47.069   5.247  14.052  0.00  0.00    +0.000 A 
ATOM      7  N   UNL     1      47.738   5.101  15.207  0.00  0.00    +0.000 NA
ATOM      8  H   UNL     1      49.965   6.719  16.842  0.00  0.00    +0.000 HD
ENDROOT
BRANCH   1  10
ATOM      9  C   UNL     1      48.279   5.271  18.510  0.00  0.00    +0.000 C 
ATOM     10  C   UNL     1      49.324   4.809  17.477  0.00  0.00    +0.000 C 
BRANCH  10  11
ATOM     11  C   UNL     1      50.577   4.326  18.180  0.00  0.00    +0.000 A 
ATOM     12  C   UNL     1      51.321   5.078  19.077  0.00  0.00    +0.000 A 
ATOM     13  S   UNL     1      52.873   4.404  19.354  0.00  0.00    +0.000 S 
ATOM     14  C   UNL     1      52.522   3.055  18.373  0.00  0.00    +0.000 A 
ATOM     15  N   UNL     1      53.465   2.136  18.034  0.00  0.00    +0.000 NA
ATOM     16  C   UNL     1      53.011   1.156  17.323  0.00  0.00    +0.000 A 
ATOM     17  N   UNL     1      51.693   0.974  16.975  0.00  0.00    +0.000 N 
ATOM     18  C   UNL     1      50.702   1.861  17.325  0.00  0.00    +0.000 A 
ATOM     19  O   UNL     1      49.518   1.637  17.097  0.00  0.00    +0.000 OA
ATOM     20  C   UNL     1      51.199   3.048  17.988  0.00  0.00    +0.000 A 
ATOM     21  H   UNL     1      51.392   0.141  16.495  0.00  0.00    +0.000 HD
ENDBRANCH  10  11
ENDBRANCH   1  10
BRANCH   5  22
ATOM     22  C   UNL     1      46.843   6.312  11.777  0.00  0.00    +0.000 C 
BRANCH  22  23
ATOM     23  N   UNL     1      45.374   6.330  11.721  0.00  0.00    +0.000 NA
ATOM     24  H   UNL     1      45.080   7.250  11.385  0.00  0.00    +0.000 HD
BRANCH  23  25
ATOM     25  C   UNL     1      44.799   5.317  10.837  0.00  0.00    +0.000 C 
ATOM     26  C   UNL     1      45.115   3.888  11.272  0.00  0.00    +0.000 C 
ATOM     27  C   UNL     1      44.074   3.522  12.328  0.00  0.00    +0.000 C 
ATOM     28  C   UNL     1      42.906   4.504  12.162  0.00  0.00    +0.000 C 
ATOM     29  C   UNL     1      43.266   5.349  10.932  0.00  0.00    +0.000 C 
BRANCH  28  30
ATOM     30  N   UNL     1      42.719   5.337  13.350  0.00  0.00    +0.000 NA
ATOM     31  H   UNL     1      43.597   5.378  13.868  0.00  0.00    +0.000 HD
ATOM     32  H   UNL     1      42.047   4.898  13.982  0.00  0.00    +0.000 HD
ENDBRANCH  28  30
ENDBRANCH  23  25
ENDBRANCH  22  23
ENDBRANCH   5  22
TORSDOF 6
ENDMDL
MODEL 4
REMARK VINA RESULT:    -6.411      3.072      7.156
REMARK INTER + INTRA:          -9.544
REMARK INTER:                  -7.906
REMARK INTRA:                  -1.639
REMARK UNBOUND:                -1.071
REMARK  Name = 
REMARK  7 active torsions:
REMARK  status: ('A' for Active; 'I' for Inactive)
REMARK    1  A    between atoms: C_1  and  C_2
REMARK    2  A    between atoms: C_2  and  N_3
REMARK    3  A    between atoms: C_2  and  C_18
REMARK    4  A    between atoms: C_7  and  C_8
REMARK    5  A    between atoms: C_8  and  N_9
REMARK    6  A    between atoms: N_9  and  C_10
REMARK    7  A    between atoms: C_13  and  N_14
REMARK                            x       y       z     vdW  Elec       q    Type
REMARK                         _______ _______ _______ _____ _____    ______ ____
ROOT
ATOM      1  N   UNL     1      47.672   8.874  14.971  0.00  0.00    +0.000 N 
ATOM      2  C   UNL     1      48.659   8.286  15.723  0.00  0.00    +0.000 A 
ATOM      3  N   UNL     1      48.500   8.357  17.048  0.00  0.00    +0.000 NA
ATOM      4  C   UNL     1      49.236   7.512  17.785  0.00  0.00    +0.000 A 
ATOM      5  C   UNL     1      50.140   6.618  17.252  0.00  0.00    +0.000 A 
ATOM      6  C   UNL     1      50.364   6.762  15.903  0.00  0.00    +0.000 A 
ATOM      7  N   UNL     1      49.635   7.579  15.126  0.00  0.00    +0.000 NA
ATOM      8  H   UNL     1      47.153   9.567  15.499  0.00  0.00    +0.000 HD
ENDROOT
BRANCH   1  10
ATOM      9  C   UNL     1      48.337  10.627  13.410  0.00  0.00    +0.000 C 
ATOM     10  C   UNL     1      47.933   9.150  13.581  0.00  0.00    +0.000 C 
BRANCH  10  11
ATOM     11  C   UNL     1      46.785   8.810  12.651  0.00  0.00    +0.000 A 
ATOM     12  C   UNL     1      45.984   9.741  12.009  0.00  0.00    +0.000 A 
ATOM     13  S   UNL     1      44.549   9.040  11.386  0.00  0.00    +0.000 S 
ATOM     14  C   UNL     1      45.038   7.480  11.866  0.00  0.00    +0.000 A 
ATOM     15  N   UNL     1      44.215   6.400  11.786  0.00  0.00    +0.000 NA
ATOM     16  C   UNL     1      44.768   5.290  12.151  0.00  0.00    +0.000 A 
ATOM     17  N   UNL     1      46.084   5.146  12.525  0.00  0.00    +0.000 N 
ATOM     18  C   UNL     1      46.959   6.204  12.587  0.00  0.00    +0.000 A 
ATOM     19  O   UNL     1      48.152   6.048  12.824  0.00  0.00    +0.000 OA
ATOM     20  C   UNL     1      46.334   7.486  12.336  0.00  0.00    +0.000 A 
ATOM     21  H   UNL     1      46.475   4.236  12.712  0.00  0.00    +0.000 HD
ENDBRANCH  10  11
ENDBRANCH   1  10
BRANCH   5  22
ATOM     22  C   UNL     1      50.640   5.449  18.039  0.00  0.00    +0.000 C 
BRANCH  22  23
ATOM     23  N   UNL     1      50.466   4.244  17.214  0.00  0.00    +0.000 NA
ATOM     24  H   UNL     1      51.388   3.833  17.053  0.00  0.00    +0.000 HD
BRANCH  23  25
ATOM     25  C   UNL     1      49.613   3.223  17.824  0.00  0.00    +0.000 C 
ATOM     26  C   UNL     1      48.527   3.806  18.725  0.00  0.00    +0.000 C 
ATOM     27  C   UNL     1      47.368   4.188  17.805  0.00  0.00    +0.000 C 
ATOM     28  C   UNL     1      47.565   3.414  16.494  0.00  0.00    +0.000 C 
ATOM     29  C   UNL     1      48.786   2.517  16.739  0.00  0.00    +0.000 C 
BRANCH  28  30
ATOM     30  N   UNL     1      47.777   4.310  15.357  0.00  0.00    +0.000 NA
ATOM     31  H   UNL     1      48.206   3.784  14.595  0.00  0.00    +0.000 HD
ATOM     32  H   UNL     1      48.453   5.035  15.606  0.00  0.00    +0.000 HD
ENDBRANCH  28  30
ENDBRANCH  23  25
ENDBRANCH  22  23
ENDBRANCH   5  22
TORSDOF 6
ENDMDL
MODEL 5
REMARK VINA RESULT:    -6.364      2.697      3.945
REMARK INTER + INTRA:          -9.482
REMARK INTER:                  -8.579
REMARK INTRA:                  -0.903
REMARK UNBOUND:                -1.071
REMARK  Name = 
REMARK  7 active torsions:
REMARK  status: ('A' for Active; 'I' for Inactive)
REMARK    1  A    between atoms: C_1  and  C_2
REMARK    2  A    between atoms: C_2  and  N_3
REMARK    3  A    between atoms: C_2  and  C_18
REMARK    4  A    between atoms: C_7  and  C_8
REMARK    5  A    between atoms: C_8  and  N_9
REMARK    6  A    between atoms: N_9  and  C_10
REMARK    7  A    between atoms: C_13  and  N_14
REMARK                            x       y       z     vdW  Elec       q    Type
REMARK                         _______ _______ _______ _____ _____    ______ ____
ROOT
ATOM      1  N   UNL     1      50.056   7.288  14.752  0.00  0.00    +0.000 N 
ATOM      2  C   UNL     1      48.992   7.335  13.885  0.00  0.00    +0.000 A 
ATOM      3  N   UNL     1      49.281   7.694  12.630  0.00  0.00    +0.000 NA
ATOM      4  C   UNL     1      48.356   7.414  11.700  0.00  0.00    +0.000 A 
ATOM      5  C   UNL     1      47.146   6.813  11.978  0.00  0.00    +0.000 A 
ATOM      6  C   UNL     1      46.874   6.663  13.318  0.00  0.00    +0.000 A 
ATOM      7  N   UNL     1      47.779   6.909  14.278  0.00  0.00    +0.000 NA
ATOM      8  H   UNL     1      50.834   7.853  14.430  0.00  0.00    +0.000 HD
ENDROOT
BRANCH   1  10
ATOM      9  C   UNL     1      50.074   8.644  16.780  0.00  0.00    +0.000 C 
ATOM     10  C   UNL     1      49.793   7.258  16.169  0.00  0.00    +0.000 C 
BRANCH  10  11
ATOM     11  C   UNL     1      50.557   6.188  16.923  0.00  0.00    +0.000 A 
ATOM     12  C   UNL     1      51.849   6.328  17.404  0.00  0.00    +0.000 A 
ATOM     13  S   UNL     1      52.550   4.821  17.823  0.00  0.00    +0.000 S 
ATOM     14  C   UNL     1      51.105   3.990  17.473  0.00  0.00    +0.000 A 
ATOM     15  N   UNL     1      51.029   2.632  17.461  0.00  0.00    +0.000 NA
ATOM     16  C   UNL     1      49.844   2.174  17.221  0.00  0.00    +0.000 A 
ATOM     17  N   UNL     1      48.716   2.943  17.057  0.00  0.00    +0.000 N 
ATOM     18  C   UNL     1      48.741   4.317  17.095  0.00  0.00    +0.000 A 
ATOM     19  O   UNL     1      47.715   4.989  17.048  0.00  0.00    +0.000 OA
ATOM     20  C   UNL     1      50.075   4.867  17.207  0.00  0.00    +0.000 A 
ATOM     21  H   UNL     1      47.806   2.519  16.961  0.00  0.00    +0.000 HD
ENDBRANCH  10  11
ENDBRANCH   1  10
BRANCH   5  22
ATOM     22  C   UNL     1      46.328   6.171  10.904  0.00  0.00    +0.000 C 
BRANCH  22  23
ATOM     23  N   UNL     1      45.267   5.388  11.555  0.00  0.00    +0.000 NA
ATOM     24  H   UNL     1      44.960   5.897  12.388  0.00  0.00    +0.000 HD
BRANCH  23  25
ATOM     25  C   UNL     1      44.097   5.151  10.710  0.00  0.00    +0.000 C 
ATOM     26  C   UNL     1      44.377   4.205   9.545  0.00  0.00    +0.000 C 
ATOM     27  C   UNL     1      44.232   2.789  10.099  0.00  0.00    +0.000 C 
ATOM     28  C   UNL     1      43.422   2.899  11.398  0.00  0.00    +0.000 C 
ATOM     29  C   UNL     1      43.029   4.379  11.500  0.00  0.00    +0.000 C 
BRANCH  28  30
ATOM     30  N   UNL     1      44.196   2.468  12.563  0.00  0.00    +0.000 NA
ATOM     31  H   UNL     1      43.704   2.750  13.412  0.00  0.00    +0.000 HD
ATOM     32  H   UNL     1      45.091   2.960  12.587  0.00  0.00    +0.000 HD
ENDBRANCH  28  30
ENDBRANCH  23  25
ENDBRANCH  22  23
ENDBRANCH   5  22
TORSDOF 6
ENDMDL
MODEL 6
REMARK VINA RESULT:    -6.345      5.023      8.972
REMARK INTER + INTRA:          -9.456
REMARK INTER:                  -8.957
REMARK INTRA:                  -0.499
REMARK UNBOUND:                -1.071
REMARK  Name = 
REMARK  7 active torsions:
REMARK  status: ('A' for Active; 'I' for Inactive)
REMARK    1  A    between atoms: C_1  and  C_2
REMARK    2  A    between atoms: C_2  and  N_3
REMARK    3  A    between atoms: C_2  and  C_18
REMARK    4  A    between atoms: C_7  and  C_8
REMARK    5  A    between atoms: C_8  and  N_9
REMARK    6  A    between atoms: N_9  and  C_10
REMARK    7  A    between atoms: C_13  and  N_14
REMARK                            x       y       z     vdW  Elec       q    Type
REMARK                         _______ _______ _______ _____ _____    ______ ____
ROOT
ATOM      1  N   UNL     1      46.888   5.874  12.450  0.00  0.00    +0.000 N 
ATOM      2  C   UNL     1      47.857   6.830  12.633  0.00  0.00    +0.000 A 
ATOM      3  N   UNL     1      48.675   6.636  13.672  0.00  0.00    +0.000 NA
ATOM      4  C   UNL     1      49.820   7.336  13.671  0.00  0.00    +0.000 A 
ATOM      5  C   UNL     1      50.164   8.239  12.688  0.00  0.00    +0.000 A 
ATOM      6  C   UNL     1      49.171   8.502  11.775  0.00  0.00    +0.000 A 
ATOM      7  N   UNL     1      48.022   7.809  11.727  0.00  0.00    +0.000 NA
ATOM      8  H   UNL     1      46.702   5.353  13.300  0.00  0.00    +0.000 HD
ENDROOT
BRANCH   1  10
ATOM      9  C   UNL     1      44.932   7.313  12.214  0.00  0.00    +0.000 C 
ATOM     10  C   UNL     1      45.769   6.178  11.594  0.00  0.00    +0.000 C 
BRANCH  10  11
ATOM     11  C   UNL     1      44.885   4.988  11.276  0.00  0.00    +0.000 A 
ATOM     12  C   UNL     1      43.895   4.493  12.110  0.00  0.00    +0.000 A 
ATOM     13  S   UNL     1      43.387   2.922  11.648  0.00  0.00    +0.000 S 
ATOM     14  C   UNL     1      44.397   2.940  10.276  0.00  0.00    +0.000 A 
ATOM     15  N   UNL     1      44.587   1.842   9.495  0.00  0.00    +0.000 NA
ATOM     16  C   UNL     1      45.348   2.051   8.472  0.00  0.00    +0.000 A 
ATOM     17  N   UNL     1      45.885   3.267   8.118  0.00  0.00    +0.000 N 
ATOM     18  C   UNL     1      45.692   4.408   8.860  0.00  0.00    +0.000 A 
ATOM     19  O   UNL     1      46.091   5.505   8.482  0.00  0.00    +0.000 OA
ATOM     20  C   UNL     1      44.973   4.179  10.096  0.00  0.00    +0.000 A 
ATOM     21  H   UNL     1      46.398   3.379   7.258  0.00  0.00    +0.000 HD
ENDBRANCH  10  11
ENDBRANCH   1  10
BRANCH   5  22
ATOM     22  C   UNL     1      51.577   8.697  12.508  0.00  0.00    +0.000 C 
BRANCH  22  23
ATOM     23  N   UNL     1      52.288   7.668  11.735  0.00  0.00    +0.000 NA
ATOM     24  H   UNL     1      51.675   6.854  11.649  0.00  0.00    +0.000 HD
BRANCH  23  25
ATOM     25  C   UNL     1      52.670   8.093  10.388  0.00  0.00    +0.000 C 
ATOM     26  C   UNL     1      54.134   8.512  10.282  0.00  0.00    +0.000 C 
ATOM     27  C   UNL     1      54.934   7.226  10.077  0.00  0.00    +0.000 C 
ATOM     28  C   UNL     1      53.945   6.159   9.590  0.00  0.00    +0.000 C 
ATOM     29  C   UNL     1      52.609   6.897   9.426  0.00  0.00    +0.000 C 
BRANCH  28  30
ATOM     30  N   UNL     1      53.831   5.048  10.535  0.00  0.00    +0.000 NA
ATOM     31  H   UNL     1      52.844   4.884  10.739  0.00  0.00    +0.000 HD
ATOM     32  H   UNL     1      54.258   5.304  11.428  0.00  0.00    +0.000 HD
ENDBRANCH  28  30
ENDBRANCH  23  25
ENDBRANCH  22  23
ENDBRANCH   5  22
TORSDOF 6
ENDMDL
MODEL 7
REMARK VINA RESULT:    -5.918      4.834      9.076
REMARK INTER + INTRA:          -8.893
REMARK INTER:                  -8.114
REMARK INTRA:                  -0.779
REMARK UNBOUND:                -1.071
REMARK  Name = 
REMARK  7 active torsions:
REMARK  status: ('A' for Active; 'I' for Inactive)
REMARK    1  A    between atoms: C_1  and  C_2
REMARK    2  A    between atoms: C_2  and  N_3
REMARK    3  A    between atoms: C_2  and  C_18
REMARK    4  A    between atoms: C_7  and  C_8
REMARK    5  A    between atoms: C_8  and  N_9
REMARK    6  A    between atoms: N_9  and  C_10
REMARK    7  A    between atoms: C_13  and  N_14
REMARK                            x       y       z     vdW  Elec       q    Type
REMARK                         _______ _______ _______ _____ _____    ______ ____
ROOT
ATOM      1  N   UNL     1      47.236   6.436  12.591  0.00  0.00    +0.000 N 
ATOM      2  C   UNL     1      48.269   7.334  12.704  0.00  0.00    +0.000 A 
ATOM      3  N   UNL     1      49.029   7.209  13.797  0.00  0.00    +0.000 NA
ATOM      4  C   UNL     1      50.224   7.818  13.767  0.00  0.00    +0.000 A 
ATOM      5  C   UNL     1      50.677   8.565  12.700  0.00  0.00    +0.000 A 
ATOM      6  C   UNL     1      49.743   8.786  11.716  0.00  0.00    +0.000 A 
ATOM      7  N   UNL     1      48.547   8.179  11.696  0.00  0.00    +0.000 NA
ATOM      8  H   UNL     1      46.977   6.039  13.487  0.00  0.00    +0.000 HD
ENDROOT
BRANCH   1  10
ATOM      9  C   UNL     1      44.966   7.308  12.393  0.00  0.00    +0.000 C 
ATOM     10  C   UNL     1      46.179   6.714  11.651  0.00  0.00    +0.000 C 
BRANCH  10  11
ATOM     11  C   UNL     1      45.752   5.519  10.821  0.00  0.00    +0.000 A 
ATOM     12  C   UNL     1      45.834   5.446   9.439  0.00  0.00    +0.000 A 
ATOM     13  S   UNL     1      44.896   4.160   8.804  0.00  0.00    +0.000 S 
ATOM     14  C   UNL     1      44.470   3.627  10.365  0.00  0.00    +0.000 A 
ATOM     15  N   UNL     1      43.548   2.649  10.576  0.00  0.00    +0.000 NA
ATOM     16  C   UNL     1      43.384   2.341  11.821  0.00  0.00    +0.000 A 
ATOM     17  N   UNL     1      44.100   2.871  12.869  0.00  0.00    +0.000 N 
ATOM     18  C   UNL     1      45.063   3.837  12.698  0.00  0.00    +0.000 A 
ATOM     19  O   UNL     1      45.763   4.230  13.625  0.00  0.00    +0.000 OA
ATOM     20  C   UNL     1      45.164   4.317  11.336  0.00  0.00    +0.000 A 
ATOM     21  H   UNL     1      43.984   2.523  13.807  0.00  0.00    +0.000 HD
ENDBRANCH  10  11
ENDBRANCH   1  10
BRANCH   5  22
ATOM     22  C   UNL     1      52.127   8.892  12.535  0.00  0.00    +0.000 C 
BRANCH  22  23
ATOM     23  N   UNL     1      52.906   7.789  13.118  0.00  0.00    +0.000 NA
ATOM     24  H   UNL     1      53.358   7.281  12.354  0.00  0.00    +0.000 HD
BRANCH  23  25
ATOM     25  C   UNL     1      53.943   8.221  14.054  0.00  0.00    +0.000 C 
ATOM     26  C   UNL     1      53.920   7.453  15.374  0.00  0.00    +0.000 C 
ATOM     27  C   UNL     1      54.708   6.166  15.134  0.00  0.00    +0.000 C 
ATOM     28  C   UNL     1      55.570   6.397  13.885  0.00  0.00    +0.000 C 
ATOM     29  C   UNL     1      55.330   7.863  13.499  0.00  0.00    +0.000 C 
BRANCH  28  30
ATOM     30  N   UNL     1      55.207   5.490  12.795  0.00  0.00    +0.000 NA
ATOM     31  H   UNL     1      55.062   6.034  11.944  0.00  0.00    +0.000 HD
ATOM     32  H   UNL     1      54.309   5.047  12.995  0.00  0.00    +0.000 HD
ENDBRANCH  28  30
ENDBRANCH  23  25
ENDBRANCH  22  23
ENDBRANCH   5  22
TORSDOF 6
ENDMDL
MODEL 8
REMARK VINA RESULT:    -5.824      2.888      4.370
REMARK INTER + INTRA:          -8.768
REMARK INTER:                  -8.302
REMARK INTRA:                  -0.466
REMARK UNBOUND:                -1.071
REMARK  Name = 
REMARK  7 active torsions:
REMARK  status: ('A' for Active; 'I' for Inactive)
REMARK    1  A    between atoms: C_1  and  C_2
REMARK    2  A    between atoms: C_2  and  N_3
REMARK    3  A    between atoms: C_2  and  C_18
REMARK    4  A    between atoms: C_7  and  C_8
REMARK    5  A    between atoms: C_8  and  N_9
REMARK    6  A    between atoms: N_9  and  C_10
REMARK    7  A    between atoms: C_13  and  N_14
REMARK                            x       y       z     vdW  Elec       q    Type
REMARK                         _______ _______ _______ _____ _____    ______ ____
ROOT
ATOM      1  N   UNL     1      48.656   5.812  15.871  0.00  0.00    +0.000 N 
ATOM      2  C   UNL     1      47.797   5.939  14.808  0.00  0.00    +0.000 A 
ATOM      3  N   UNL     1      47.718   7.159  14.268  0.00  0.00    +0.000 NA
ATOM      4  C   UNL     1      47.178   7.238  13.043  0.00  0.00    +0.000 A 
ATOM      5  C   UNL     1      46.692   6.150  12.349  0.00  0.00    +0.000 A 
ATOM      6  C   UNL     1      46.647   4.981  13.070  0.00  0.00    +0.000 A 
ATOM      7  N   UNL     1      47.196   4.854  14.288  0.00  0.00    +0.000 NA
ATOM      8  H   UNL     1      48.844   6.703  16.318  0.00  0.00    +0.000 HD
ENDROOT
BRANCH   1  10
ATOM      9  C   UNL     1      47.238   4.729  17.535  0.00  0.00    +0.000 C 
ATOM     10  C   UNL     1      48.541   4.651  16.718  0.00  0.00    +0.000 C 
BRANCH  10  11
ATOM     11  C   UNL     1      49.725   4.431  17.639  0.00  0.00    +0.000 A 
ATOM     12  C   UNL     1      50.225   5.373  18.524  0.00  0.00    +0.000 A 
ATOM     13  S   UNL     1      51.789   4.961  19.091  0.00  0.00    +0.000 S 
ATOM     14  C   UNL     1      51.763   3.478  18.253  0.00  0.00    +0.000 A 
ATOM     15  N   UNL     1      52.854   2.671  18.163  0.00  0.00    +0.000 NA
ATOM     16  C   UNL     1      52.638   1.565  17.529  0.00  0.00    +0.000 A 
ATOM     17  N   UNL     1      51.421   1.161  17.033  0.00  0.00    +0.000 N 
ATOM     18  C   UNL     1      50.286   1.930  17.131  0.00  0.00    +0.000 A 
ATOM     19  O   UNL     1      49.187   1.517  16.775  0.00  0.00    +0.000 OA
ATOM     20  C   UNL     1      50.524   3.241  17.697  0.00  0.00    +0.000 A 
ATOM     21  H   UNL     1      51.302   0.246  16.626  0.00  0.00    +0.000 HD
ENDBRANCH  10  11
ENDBRANCH   1  10
BRANCH   5  22
ATOM     22  C   UNL     1      46.465   6.204  10.872  0.00  0.00    +0.000 C 
BRANCH  22  23
ATOM     23  N   UNL     1      45.717   4.998  10.487  0.00  0.00    +0.000 NA
ATOM     24  H   UNL     1      44.881   4.943  11.074  0.00  0.00    +0.000 HD
BRANCH  23  25
ATOM     25  C   UNL     1      45.293   4.981   9.087  0.00  0.00    +0.000 C 
ATOM     26  C   UNL     1      46.263   4.236   8.174  0.00  0.00    +0.000 C 
ATOM     27  C   UNL     1      45.898   2.756   8.277  0.00  0.00    +0.000 C 
ATOM     28  C   UNL     1      44.470   2.687   8.836  0.00  0.00    +0.000 C 
ATOM     29  C   UNL     1      44.010   4.148   8.940  0.00  0.00    +0.000 C 
BRANCH  28  30
ATOM     30  N   UNL     1      44.424   2.017  10.135  0.00  0.00    +0.000 NA
ATOM     31  H   UNL     1      44.772   2.655  10.852  0.00  0.00    +0.000 HD
ATOM     32  H   UNL     1      45.066   1.221  10.140  0.00  0.00    +0.000 HD
ENDBRANCH  28  30
ENDBRANCH  23  25
ENDBRANCH  22  23
ENDBRANCH   5  22
TORSDOF 6
ENDMDL
MODEL 9
REMARK VINA RESULT:    -5.556      2.643      4.123
REMARK INTER + INTRA:          -8.414
REMARK INTER:                  -7.296
REMARK INTRA:                  -1.118
REMARK UNBOUND:                -1.071
REMARK  Name = 
REMARK  7 active torsions:
REMARK  status: ('A' for Active; 'I' for Inactive)
REMARK    1  A    between atoms: C_1  and  C_2
REMARK    2  A    between atoms: C_2  and  N_3
REMARK    3  A    between atoms: C_2  and  C_18
REMARK    4  A    between atoms: C_7  and  C_8
REMARK    5  A    between atoms: C_8  and  N_9
REMARK    6  A    between atoms: N_9  and  C_10
REMARK    7  A    between atoms: C_13  and  N_14
REMARK                            x       y       z     vdW  Elec       q    Type
REMARK                         _______ _______ _______ _____ _____    ______ ____
ROOT
ATOM      1  N   UNL     1      51.190   7.022  16.105  0.00  0.00    +0.000 N 
ATOM      2  C   UNL     1      50.217   7.814  15.545  0.00  0.00    +0.000 A 
ATOM      3  N   UNL     1      50.557   8.438  14.413  0.00  0.00    +0.000 NA
ATOM      4  C   UNL     1      49.549   8.920  13.670  0.00  0.00    +0.000 A 
ATOM      5  C   UNL     1      48.221   8.825  14.027  0.00  0.00    +0.000 A 
ATOM      6  C   UNL     1      47.999   8.339  15.294  0.00  0.00    +0.000 A 
ATOM      7  N   UNL     1      48.975   7.826  16.060  0.00  0.00    +0.000 NA
ATOM      8  H   UNL     1      52.119   7.283  15.793  0.00  0.00    +0.000 HD
ENDROOT
BRANCH   1  10
ATOM      9  C   UNL     1      52.302   6.975  18.276  0.00  0.00    +0.000 C 
ATOM     10  C   UNL     1      51.038   6.605  17.476  0.00  0.00    +0.000 C 
BRANCH  10  11
ATOM     11  C   UNL     1      50.720   5.133  17.649  0.00  0.00    +0.000 A 
ATOM     12  C   UNL     1      51.650   4.108  17.572  0.00  0.00    +0.000 A 
ATOM     13  S   UNL     1      50.908   2.574  17.394  0.00  0.00    +0.000 S 
ATOM     14  C   UNL     1      49.350   3.250  17.532  0.00  0.00    +0.000 A 
ATOM     15  N   UNL     1      48.219   2.527  17.315  0.00  0.00    +0.000 NA
ATOM     16  C   UNL     1      47.126   3.191  17.508  0.00  0.00    +0.000 A 
ATOM     17  N   UNL     1      47.056   4.488  17.961  0.00  0.00    +0.000 N 
ATOM     18  C   UNL     1      48.174   5.244  18.224  0.00  0.00    +0.000 A 
ATOM     19  O   UNL     1      48.100   6.363  18.722  0.00  0.00    +0.000 OA
ATOM     20  C   UNL     1      49.413   4.585  17.871  0.00  0.00    +0.000 A 
ATOM     21  H   UNL     1      46.170   4.917  18.176  0.00  0.00    +0.000 HD
ENDBRANCH  10  11
ENDBRANCH   1  10
BRANCH   5  22
ATOM     22  C   UNL     1      47.127   9.012  13.024  0.00  0.00    +0.000 C 
BRANCH  22  23
ATOM     23  N   UNL     1      46.207   7.871  13.145  0.00  0.00    +0.000 NA
ATOM     24  H   UNL     1      45.271   8.189  12.881  0.00  0.00    +0.000 HD
BRANCH  23  25
ATOM     25  C   UNL     1      46.557   6.731  12.298  0.00  0.00    +0.000 C 
ATOM     26  C   UNL     1      46.933   5.483  13.093  0.00  0.00    +0.000 C 
ATOM     27  C   UNL     1      45.619   4.787  13.445  0.00  0.00    +0.000 C 
ATOM     28  C   UNL     1      44.555   5.331  12.482  0.00  0.00    +0.000 C 
ATOM     29  C   UNL     1      45.318   6.255  11.524  0.00  0.00    +0.000 C 
BRANCH  28  30
ATOM     30  N   UNL     1      43.494   6.048  13.189  0.00  0.00    +0.000 NA
ATOM     31  H   UNL     1      43.717   7.045  13.200  0.00  0.00    +0.000 HD
ATOM     32  H   UNL     1      43.472   5.760  14.169  0.00  0.00    +0.000 HD
ENDBRANCH  28  30
ENDBRANCH  23  25
ENDBRANCH  22  23
ENDBRANCH   5  22
TORSDOF 6
ENDMDL
