MODEL 1
REMARK VINA RESULT:    -7.931      0.000      0.000
REMARK INTER + INTRA:         -12.665
REMARK INTER:                 -11.640
REMARK INTRA:                  -1.025
REMARK UNBOUND:                -1.025
REMARK  Name = 
REMARK  9 active torsions:
REMARK  status: ('A' for Active; 'I' for Inactive)
REMARK    1  A    between atoms: C_1  and  C_2
REMARK    2  A    between atoms: C_2  and  C_3
REMARK    3  A    between atoms: C_3  and  N_4
REMARK    4  A    between atoms: C_3  and  C_26
REMARK    5  A    between atoms: N_4  and  C_5
REMARK    6  A    between atoms: C_5  and  C_6
REMARK    7  A    between atoms: C_9  and  C_10
REMARK    8  A    between atoms: C_10  and  N_11
REMARK    9  A    between atoms: C_12  and  C_14
REMARK                            x       y       z     vdW  Elec       q    Type
REMARK                         _______ _______ _______ _____ _____    ______ ____
ROOT
ATOM      1  C   UNL     1      44.199   6.634  11.782  0.00  0.00    +0.000 A 
ATOM      2  C   UNL     1      44.949   5.962  12.749  0.00  0.00    +0.000 A 
ATOM      3  C   UNL     1      46.032   6.596  13.349  0.00  0.00    +0.000 A 
ATOM      4  C   UNL     1      46.341   7.900  12.973  0.00  0.00    +0.000 A 
ATOM      5  N   UNL     1      45.648   8.563  12.012  0.00  0.00    +0.000 NA
ATOM      6  C   UNL     1      44.601   7.920  11.444  0.00  0.00    +0.000 A 
ENDROOT
BRANCH   1   7
ATOM      7  C   UNL     1      43.044   5.959  11.095  0.00  0.00    +0.000 C 
BRANCH   7   8
ATOM      8  N   UNL     1      43.485   5.163   9.944  0.00  0.00    +0.000 NA
ATOM      9  H   UNL     1      44.065   5.763   9.352  0.00  0.00    +0.000 HD
BRANCH   8  10
ATOM     10  C   UNL     1      44.326   4.009  10.341  0.00  0.00    +0.000 C 
BRANCH  10  11
ATOM     11  C   UNL     1      45.149   3.472   9.164  0.00  0.00    +0.000 A 
ATOM     12  C   UNL     1      45.409   2.107   9.006  0.00  0.00    +0.000 A 
ATOM     13  C   UNL     1      46.247   1.693   7.969  0.00  0.00    +0.000 A 
ATOM     14  C   UNL     1      46.807   2.641   7.124  0.00  0.00    +0.000 A 
ATOM     15  C   UNL     1      46.496   3.971   7.341  0.00  0.00    +0.000 A 
ATOM     16  N   UNL     1      45.682   4.403   8.330  0.00  0.00    +0.000 NA
ENDBRANCH  10  11
BRANCH  10  18
ATOM     17  C   UNL     1      43.791   2.701  12.476  0.00  0.00    +0.000 C 
ATOM     18  C   UNL     1      43.511   2.863  10.986  0.00  0.00    +0.000 C 
ENDBRANCH  10  18
ENDBRANCH   8  10
ENDBRANCH   7   8
ENDBRANCH   1   7
BRANCH   4  19
ATOM     19  C   UNL     1      47.533   8.596  13.586  0.00  0.00    +0.000 C 
BRANCH  19  20
ATOM     20  N   UNL     1      47.904   7.962  14.829  0.00  0.00    +0.000 N 
ATOM     21  C   UNL     1      48.984   7.131  14.942  0.00  0.00    +0.000 C 
ATOM     22  O   UNL     1      49.741   6.910  14.001  0.00  0.00    +0.000 OA
ATOM     23  H   UNL     1      47.180   7.956  15.541  0.00  0.00    +0.000 HD
BRANCH  21  24
ATOM     24  C   UNL     1      49.237   6.576  16.277  0.00  0.00    +0.000 A 
ATOM     25  C   UNL     1      50.019   7.286  17.180  0.00  0.00    +0.000 A 
ATOM     26  S   UNL     1      50.159   6.531  18.703  0.00  0.00    +0.000 S 
ATOM     27  C   UNL     1      49.221   5.204  18.192  0.00  0.00    +0.000 A 
ATOM     28  N   UNL     1      48.967   4.165  19.031  0.00  0.00    +0.000 NA
ATOM     29  C   UNL     1      48.263   3.216  18.508  0.00  0.00    +0.000 A 
ATOM     30  N   UNL     1      47.794   3.212  17.221  0.00  0.00    +0.000 N 
ATOM     31  C   UNL     1      48.005   4.254  16.346  0.00  0.00    +0.000 A 
ATOM     32  O   UNL     1      47.541   4.231  15.209  0.00  0.00    +0.000 OA
ATOM     33  C   UNL     1      48.798   5.343  16.883  0.00  0.00    +0.000 A 
ATOM     34  H   UNL     1      47.245   2.441  16.870  0.00  0.00    +0.000 HD
ENDBRANCH  21  24
ENDBRANCH  19  20
ENDBRANCH   4  19
TORSDOF 8
ENDMDL
MODEL 2
REMARK VINA RESULT:    -7.646      2.098      2.744
REMARK INTER + INTRA:         -12.247
REMARK INTER:                 -11.165
REMARK INTRA:                  -1.082
REMARK UNBOUND:                -1.025
REMARK  Name = 
REMARK  9 active torsions:
REMARK  status: ('A' for Active; 'I' for Inactive)
REMARK    1  A    between atoms: C_1  and  C_2
REMARK    2  A    between atoms: C_2  and  C_3
REMARK    3  A    between atoms: C_3  and  N_4
REMARK    4  A    between atoms: C_3  and  C_26
REMARK    5  A    between atoms: N_4  and  C_5
REMARK    6  A    between atoms: C_5  and  C_6
REMARK    7  A    between atoms: C_9  and  C_10
REMARK    8  A    between atoms: C_10  and  N_11
REMARK    9  A    between atoms: C_12  and  C_14
REMARK                            x       y       z     vdW  Elec       q    Type
REMARK                         _______ _______ _______ _____ _____    ______ ____
ROOT
ATOM      1  C   UNL     1      44.810   6.015  11.740  0.00  0.00    +0.000 A 
ATOM      2  C   UNL     1      45.827   6.753  11.131  0.00  0.00    +0.000 A 
ATOM      3  C   UNL     1      47.012   6.997  11.817  0.00  0.00    +0.000 A 
ATOM      4  C   UNL     1      47.160   6.488  13.105  0.00  0.00    +0.000 A 
ATOM      5  N   UNL     1      46.174   5.797  13.732  0.00  0.00    +0.000 NA
ATOM      6  C   UNL     1      45.032   5.577  13.040  0.00  0.00    +0.000 A 
ENDROOT
BRANCH   1   7
ATOM      7  C   UNL     1      43.507   5.766  11.032  0.00  0.00    +0.000 C 
BRANCH   7   8
ATOM      8  N   UNL     1      43.681   4.890   9.867  0.00  0.00    +0.000 NA
ATOM      9  H   UNL     1      44.157   5.428   9.138  0.00  0.00    +0.000 HD
BRANCH   8  10
ATOM     10  C   UNL     1      44.535   3.715  10.162  0.00  0.00    +0.000 C 
BRANCH  10  11
ATOM     11  C   UNL     1      45.380   3.306   8.950  0.00  0.00    +0.000 A 
ATOM     12  C   UNL     1      45.703   1.970   8.691  0.00  0.00    +0.000 A 
ATOM     13  C   UNL     1      46.557   1.674   7.627  0.00  0.00    +0.000 A 
ATOM     14  C   UNL     1      47.070   2.707   6.856  0.00  0.00    +0.000 A 
ATOM     15  C   UNL     1      46.698   4.001   7.170  0.00  0.00    +0.000 A 
ATOM     16  N   UNL     1      45.867   4.320   8.187  0.00  0.00    +0.000 NA
ENDBRANCH  10  11
BRANCH  10  18
ATOM     17  C   UNL     1      43.468   2.565  12.184  0.00  0.00    +0.000 C 
ATOM     18  C   UNL     1      43.732   2.502  10.684  0.00  0.00    +0.000 C 
ENDBRANCH  10  18
ENDBRANCH   8  10
ENDBRANCH   7   8
ENDBRANCH   1   7
BRANCH   4  19
ATOM     19  C   UNL     1      48.424   6.770  13.882  0.00  0.00    +0.000 C 
BRANCH  19  20
ATOM     20  N   UNL     1      48.165   6.722  15.302  0.00  0.00    +0.000 N 
ATOM     21  C   UNL     1      49.136   6.444  16.223  0.00  0.00    +0.000 C 
ATOM     22  O   UNL     1      50.309   6.267  15.905  0.00  0.00    +0.000 OA
ATOM     23  H   UNL     1      47.185   6.647  15.557  0.00  0.00    +0.000 HD
BRANCH  21  24
ATOM     24  C   UNL     1      48.715   6.448  17.630  0.00  0.00    +0.000 A 
ATOM     25  C   UNL     1      48.802   5.280  18.377  0.00  0.00    +0.000 A 
ATOM     26  S   UNL     1      48.336   5.474  20.006  0.00  0.00    +0.000 S 
ATOM     27  C   UNL     1      47.953   7.115  19.757  0.00  0.00    +0.000 A 
ATOM     28  N   UNL     1      47.469   7.881  20.771  0.00  0.00    +0.000 NA
ATOM     29  C   UNL     1      47.201   9.100  20.438  0.00  0.00    +0.000 A 
ATOM     30  N   UNL     1      47.368   9.620  19.182  0.00  0.00    +0.000 N 
ATOM     31  C   UNL     1      47.879   8.890  18.133  0.00  0.00    +0.000 A 
ATOM     32  O   UNL     1      48.047   9.399  17.028  0.00  0.00    +0.000 OA
ATOM     33  C   UNL     1      48.190   7.510  18.453  0.00  0.00    +0.000 A 
ATOM     34  H   UNL     1      47.142  10.585  18.985  0.00  0.00    +0.000 HD
ENDBRANCH  21  24
ENDBRANCH  19  20
ENDBRANCH   4  19
TORSDOF 8
ENDMDL
MODEL 3
REMARK VINA RESULT:    -7.295      2.824      8.210
REMARK INTER + INTRA:         -11.731
REMARK INTER:                 -10.104
REMARK INTRA:                  -1.627
REMARK UNBOUND:                -1.025
REMARK  Name = 
REMARK  9 active torsions:
REMARK  status: ('A' for Active; 'I' for Inactive)
REMARK    1  A    between atoms: C_1  and  C_2
REMARK    2  A    between atoms: C_2  and  C_3
REMARK    3  A    between atoms: C_3  and  N_4
REMARK    4  A    between atoms: C_3  and  C_26
REMARK    5  A    between atoms: N_4  and  C_5
REMARK    6  A    between atoms: C_5  and  C_6
REMARK    7  A    between atoms: C_9  and  C_10
REMARK    8  A    between atoms: C_10  and  N_11
REMARK    9  A    between atoms: C_12  and  C_14
REMARK                            x       y       z     vdW  Elec       q    Type
REMARK                         _______ _______ _______ _____ _____    ______ ____
ROOT
ATOM      1  C   UNL     1      49.182   7.691  16.286  0.00  0.00    +0.000 A 
ATOM      2  C   UNL     1      48.432   8.777  15.828  0.00  0.00    +0.000 A 
ATOM      3  C   UNL     1      47.946   8.783  14.525  0.00  0.00    +0.000 A 
ATOM      4  C   UNL     1      48.216   7.693  13.702  0.00  0.00    +0.000 A 
ATOM      5  N   UNL     1      48.971   6.642  14.111  0.00  0.00    +0.000 NA
ATOM      6  C   UNL     1      49.432   6.665  15.384  0.00  0.00    +0.000 A 
ENDROOT
BRANCH   1   7
ATOM      7  C   UNL     1      49.746   7.676  17.680  0.00  0.00    +0.000 C 
BRANCH   7   8
ATOM      8  N   UNL     1      48.727   7.317  18.674  0.00  0.00    +0.000 NA
ATOM      9  H   UNL     1      47.838   7.198  18.182  0.00  0.00    +0.000 HD
BRANCH   8  10
ATOM     10  C   UNL     1      49.022   6.031  19.349  0.00  0.00    +0.000 C 
BRANCH  10  11
ATOM     11  C   UNL     1      48.676   4.829  18.461  0.00  0.00    +0.000 A 
ATOM     12  C   UNL     1      49.620   3.846  18.148  0.00  0.00    +0.000 A 
ATOM     13  C   UNL     1      49.269   2.832  17.255  0.00  0.00    +0.000 A 
ATOM     14  C   UNL     1      47.999   2.823  16.695  0.00  0.00    +0.000 A 
ATOM     15  C   UNL     1      47.120   3.826  17.061  0.00  0.00    +0.000 A 
ATOM     16  N   UNL     1      47.426   4.817  17.928  0.00  0.00    +0.000 NA
ENDBRANCH  10  11
BRANCH  10  18
ATOM     17  C   UNL     1      47.489   7.120  21.085  0.00  0.00    +0.000 C 
ATOM     18  C   UNL     1      48.322   5.896  20.721  0.00  0.00    +0.000 C 
ENDBRANCH  10  18
ENDBRANCH   8  10
ENDBRANCH   7   8
ENDBRANCH   1   7
BRANCH   4  19
ATOM     19  C   UNL     1      47.729   7.693  12.272  0.00  0.00    +0.000 C 
BRANCH  19  20
ATOM     20  N   UNL     1      46.987   6.486  11.992  0.00  0.00    +0.000 N 
ATOM     21  C   UNL     1      45.628   6.407  12.117  0.00  0.00    +0.000 C 
ATOM     22  O   UNL     1      44.941   7.376  12.428  0.00  0.00    +0.000 OA
ATOM     23  H   UNL     1      47.545   5.638  11.952  0.00  0.00    +0.000 HD
BRANCH  21  24
ATOM     24  C   UNL     1      45.020   5.113  11.780  0.00  0.00    +0.000 A 
ATOM     25  C   UNL     1      44.341   4.398  12.758  0.00  0.00    +0.000 A 
ATOM     26  S   UNL     1      43.643   2.951  12.183  0.00  0.00    +0.000 S 
ATOM     27  C   UNL     1      44.267   3.207  10.620  0.00  0.00    +0.000 A 
ATOM     28  N   UNL     1      44.045   2.308   9.624  0.00  0.00    +0.000 NA
ATOM     29  C   UNL     1      44.594   2.615   8.496  0.00  0.00    +0.000 A 
ATOM     30  N   UNL     1      45.348   3.738   8.275  0.00  0.00    +0.000 N 
ATOM     31  C   UNL     1      45.576   4.687   9.246  0.00  0.00    +0.000 A 
ATOM     32  O   UNL     1      46.229   5.698   9.003  0.00  0.00    +0.000 OA
ATOM     33  C   UNL     1      44.986   4.385  10.536  0.00  0.00    +0.000 A 
ATOM     34  H   UNL     1      45.749   3.924   7.367  0.00  0.00    +0.000 HD
ENDBRANCH  21  24
ENDBRANCH  19  20
ENDBRANCH   4  19
TORSDOF 8
ENDMDL
MODEL 4
REMARK VINA RESULT:    -7.269      2.606      3.268
REMARK INTER + INTRA:         -11.694
REMARK INTER:                 -10.700
REMARK INTRA:                  -0.994
REMARK UNBOUND:                -1.025
REMARK  Name = 
REMARK  9 active torsions:
REMARK  status: ('A' for Active; 'I' for Inactive)
REMARK    1  A    between atoms: C_1  and  C_2
REMARK    2  A    between atoms: C_2  and  C_3
REMARK    3  A    between atoms: C_3  and  N_4
REMARK    4  A    between atoms: C_3  and  C_26
REMARK    5  A    between atoms: N_4  and  C_5
REMARK    6  A    between atoms: C_5  and  C_6
REMARK    7  A    between atoms: C_9  and  C_10
REMARK    8  A    between atoms: C_10  and  N_11
REMARK    9  A    between atoms: C_12  and  C_14
REMARK                            x       y       z     vdW  Elec       q    Type
REMARK                         _______ _______ _______ _____ _____    ______ ____
ROOT
ATOM      1  C   UNL     1      46.955   5.993  12.883  0.00  0.00    +0.000 A 
ATOM      2  C   UNL     1      47.531   7.264  12.927  0.00  0.00    +0.000 A 
ATOM      3  C   UNL     1      48.293   7.642  14.028  0.00  0.00    +0.000 A 
ATOM      4  C   UNL     1      48.471   6.732  15.066  0.00  0.00    +0.000 A 
ATOM      5  N   UNL     1      47.894   5.503  15.063  0.00  0.00    +0.000 NA
ATOM      6  C   UNL     1      47.156   5.165  13.980  0.00  0.00    +0.000 A 
ENDROOT
BRANCH   1   7
ATOM      7  C   UNL     1      46.100   5.573  11.720  0.00  0.00    +0.000 C 
BRANCH   7   8
ATOM      8  N   UNL     1      45.364   4.335  12.004  0.00  0.00    +0.000 NA
ATOM      9  H   UNL     1      44.869   4.461  12.890  0.00  0.00    +0.000 HD
BRANCH   8  10
ATOM     10  C   UNL     1      44.339   4.036  10.976  0.00  0.00    +0.000 C 
BRANCH  10  11
ATOM     11  C   UNL     1      44.968   3.521   9.676  0.00  0.00    +0.000 A 
ATOM     12  C   UNL     1      45.247   2.165   9.477  0.00  0.00    +0.000 A 
ATOM     13  C   UNL     1      45.910   1.775   8.312  0.00  0.00    +0.000 A 
ATOM     14  C   UNL     1      46.282   2.736   7.383  0.00  0.00    +0.000 A 
ATOM     15  C   UNL     1      45.964   4.056   7.649  0.00  0.00    +0.000 A 
ATOM     16  N   UNL     1      45.315   4.465   8.762  0.00  0.00    +0.000 NA
ENDBRANCH  10  11
BRANCH  10  18
ATOM     17  C   UNL     1      42.385   5.483  11.777  0.00  0.00    +0.000 C 
ATOM     18  C   UNL     1      43.414   5.239  10.679  0.00  0.00    +0.000 C 
ENDBRANCH  10  18
ENDBRANCH   8  10
ENDBRANCH   7   8
ENDBRANCH   1   7
BRANCH   4  19
ATOM     19  C   UNL     1      49.266   7.132  16.287  0.00  0.00    +0.000 C 
BRANCH  19  20
ATOM     20  N   UNL     1      50.240   6.116  16.610  0.00  0.00    +0.000 N 
ATOM     21  C   UNL     1      50.856   6.042  17.828  0.00  0.00    +0.000 C 
ATOM     22  O   UNL     1      50.581   6.807  18.749  0.00  0.00    +0.000 OA
ATOM     23  H   UNL     1      50.633   5.627  15.810  0.00  0.00    +0.000 HD
BRANCH  21  24
ATOM     24  C   UNL     1      51.812   4.942  18.005  0.00  0.00    +0.000 A 
ATOM     25  C   UNL     1      53.113   5.219  18.406  0.00  0.00    +0.000 A 
ATOM     26  S   UNL     1      54.072   3.826  18.626  0.00  0.00    +0.000 S 
ATOM     27  C   UNL     1      52.796   2.806  18.144  0.00  0.00    +0.000 A 
ATOM     28  N   UNL     1      52.962   1.457  18.092  0.00  0.00    +0.000 NA
ATOM     29  C   UNL     1      51.921   0.807  17.689  0.00  0.00    +0.000 A 
ATOM     30  N   UNL     1      50.731   1.383  17.331  0.00  0.00    +0.000 N 
ATOM     31  C   UNL     1      50.510   2.741  17.394  0.00  0.00    +0.000 A 
ATOM     32  O   UNL     1      49.420   3.220  17.096  0.00  0.00    +0.000 OA
ATOM     33  C   UNL     1      51.653   3.519  17.833  0.00  0.00    +0.000 A 
ATOM     34  H   UNL     1      49.951   0.819  17.027  0.00  0.00    +0.000 HD
ENDBRANCH  21  24
ENDBRANCH  19  20
ENDBRANCH   4  19
TORSDOF 8
ENDMDL
MODEL 5
REMARK VINA RESULT:    -6.790      1.497      1.970
REMARK INTER + INTRA:         -10.991
REMARK INTER:                  -9.999
REMARK INTRA:                  -0.992
REMARK UNBOUND:                -1.025
REMARK  Name = 
REMARK  9 active torsions:
REMARK  status: ('A' for Active; 'I' for Inactive)
REMARK    1  A    between atoms: C_1  and  C_2
REMARK    2  A    between atoms: C_2  and  C_3
REMARK    3  A    between atoms: C_3  and  N_4
REMARK    4  A    between atoms: C_3  and  C_26
REMARK    5  A    between atoms: N_4  and  C_5
REMARK    6  A    between atoms: C_5  and  C_6
REMARK    7  A    between atoms: C_9  and  C_10
REMARK    8  A    between atoms: C_10  and  N_11
REMARK    9  A    between atoms: C_12  and  C_14
REMARK                            x       y       z     vdW  Elec       q    Type
REMARK                         _______ _______ _______ _____ _____    ______ ____
ROOT
ATOM      1  C   UNL     1      46.179   7.442  12.360  0.00  0.00    +0.000 A 
ATOM      2  C   UNL     1      47.143   6.448  12.177  0.00  0.00    +0.000 A 
ATOM      3  C   UNL     1      48.396   6.581  12.766  0.00  0.00    +0.000 A 
ATOM      4  C   UNL     1      48.660   7.710  13.536  0.00  0.00    +0.000 A 
ATOM      5  N   UNL     1      47.752   8.707  13.701  0.00  0.00    +0.000 NA
ATOM      6  C   UNL     1      46.543   8.550  13.114  0.00  0.00    +0.000 A 
ENDROOT
BRANCH   1   7
ATOM      7  C   UNL     1      44.828   7.336  11.707  0.00  0.00    +0.000 C 
BRANCH   7   8
ATOM      8  N   UNL     1      44.863   6.472  10.521  0.00  0.00    +0.000 NA
ATOM      9  H   UNL     1      45.799   6.540  10.112  0.00  0.00    +0.000 HD
BRANCH   8  10
ATOM     10  C   UNL     1      44.641   5.045  10.852  0.00  0.00    +0.000 C 
BRANCH  10  11
ATOM     11  C   UNL     1      45.078   4.121   9.710  0.00  0.00    +0.000 A 
ATOM     12  C   UNL     1      44.923   2.733   9.781  0.00  0.00    +0.000 A 
ATOM     13  C   UNL     1      45.431   1.940   8.751  0.00  0.00    +0.000 A 
ATOM     14  C   UNL     1      46.084   2.543   7.684  0.00  0.00    +0.000 A 
ATOM     15  C   UNL     1      46.192   3.922   7.683  0.00  0.00    +0.000 A 
ATOM     16  N   UNL     1      45.702   4.717   8.660  0.00  0.00    +0.000 NA
ENDBRANCH  10  11
BRANCH  10  18
ATOM     17  C   UNL     1      43.033   4.350  12.718  0.00  0.00    +0.000 C 
ATOM     18  C   UNL     1      43.178   4.740  11.251  0.00  0.00    +0.000 C 
ENDBRANCH  10  18
ENDBRANCH   8  10
ENDBRANCH   7   8
ENDBRANCH   1   7
BRANCH   4  19
ATOM     19  C   UNL     1      50.025   7.894  14.156  0.00  0.00    +0.000 C 
BRANCH  19  20
ATOM     20  N   UNL     1      50.016   7.461  15.534  0.00  0.00    +0.000 N 
ATOM     21  C   UNL     1      51.140   7.033  16.182  0.00  0.00    +0.000 C 
ATOM     22  O   UNL     1      52.246   7.037  15.648  0.00  0.00    +0.000 OA
ATOM     23  H   UNL     1      49.097   7.245  15.910  0.00  0.00    +0.000 HD
BRANCH  21  24
ATOM     24  C   UNL     1      50.969   6.640  17.587  0.00  0.00    +0.000 A 
ATOM     25  C   UNL     1      51.745   7.240  18.569  0.00  0.00    +0.000 A 
ATOM     26  S   UNL     1      51.374   6.716  20.149  0.00  0.00    +0.000 S 
ATOM     27  C   UNL     1      50.196   5.631  19.570  0.00  0.00    +0.000 A 
ATOM     28  N   UNL     1      49.496   4.839  20.426  0.00  0.00    +0.000 NA
ATOM     29  C   UNL     1      48.652   4.048  19.851  0.00  0.00    +0.000 A 
ATOM     30  N   UNL     1      48.448   3.976  18.499  0.00  0.00    +0.000 N 
ATOM     31  C   UNL     1      49.113   4.776  17.598  0.00  0.00    +0.000 A 
ATOM     32  O   UNL     1      48.881   4.707  16.395  0.00  0.00    +0.000 OA
ATOM     33  C   UNL     1      50.081   5.678  18.193  0.00  0.00    +0.000 A 
ATOM     34  H   UNL     1      47.768   3.337  18.109  0.00  0.00    +0.000 HD
ENDBRANCH  21  24
ENDBRANCH  19  20
ENDBRANCH   4  19
TORSDOF 8
ENDMDL
MODEL 6
REMARK VINA RESULT:    -6.639      3.171      8.621
REMARK INTER + INTRA:         -10.770
REMARK INTER:                  -9.614
REMARK INTRA:                  -1.156
REMARK UNBOUND:                -1.025
REMARK  Name = 
REMARK  9 active torsions:
REMARK  status: ('A' for Active; 'I' for Inactive)
REMARK    1  A    between atoms: C_1  and  C_2
REMARK    2  A    between atoms: C_2  and  C_3
REMARK    3  A    between atoms: C_3  and  N_4
REMARK    4  A    between atoms: C_3  and  C_26
REMARK    5  A    between atoms: N_4  and  C_5
REMARK    6  A    between atoms: C_5  and  C_6
REMARK    7  A    between atoms: C_9  and  C_10
REMARK    8  A    between atoms: C_10  and  N_11
REMARK    9  A    between atoms: C_12  and  C_14
REMARK                            x       y       z     vdW  Elec       q    Type
REMARK                         _______ _______ _______ _____ _____    ______ ____
ROOT
ATOM      1  C   UNL     1      49.066   7.546  16.246  0.00  0.00    +0.000 A 
ATOM      2  C   UNL     1      48.991   8.764  15.566  0.00  0.00    +0.000 A 
ATOM      3  C   UNL     1      48.465   8.807  14.279  0.00  0.00    +0.000 A 
ATOM      4  C   UNL     1      48.014   7.625  13.697  0.00  0.00    +0.000 A 
ATOM      5  N   UNL     1      48.107   6.424  14.324  0.00  0.00    +0.000 NA
ATOM      6  C   UNL     1      48.625   6.413  15.574  0.00  0.00    +0.000 A 
ENDROOT
BRANCH   1   7
ATOM      7  C   UNL     1      49.660   7.468  17.625  0.00  0.00    +0.000 C 
BRANCH   7   8
ATOM      8  N   UNL     1      49.930   6.082  18.024  0.00  0.00    +0.000 NA
ATOM      9  H   UNL     1      49.243   5.483  17.559  0.00  0.00    +0.000 HD
BRANCH   8  10
ATOM     10  C   UNL     1      51.269   5.617  17.590  0.00  0.00    +0.000 C 
BRANCH  10  11
ATOM     11  C   UNL     1      51.372   4.088  17.599  0.00  0.00    +0.000 A 
ATOM     12  C   UNL     1      52.551   3.429  17.961  0.00  0.00    +0.000 A 
ATOM     13  C   UNL     1      52.609   2.038  17.853  0.00  0.00    +0.000 A 
ATOM     14  C   UNL     1      51.503   1.342  17.384  0.00  0.00    +0.000 A 
ATOM     15  C   UNL     1      50.372   2.066  17.053  0.00  0.00    +0.000 A 
ATOM     16  N   UNL     1      50.281   3.410  17.155  0.00  0.00    +0.000 NA
ENDBRANCH  10  11
BRANCH  10  18
ATOM     17  C   UNL     1      53.372   7.077  17.584  0.00  0.00    +0.000 C 
ATOM     18  C   UNL     1      52.419   6.232  18.422  0.00  0.00    +0.000 C 
ENDBRANCH  10  18
ENDBRANCH   8  10
ENDBRANCH   7   8
ENDBRANCH   1   7
BRANCH   4  19
ATOM     19  C   UNL     1      47.471   7.642  12.288  0.00  0.00    +0.000 C 
BRANCH  19  20
ATOM     20  N   UNL     1      46.761   6.416  12.006  0.00  0.00    +0.000 N 
ATOM     21  C   UNL     1      45.404   6.366  11.852  0.00  0.00    +0.000 C 
ATOM     22  O   UNL     1      44.702   7.373  11.894  0.00  0.00    +0.000 OA
ATOM     23  H   UNL     1      47.285   5.565  12.186  0.00  0.00    +0.000 HD
BRANCH  21  24
ATOM     24  C   UNL     1      44.834   5.046  11.555  0.00  0.00    +0.000 A 
ATOM     25  C   UNL     1      44.106   4.375  12.529  0.00  0.00    +0.000 A 
ATOM     26  S   UNL     1      43.461   2.888  11.998  0.00  0.00    +0.000 S 
ATOM     27  C   UNL     1      44.175   3.066  10.462  0.00  0.00    +0.000 A 
ATOM     28  N   UNL     1      44.025   2.109   9.507  0.00  0.00    +0.000 NA
ATOM     29  C   UNL     1      44.637   2.361   8.398  0.00  0.00    +0.000 A 
ATOM     30  N   UNL     1      45.389   3.481   8.159  0.00  0.00    +0.000 N 
ATOM     31  C   UNL     1      45.546   4.487   9.086  0.00  0.00    +0.000 A 
ATOM     32  O   UNL     1      46.200   5.492   8.825  0.00  0.00    +0.000 OA
ATOM     33  C   UNL     1      44.884   4.248  10.354  0.00  0.00    +0.000 A 
ATOM     34  H   UNL     1      45.841   3.622   7.267  0.00  0.00    +0.000 HD
ENDBRANCH  21  24
ENDBRANCH  19  20
ENDBRANCH   4  19
TORSDOF 8
ENDMDL
MODEL 7
REMARK VINA RESULT:    -6.602      2.419      3.173
REMARK INTER + INTRA:         -10.715
REMARK INTER:                  -9.637
REMARK INTRA:                  -1.078
REMARK UNBOUND:                -1.025
REMARK  Name = 
REMARK  9 active torsions:
REMARK  status: ('A' for Active; 'I' for Inactive)
REMARK    1  A    between atoms: C_1  and  C_2
REMARK    2  A    between atoms: C_2  and  C_3
REMARK    3  A    between atoms: C_3  and  N_4
REMARK    4  A    between atoms: C_3  and  C_26
REMARK    5  A    between atoms: N_4  and  C_5
REMARK    6  A    between atoms: C_5  and  C_6
REMARK    7  A    between atoms: C_9  and  C_10
REMARK    8  A    between atoms: C_10  and  N_11
REMARK    9  A    between atoms: C_12  and  C_14
REMARK                            x       y       z     vdW  Elec       q    Type
REMARK                         _______ _______ _______ _____ _____    ______ ____
ROOT
ATOM      1  C   UNL     1      46.049   7.755  12.269  0.00  0.00    +0.000 A 
ATOM      2  C   UNL     1      47.112   7.016  11.743  0.00  0.00    +0.000 A 
ATOM      3  C   UNL     1      48.392   7.181  12.259  0.00  0.00    +0.000 A 
ATOM      4  C   UNL     1      48.586   8.083  13.302  0.00  0.00    +0.000 A 
ATOM      5  N   UNL     1      47.577   8.837  13.808  0.00  0.00    +0.000 NA
ATOM      6  C   UNL     1      46.342   8.656  13.284  0.00  0.00    +0.000 A 
ENDROOT
BRANCH   1   7
ATOM      7  C   UNL     1      44.661   7.618  11.706  0.00  0.00    +0.000 C 
BRANCH   7   8
ATOM      8  N   UNL     1      44.618   6.665  10.591  0.00  0.00    +0.000 NA
ATOM      9  H   UNL     1      45.490   6.758  10.065  0.00  0.00    +0.000 HD
BRANCH   8  10
ATOM     10  C   UNL     1      44.541   5.258  11.050  0.00  0.00    +0.000 C 
BRANCH  10  11
ATOM     11  C   UNL     1      45.004   4.278   9.965  0.00  0.00    +0.000 A 
ATOM     12  C   UNL     1      45.692   4.709   8.826  0.00  0.00    +0.000 A 
ATOM     13  C   UNL     1      45.999   3.781   7.829  0.00  0.00    +0.000 A 
ATOM     14  C   UNL     1      45.611   2.457   7.986  0.00  0.00    +0.000 A 
ATOM     15  C   UNL     1      44.940   2.108   9.144  0.00  0.00    +0.000 A 
ATOM     16  N   UNL     1      44.637   2.981  10.131  0.00  0.00    +0.000 NA
ENDBRANCH  10  11
BRANCH  10  18
ATOM     17  C   UNL     1      43.084   4.645  13.063  0.00  0.00    +0.000 C 
ATOM     18  C   UNL     1      43.134   4.864  11.555  0.00  0.00    +0.000 C 
ENDBRANCH  10  18
ENDBRANCH   8  10
ENDBRANCH   7   8
ENDBRANCH   1   7
BRANCH   4  19
ATOM     19  C   UNL     1      49.974   8.305  13.855  0.00  0.00    +0.000 C 
BRANCH  19  20
ATOM     20  N   UNL     1      50.353   7.212  14.720  0.00  0.00    +0.000 N 
ATOM     21  C   UNL     1      50.077   7.199  16.059  0.00  0.00    +0.000 C 
ATOM     22  O   UNL     1      49.441   8.095  16.606  0.00  0.00    +0.000 OA
ATOM     23  H   UNL     1      51.056   6.587  14.339  0.00  0.00    +0.000 HD
BRANCH  21  24
ATOM     24  C   UNL     1      50.517   6.009  16.799  0.00  0.00    +0.000 A 
ATOM     25  C   UNL     1      49.573   5.186  17.401  0.00  0.00    +0.000 A 
ATOM     26  S   UNL     1      50.248   3.817  18.162  0.00  0.00    +0.000 S 
ATOM     27  C   UNL     1      51.828   4.302  17.757  0.00  0.00    +0.000 A 
ATOM     28  N   UNL     1      52.905   3.562  18.134  0.00  0.00    +0.000 NA
ATOM     29  C   UNL     1      54.044   4.058  17.780  0.00  0.00    +0.000 A 
ATOM     30  N   UNL     1      54.204   5.228  17.086  0.00  0.00    +0.000 N 
ATOM     31  C   UNL     1      53.143   5.995  16.661  0.00  0.00    +0.000 A 
ATOM     32  O   UNL     1      53.322   7.022  16.012  0.00  0.00    +0.000 OA
ATOM     33  C   UNL     1      51.839   5.485  17.040  0.00  0.00    +0.000 A 
ATOM     34  H   UNL     1      55.123   5.562  16.835  0.00  0.00    +0.000 HD
ENDBRANCH  21  24
ENDBRANCH  19  20
ENDBRANCH   4  19
TORSDOF 8
ENDMDL
MODEL 8
REMARK VINA RESULT:    -6.599      2.961      7.837
REMARK INTER + INTRA:         -10.710
REMARK INTER:                  -9.218
REMARK INTRA:                  -1.492
REMARK UNBOUND:                -1.025
REMARK  Name = 
REMARK  9 active torsions:
REMARK  status: ('A' for Active; 'I' for Inactive)
REMARK    1  A    between atoms: C_1  and  C_2
REMARK    2  A    between atoms: C_2  and  C_3
REMARK    3  A    between atoms: C_3  and  N_4
REMARK    4  A    between atoms: C_3  and  C_26
REMARK    5  A    between atoms: N_4  and  C_5
REMARK    6  A    between atoms: C_5  and  C_6
REMARK    7  A    between atoms: C_9  and  C_10
REMARK    8  A    between atoms: C_10  and  N_11
REMARK    9  A    between atoms: C_12  and  C_14
REMARK                            x       y       z     vdW  Elec       q    Type
REMARK                         _______ _______ _______ _____ _____    ______ ____
ROOT
ATOM      1  C   UNL     1      49.385   7.572  16.308  0.00  0.00    +0.000 A 
ATOM      2  C   UNL     1      48.761   8.804  16.102  0.00  0.00    +0.000 A 
ATOM      3  C   UNL     1      48.244   9.119  14.850  0.00  0.00    +0.000 A 
ATOM      4  C   UNL     1      48.356   8.186  13.823  0.00  0.00    +0.000 A 
ATOM      5  N   UNL     1      48.988   6.996  13.987  0.00  0.00    +0.000 NA
ATOM      6  C   UNL     1      49.482   6.718  15.216  0.00  0.00    +0.000 A 
ENDROOT
BRANCH   1   7
ATOM      7  C   UNL     1      49.979   7.221  17.644  0.00  0.00    +0.000 C 
BRANCH   7   8
ATOM      8  N   UNL     1      48.945   6.885  18.629  0.00  0.00    +0.000 NA
ATOM      9  H   UNL     1      48.046   6.854  18.140  0.00  0.00    +0.000 HD
BRANCH   8  10
ATOM     10  C   UNL     1      49.151   5.549  19.235  0.00  0.00    +0.000 C 
BRANCH  10  11
ATOM     11  C   UNL     1      48.799   4.420  18.260  0.00  0.00    +0.000 A 
ATOM     12  C   UNL     1      49.700   3.392  17.962  0.00  0.00    +0.000 A 
ATOM     13  C   UNL     1      49.355   2.450  16.992  0.00  0.00    +0.000 A 
ATOM     14  C   UNL     1      48.134   2.555  16.341  0.00  0.00    +0.000 A 
ATOM     15  C   UNL     1      47.295   3.595  16.696  0.00  0.00    +0.000 A 
ATOM     16  N   UNL     1      47.595   4.518  17.637  0.00  0.00    +0.000 NA
ENDBRANCH  10  11
BRANCH  10  18
ATOM     17  C   UNL     1      47.246   6.368  20.736  0.00  0.00    +0.000 C 
ATOM     18  C   UNL     1      48.380   5.364  20.563  0.00  0.00    +0.000 C 
ENDBRANCH  10  18
ENDBRANCH   8  10
ENDBRANCH   7   8
ENDBRANCH   1   7
BRANCH   4  19
ATOM     19  C   UNL     1      47.834   8.520  12.445  0.00  0.00    +0.000 C 
BRANCH  19  20
ATOM     20  N   UNL     1      47.261   7.348  11.825  0.00  0.00    +0.000 N 
ATOM     21  C   UNL     1      45.915   7.185  11.655  0.00  0.00    +0.000 C 
ATOM     22  O   UNL     1      45.104   8.051  11.973  0.00  0.00    +0.000 OA
ATOM     23  H   UNL     1      47.883   6.548  11.762  0.00  0.00    +0.000 HD
BRANCH  21  24
ATOM     24  C   UNL     1      45.491   5.944  10.994  0.00  0.00    +0.000 A 
ATOM     25  C   UNL     1      45.834   5.720   9.667  0.00  0.00    +0.000 A 
ATOM     26  S   UNL     1      45.320   4.205   9.075  0.00  0.00    +0.000 S 
ATOM     27  C   UNL     1      44.577   3.817  10.557  0.00  0.00    +0.000 A 
ATOM     28  N   UNL     1      43.922   2.637  10.722  0.00  0.00    +0.000 NA
ATOM     29  C   UNL     1      43.386   2.482  11.888  0.00  0.00    +0.000 A 
ATOM     30  N   UNL     1      43.443   3.402  12.900  0.00  0.00    +0.000 N 
ATOM     31  C   UNL     1      44.117   4.597  12.787  0.00  0.00    +0.000 A 
ATOM     32  O   UNL     1      44.175   5.385  13.727  0.00  0.00    +0.000 OA
ATOM     33  C   UNL     1      44.731   4.824  11.492  0.00  0.00    +0.000 A 
ATOM     34  H   UNL     1      43.006   3.221  13.793  0.00  0.00    +0.000 HD
ENDBRANCH  21  24
ENDBRANCH  19  20
ENDBRANCH   4  19
TORSDOF 8
ENDMDL
MODEL 9
REMARK VINA RESULT:    -6.552      5.240      6.931
REMARK INTER + INTRA:         -10.642
REMARK INTER:                  -9.390
REMARK INTRA:                  -1.252
REMARK UNBOUND:                -1.025
REMARK  Name = 
REMARK  9 active torsions:
REMARK  status: ('A' for Active; 'I' for Inactive)
REMARK    1  A    between atoms: C_1  and  C_2
REMARK    2  A    between atoms: C_2  and  C_3
REMARK    3  A    between atoms: C_3  and  N_4
REMARK    4  A    between atoms: C_3  and  C_26
REMARK    5  A    between atoms: N_4  and  C_5
REMARK    6  A    between atoms: C_5  and  C_6
REMARK    7  A    between atoms: C_9  and  C_10
REMARK    8  A    between atoms: C_10  and  N_11
REMARK    9  A    between atoms: C_12  and  C_14
REMARK                            x       y       z     vdW  Elec       q    Type
REMARK                         _______ _______ _______ _____ _____    ______ ____
ROOT
ATOM      1  C   UNL     1      46.992   7.498  12.566  0.00  0.00    +0.000 A 
ATOM      2  C   UNL     1      48.011   6.561  12.750  0.00  0.00    +0.000 A 
ATOM      3  C   UNL     1      49.336   6.930  12.549  0.00  0.00    +0.000 A 
ATOM      4  C   UNL     1      49.619   8.240  12.171  0.00  0.00    +0.000 A 
ATOM      5  N   UNL     1      48.645   9.160  11.952  0.00  0.00    +0.000 NA
ATOM      6  C   UNL     1      47.365   8.771  12.154  0.00  0.00    +0.000 A 
ENDROOT
BRANCH   1   7
ATOM      7  C   UNL     1      45.549   7.115  12.746  0.00  0.00    +0.000 C 
BRANCH   7   8
ATOM      8  N   UNL     1      44.995   6.497  11.536  0.00  0.00    +0.000 NA
ATOM      9  H   UNL     1      45.670   6.631  10.778  0.00  0.00    +0.000 HD
BRANCH   8  10
ATOM     10  C   UNL     1      44.799   5.035  11.684  0.00  0.00    +0.000 C 
BRANCH  10  11
ATOM     11  C   UNL     1      45.112   4.284  10.384  0.00  0.00    +0.000 A 
ATOM     12  C   UNL     1      45.621   4.937   9.257  0.00  0.00    +0.000 A 
ATOM     13  C   UNL     1      45.792   4.215   8.075  0.00  0.00    +0.000 A 
ATOM     14  C   UNL     1      45.448   2.870   8.041  0.00  0.00    +0.000 A 
ATOM     15  C   UNL     1      44.957   2.295   9.199  0.00  0.00    +0.000 A 
ATOM     16  N   UNL     1      44.789   2.964  10.361  0.00  0.00    +0.000 NA
ENDBRANCH  10  11
BRANCH  10  18
ATOM     17  C   UNL     1      42.319   5.664  11.748  0.00  0.00    +0.000 C 
ATOM     18  C   UNL     1      43.384   4.664  12.184  0.00  0.00    +0.000 C 
ENDBRANCH  10  18
ENDBRANCH   8  10
ENDBRANCH   7   8
ENDBRANCH   1   7
BRANCH   4  19
ATOM     19  C   UNL     1      51.048   8.655  11.912  0.00  0.00    +0.000 C 
BRANCH  19  20
ATOM     20  N   UNL     1      51.449   8.279  10.576  0.00  0.00    +0.000 N 
ATOM     21  C   UNL     1      52.578   8.767   9.978  0.00  0.00    +0.000 C 
ATOM     22  O   UNL     1      53.355   9.519  10.560  0.00  0.00    +0.000 OA
ATOM     23  H   UNL     1      50.722   7.847  10.015  0.00  0.00    +0.000 HD
BRANCH  21  24
ATOM     24  C   UNL     1      52.855   8.277   8.622  0.00  0.00    +0.000 A 
ATOM     25  C   UNL     1      52.756   9.146   7.543  0.00  0.00    +0.000 A 
ATOM     26  S   UNL     1      53.174   8.433   6.051  0.00  0.00    +0.000 S 
ATOM     27  C   UNL     1      53.454   6.924   6.788  0.00  0.00    +0.000 A 
ATOM     28  N   UNL     1      53.833   5.846   6.051  0.00  0.00    +0.000 NA
ATOM     29  C   UNL     1      53.988   4.761   6.734  0.00  0.00    +0.000 A 
ATOM     30  N   UNL     1      53.796   4.655   8.086  0.00  0.00    +0.000 N 
ATOM     31  C   UNL     1      53.439   5.725   8.875  0.00  0.00    +0.000 A 
ATOM     32  O   UNL     1      53.307   5.602  10.090  0.00  0.00    +0.000 OA
ATOM     33  C   UNL     1      53.243   6.969   8.155  0.00  0.00    +0.000 A 
ATOM     34  H   UNL     1      53.938   3.777   8.565  0.00  0.00    +0.000 HD
ENDBRANCH  21  24
ENDBRANCH  19  20
ENDBRANCH   4  19
TORSDOF 8
ENDMDL
