MODEL 1
REMARK VINA RESULT:    -8.413      0.000      0.000
REMARK INTER + INTRA:         -11.580
REMARK INTER:                 -11.118
REMARK INTRA:                  -0.462
REMARK UNBOUND:                -0.462
REMARK  Name = 
REMARK  6 active torsions:
REMARK  status: ('A' for Active; 'I' for Inactive)
REMARK    1  A    between atoms: N_1  and  C_2
REMARK    2  A    between atoms: C_2  and  C_3
REMARK    3  A    between atoms: C_7  and  C_8
REMARK    4  A    between atoms: C_8  and  C_9
REMARK    5  A    between atoms: C_9  and  N_10
REMARK    6  A    between atoms: C_14  and  C_15
REMARK                            x       y       z     vdW  Elec       q    Type
REMARK                         _______ _______ _______ _____ _____    ______ ____
ROOT
ATOM      1  N   UNL     1      43.780   4.951   9.560  0.00  0.00    +0.000 N 
ATOM      2  C   UNL     1      44.576   3.979   8.956  0.00  0.00    +0.000 A 
ATOM      3  N   UNL     1      44.459   2.699   9.346  0.00  0.00    +0.000 NA
ATOM      4  C   UNL     1      45.301   1.799   8.797  0.00  0.00    +0.000 A 
ATOM      5  C   UNL     1      46.242   2.115   7.848  0.00  0.00    +0.000 A 
ATOM      6  C   UNL     1      46.272   3.441   7.490  0.00  0.00    +0.000 A 
ATOM      7  N   UNL     1      45.458   4.387   8.031  0.00  0.00    +0.000 NA
ATOM      8  H   UNL     1      44.261   5.834   9.426  0.00  0.00    +0.000 HD
ENDROOT
BRANCH   5   9
ATOM      9  C   UNL     1      47.148   1.067   7.355  0.00  0.00    +0.000 C 
ATOM     10  N   UNL     1      46.869  -0.234   7.669  0.00  0.00    +0.000 N 
ATOM     11  O   UNL     1      48.143   1.354   6.706  0.00  0.00    +0.000 OA
ATOM     12  H   UNL     1      46.190  -0.526   8.356  0.00  0.00    +0.000 HD
ATOM     13  H   UNL     1      47.569  -0.913   7.391  0.00  0.00    +0.000 HD
ENDBRANCH   5   9
BRANCH   1  14
ATOM     14  C   UNL     1      43.421   4.617  10.943  0.00  0.00    +0.000 C 
BRANCH  14  15
ATOM     15  C   UNL     1      43.608   5.818  11.879  0.00  0.00    +0.000 C 
BRANCH  15  20
ATOM     16  C   UNL     1      46.819   5.264  13.910  0.00  0.00    +0.000 A 
ATOM     17  C   UNL     1      47.728   6.035  13.173  0.00  0.00    +0.000 A 
ATOM     18  C   UNL     1      47.304   6.763  12.063  0.00  0.00    +0.000 A 
ATOM     19  C   UNL     1      45.967   6.713  11.659  0.00  0.00    +0.000 A 
ATOM     20  C   UNL     1      45.042   5.933  12.362  0.00  0.00    +0.000 A 
ATOM     21  C   UNL     1      45.477   5.218  13.491  0.00  0.00    +0.000 A 
BRANCH  16  22
ATOM     22  C   UNL     1      47.292   4.461  15.098  0.00  0.00    +0.000 C 
BRANCH  22  23
ATOM     23  N   UNL     1      47.576   3.073  14.745  0.00  0.00    +0.000 NA
ATOM     24  H   UNL     1      47.030   2.459  15.346  0.00  0.00    +0.000 HD
ATOM     25  H   UNL     1      48.556   2.880  14.948  0.00  0.00    +0.000 HD
ENDBRANCH  22  23
ENDBRANCH  16  22
ENDBRANCH  15  20
ENDBRANCH  14  15
ENDBRANCH   1  14
TORSDOF 6
ENDMDL
MODEL 2
REMARK VINA RESULT:    -8.059      1.776      2.187
REMARK INTER + INTRA:         -11.112
REMARK INTER:                 -10.634
REMARK INTRA:                  -0.478
REMARK UNBOUND:                -0.462
REMARK  Name = 
REMARK  6 active torsions:
REMARK  status: ('A' for Active; 'I' for Inactive)
REMARK    1  A    between atoms: N_1  and  C_2
REMARK    2  A    between atoms: C_2  and  C_3
REMARK    3  A    between atoms: C_7  and  C_8
REMARK    4  A    between atoms: C_8  and  C_9
REMARK    5  A    between atoms: C_9  and  N_10
REMARK    6  A    between atoms: C_14  and  C_15
REMARK                            x       y       z     vdW  Elec       q    Type
REMARK                         _______ _______ _______ _____ _____    ______ ____
ROOT
ATOM      1  N   UNL     1      43.762   4.709   9.881  0.00  0.00    +0.000 N 
ATOM      2  C   UNL     1      44.663   4.004   9.085  0.00  0.00    +0.000 A 
ATOM      3  N   UNL     1      44.653   2.662   9.109  0.00  0.00    +0.000 NA
ATOM      4  C   UNL     1      45.591   2.016   8.388  0.00  0.00    +0.000 A 
ATOM      5  C   UNL     1      46.530   2.652   7.614  0.00  0.00    +0.000 A 
ATOM      6  C   UNL     1      46.450   4.024   7.628  0.00  0.00    +0.000 A 
ATOM      7  N   UNL     1      45.535   4.719   8.354  0.00  0.00    +0.000 NA
ATOM      8  H   UNL     1      44.163   5.631  10.016  0.00  0.00    +0.000 HD
ENDROOT
BRANCH   5   9
ATOM      9  C   UNL     1      47.546   1.854   6.911  0.00  0.00    +0.000 C 
ATOM     10  N   UNL     1      48.608   2.505   6.347  0.00  0.00    +0.000 N 
ATOM     11  O   UNL     1      47.429   0.642   6.808  0.00  0.00    +0.000 OA
ATOM     12  H   UNL     1      48.667   3.505   6.221  0.00  0.00    +0.000 HD
ATOM     13  H   UNL     1      49.233   1.930   5.793  0.00  0.00    +0.000 HD
ENDBRANCH   5   9
BRANCH   1  14
ATOM     14  C   UNL     1      43.389   3.984  11.100  0.00  0.00    +0.000 C 
BRANCH  14  15
ATOM     15  C   UNL     1      43.375   4.909  12.323  0.00  0.00    +0.000 C 
BRANCH  15  20
ATOM     16  C   UNL     1      46.392   7.135  13.150  0.00  0.00    +0.000 A 
ATOM     17  C   UNL     1      47.321   6.170  13.563  0.00  0.00    +0.000 A 
ATOM     18  C   UNL     1      46.997   4.814  13.531  0.00  0.00    +0.000 A 
ATOM     19  C   UNL     1      45.730   4.405  13.106  0.00  0.00    +0.000 A 
ATOM     20  C   UNL     1      44.775   5.348  12.710  0.00  0.00    +0.000 A 
ATOM     21  C   UNL     1      45.119   6.710  12.729  0.00  0.00    +0.000 A 
BRANCH  16  22
ATOM     22  C   UNL     1      46.745   8.602  13.208  0.00  0.00    +0.000 C 
BRANCH  22  23
ATOM     23  N   UNL     1      47.124   9.022  14.554  0.00  0.00    +0.000 NA
ATOM     24  H   UNL     1      47.983   9.567  14.502  0.00  0.00    +0.000 HD
ATOM     25  H   UNL     1      47.340   8.194  15.105  0.00  0.00    +0.000 HD
ENDBRANCH  22  23
ENDBRANCH  16  22
ENDBRANCH  15  20
ENDBRANCH  14  15
ENDBRANCH   1  14
TORSDOF 6
ENDMDL
MODEL 3
REMARK VINA RESULT:    -7.720      2.781      6.237
REMARK INTER + INTRA:         -10.664
REMARK INTER:                 -10.080
REMARK INTRA:                  -0.583
REMARK UNBOUND:                -0.462
REMARK  Name = 
REMARK  6 active torsions:
REMARK  status: ('A' for Active; 'I' for Inactive)
REMARK    1  A    between atoms: N_1  and  C_2
REMARK    2  A    between atoms: C_2  and  C_3
REMARK    3  A    between atoms: C_7  and  C_8
REMARK    4  A    between atoms: C_8  and  C_9
REMARK    5  A    between atoms: C_9  and  N_10
REMARK    6  A    between atoms: C_14  and  C_15
REMARK                            x       y       z     vdW  Elec       q    Type
REMARK                         _______ _______ _______ _____ _____    ______ ____
ROOT
ATOM      1  N   UNL     1      43.910   3.653  12.888  0.00  0.00    +0.000 N 
ATOM      2  C   UNL     1      45.013   4.493  13.039  0.00  0.00    +0.000 A 
ATOM      3  N   UNL     1      45.103   5.602  12.288  0.00  0.00    +0.000 NA
ATOM      4  C   UNL     1      46.222   6.347  12.405  0.00  0.00    +0.000 A 
ATOM      5  C   UNL     1      47.250   6.050  13.265  0.00  0.00    +0.000 A 
ATOM      6  C   UNL     1      47.060   4.913  14.013  0.00  0.00    +0.000 A 
ATOM      7  N   UNL     1      45.960   4.120  13.915  0.00  0.00    +0.000 NA
ATOM      8  H   UNL     1      44.200   2.742  13.224  0.00  0.00    +0.000 HD
ENDROOT
BRANCH   5   9
ATOM      9  C   UNL     1      48.451   6.898  13.274  0.00  0.00    +0.000 C 
ATOM     10  N   UNL     1      48.567   7.870  12.319  0.00  0.00    +0.000 N 
ATOM     11  O   UNL     1      49.338   6.719  14.095  0.00  0.00    +0.000 OA
ATOM     12  H   UNL     1      47.980   7.944  11.502  0.00  0.00    +0.000 HD
ATOM     13  H   UNL     1      49.450   8.367  12.303  0.00  0.00    +0.000 HD
ENDBRANCH   5   9
BRANCH   1  14
ATOM     14  C   UNL     1      43.347   3.691  11.534  0.00  0.00    +0.000 C 
BRANCH  14  15
ATOM     15  C   UNL     1      43.749   2.454  10.722  0.00  0.00    +0.000 C 
BRANCH  15  20
ATOM     16  C   UNL     1      46.346   2.111   7.915  0.00  0.00    +0.000 A 
ATOM     17  C   UNL     1      46.401   3.431   7.450  0.00  0.00    +0.000 A 
ATOM     18  C   UNL     1      45.647   4.431   8.063  0.00  0.00    +0.000 A 
ATOM     19  C   UNL     1      44.809   4.120   9.136  0.00  0.00    +0.000 A 
ATOM     20  C   UNL     1      44.717   2.805   9.607  0.00  0.00    +0.000 A 
ATOM     21  C   UNL     1      45.495   1.809   8.994  0.00  0.00    +0.000 A 
BRANCH  16  22
ATOM     22  C   UNL     1      47.150   1.031   7.232  0.00  0.00    +0.000 C 
BRANCH  22  23
ATOM     23  N   UNL     1      46.800  -0.302   7.713  0.00  0.00    +0.000 NA
ATOM     24  H   UNL     1      46.206  -0.214   8.536  0.00  0.00    +0.000 HD
ATOM     25  H   UNL     1      47.651  -0.771   8.020  0.00  0.00    +0.000 HD
ENDBRANCH  22  23
ENDBRANCH  16  22
ENDBRANCH  15  20
ENDBRANCH  14  15
ENDBRANCH   1  14
TORSDOF 6
ENDMDL
MODEL 4
REMARK VINA RESULT:    -7.606      1.543      1.998
REMARK INTER + INTRA:         -10.514
REMARK INTER:                 -10.282
REMARK INTRA:                  -0.232
REMARK UNBOUND:                -0.462
REMARK  Name = 
REMARK  6 active torsions:
REMARK  status: ('A' for Active; 'I' for Inactive)
REMARK    1  A    between atoms: N_1  and  C_2
REMARK    2  A    between atoms: C_2  and  C_3
REMARK    3  A    between atoms: C_7  and  C_8
REMARK    4  A    between atoms: C_8  and  C_9
REMARK    5  A    between atoms: C_9  and  N_10
REMARK    6  A    between atoms: C_14  and  C_15
REMARK                            x       y       z     vdW  Elec       q    Type
REMARK                         _______ _______ _______ _____ _____    ______ ____
ROOT
ATOM      1  N   UNL     1      43.859   4.978   9.645  0.00  0.00    +0.000 N 
ATOM      2  C   UNL     1      44.620   3.988   9.024  0.00  0.00    +0.000 A 
ATOM      3  N   UNL     1      44.490   2.712   9.421  0.00  0.00    +0.000 NA
ATOM      4  C   UNL     1      45.299   1.795   8.854  0.00  0.00    +0.000 A 
ATOM      5  C   UNL     1      46.221   2.089   7.879  0.00  0.00    +0.000 A 
ATOM      6  C   UNL     1      46.267   3.414   7.516  0.00  0.00    +0.000 A 
ATOM      7  N   UNL     1      45.486   4.377   8.074  0.00  0.00    +0.000 NA
ATOM      8  H   UNL     1      44.353   5.851   9.495  0.00  0.00    +0.000 HD
ENDROOT
BRANCH   5   9
ATOM      9  C   UNL     1      47.094   1.023   7.367  0.00  0.00    +0.000 C 
ATOM     10  N   UNL     1      46.787  -0.273   7.675  0.00  0.00    +0.000 N 
ATOM     11  O   UNL     1      48.088   1.290   6.707  0.00  0.00    +0.000 OA
ATOM     12  H   UNL     1      46.109  -0.553   8.367  0.00  0.00    +0.000 HD
ATOM     13  H   UNL     1      47.465  -0.967   7.381  0.00  0.00    +0.000 HD
ENDBRANCH   5   9
BRANCH   1  14
ATOM     14  C   UNL     1      43.531   4.655  11.038  0.00  0.00    +0.000 C 
BRANCH  14  15
ATOM     15  C   UNL     1      44.781   4.654  11.926  0.00  0.00    +0.000 C 
BRANCH  15  20
ATOM     16  C   UNL     1      47.372   7.486  12.016  0.00  0.00    +0.000 A 
ATOM     17  C   UNL     1      46.531   8.605  12.072  0.00  0.00    +0.000 A 
ATOM     18  C   UNL     1      45.147   8.450  12.129  0.00  0.00    +0.000 A 
ATOM     19  C   UNL     1      44.582   7.173  12.107  0.00  0.00    +0.000 A 
ATOM     20  C   UNL     1      45.397   6.037  12.028  0.00  0.00    +0.000 A 
ATOM     21  C   UNL     1      46.792   6.205  11.990  0.00  0.00    +0.000 A 
BRANCH  16  22
ATOM     22  C   UNL     1      48.869   7.664  11.934  0.00  0.00    +0.000 C 
BRANCH  22  23
ATOM     23  N   UNL     1      49.584   6.702  12.767  0.00  0.00    +0.000 NA
ATOM     24  H   UNL     1      48.908   6.131  13.271  0.00  0.00    +0.000 HD
ATOM     25  H   UNL     1      50.114   7.211  13.472  0.00  0.00    +0.000 HD
ENDBRANCH  22  23
ENDBRANCH  16  22
ENDBRANCH  15  20
ENDBRANCH  14  15
ENDBRANCH   1  14
TORSDOF 6
ENDMDL
MODEL 5
REMARK VINA RESULT:    -7.025      3.407      7.345
REMARK INTER + INTRA:          -9.746
REMARK INTER:                  -9.455
REMARK INTRA:                  -0.291
REMARK UNBOUND:                -0.462
REMARK  Name = 
REMARK  6 active torsions:
REMARK  status: ('A' for Active; 'I' for Inactive)
REMARK    1  A    between atoms: N_1  and  C_2
REMARK    2  A    between atoms: C_2  and  C_3
REMARK    3  A    between atoms: C_7  and  C_8
REMARK    4  A    between atoms: C_8  and  C_9
REMARK    5  A    between atoms: C_9  and  N_10
REMARK    6  A    between atoms: C_14  and  C_15
REMARK                            x       y       z     vdW  Elec       q    Type
REMARK                         _______ _______ _______ _____ _____    ______ ____
ROOT
ATOM      1  N   UNL     1      44.799   6.383  10.553  0.00  0.00    +0.000 N 
ATOM      2  C   UNL     1      45.643   6.980  11.490  0.00  0.00    +0.000 A 
ATOM      3  N   UNL     1      46.871   6.474  11.684  0.00  0.00    +0.000 NA
ATOM      4  C   UNL     1      47.629   7.026  12.653  0.00  0.00    +0.000 A 
ATOM      5  C   UNL     1      47.225   8.088  13.425  0.00  0.00    +0.000 A 
ATOM      6  C   UNL     1      45.966   8.557  13.139  0.00  0.00    +0.000 A 
ATOM      7  N   UNL     1      45.158   8.020  12.186  0.00  0.00    +0.000 NA
ATOM      8  H   UNL     1      43.854   6.639  10.820  0.00  0.00    +0.000 HD
ENDROOT
BRANCH   5   9
ATOM      9  C   UNL     1      48.107   8.579  14.494  0.00  0.00    +0.000 C 
ATOM     10  N   UNL     1      47.534   9.113  15.615  0.00  0.00    +0.000 N 
ATOM     11  O   UNL     1      49.322   8.538  14.372  0.00  0.00    +0.000 OA
ATOM     12  H   UNL     1      46.559   9.358  15.700  0.00  0.00    +0.000 HD
ATOM     13  H   UNL     1      48.176   9.523  16.284  0.00  0.00    +0.000 HD
ENDBRANCH   5   9
BRANCH   1  14
ATOM     14  C   UNL     1      45.055   4.949  10.387  0.00  0.00    +0.000 C 
BRANCH  14  15
ATOM     15  C   UNL     1      44.280   4.373   9.195  0.00  0.00    +0.000 C 
BRANCH  15  20
ATOM     16  C   UNL     1      46.591   2.569   6.715  0.00  0.00    +0.000 A 
ATOM     17  C   UNL     1      46.627   1.287   7.280  0.00  0.00    +0.000 A 
ATOM     18  C   UNL     1      45.879   0.992   8.419  0.00  0.00    +0.000 A 
ATOM     19  C   UNL     1      45.100   1.983   9.023  0.00  0.00    +0.000 A 
ATOM     20  C   UNL     1      45.064   3.278   8.494  0.00  0.00    +0.000 A 
ATOM     21  C   UNL     1      45.808   3.559   7.335  0.00  0.00    +0.000 A 
BRANCH  16  22
ATOM     22  C   UNL     1      47.422   2.885   5.495  0.00  0.00    +0.000 C 
BRANCH  22  23
ATOM     23  N   UNL     1      48.512   1.931   5.310  0.00  0.00    +0.000 NA
ATOM     24  H   UNL     1      49.400   2.411   5.442  0.00  0.00    +0.000 HD
ATOM     25  H   UNL     1      48.500   1.605   4.346  0.00  0.00    +0.000 HD
ENDBRANCH  22  23
ENDBRANCH  16  22
ENDBRANCH  15  20
ENDBRANCH  14  15
ENDBRANCH   1  14
TORSDOF 6
ENDMDL
MODEL 6
REMARK VINA RESULT:    -6.691      3.735      6.145
REMARK INTER + INTRA:          -9.304
REMARK INTER:                  -8.983
REMARK INTRA:                  -0.321
REMARK UNBOUND:                -0.462
REMARK  Name = 
REMARK  6 active torsions:
REMARK  status: ('A' for Active; 'I' for Inactive)
REMARK    1  A    between atoms: N_1  and  C_2
REMARK    2  A    between atoms: C_2  and  C_3
REMARK    3  A    between atoms: C_7  and  C_8
REMARK    4  A    between atoms: C_8  and  C_9
REMARK    5  A    between atoms: C_9  and  N_10
REMARK    6  A    between atoms: C_14  and  C_15
REMARK                            x       y       z     vdW  Elec       q    Type
REMARK                         _______ _______ _______ _____ _____    ______ ____
ROOT
ATOM      1  N   UNL     1      47.205   3.456  14.657  0.00  0.00    +0.000 N 
ATOM      2  C   UNL     1      46.371   3.848  13.611  0.00  0.00    +0.000 A 
ATOM      3  N   UNL     1      46.106   5.152  13.434  0.00  0.00    +0.000 NA
ATOM      4  C   UNL     1      45.232   5.487  12.462  0.00  0.00    +0.000 A 
ATOM      5  C   UNL     1      44.627   4.574  11.634  0.00  0.00    +0.000 A 
ATOM      6  C   UNL     1      44.976   3.266  11.870  0.00  0.00    +0.000 A 
ATOM      7  N   UNL     1      45.836   2.880  12.849  0.00  0.00    +0.000 NA
ATOM      8  H   UNL     1      46.977   2.488  14.854  0.00  0.00    +0.000 HD
ENDROOT
BRANCH   5   9
ATOM      9  C   UNL     1      43.645   5.040  10.644  0.00  0.00    +0.000 C 
ATOM     10  N   UNL     1      43.827   4.690   9.334  0.00  0.00    +0.000 N 
ATOM     11  O   UNL     1      42.706   5.748  10.977  0.00  0.00    +0.000 OA
ATOM     12  H   UNL     1      44.671   4.283   8.961  0.00  0.00    +0.000 HD
ATOM     13  H   UNL     1      43.181   5.109   8.674  0.00  0.00    +0.000 HD
ENDBRANCH   5   9
BRANCH   1  14
ATOM     14  C   UNL     1      47.156   4.374  15.800  0.00  0.00    +0.000 C 
BRANCH  14  15
ATOM     15  C   UNL     1      47.533   3.667  17.107  0.00  0.00    +0.000 C 
BRANCH  15  20
ATOM     16  C   UNL     1      51.205   2.622  17.514  0.00  0.00    +0.000 A 
ATOM     17  C   UNL     1      51.809   3.870  17.713  0.00  0.00    +0.000 A 
ATOM     18  C   UNL     1      51.039   5.031  17.763  0.00  0.00    +0.000 A 
ATOM     19  C   UNL     1      49.654   4.963  17.592  0.00  0.00    +0.000 A 
ATOM     20  C   UNL     1      49.026   3.732  17.370  0.00  0.00    +0.000 A 
ATOM     21  C   UNL     1      49.810   2.566  17.340  0.00  0.00    +0.000 A 
BRANCH  16  22
ATOM     22  C   UNL     1      52.050   1.372  17.441  0.00  0.00    +0.000 C 
BRANCH  22  23
ATOM     23  N   UNL     1      51.443   0.256  18.160  0.00  0.00    +0.000 NA
ATOM     24  H   UNL     1      51.521  -0.587  17.594  0.00  0.00    +0.000 HD
ATOM     25  H   UNL     1      50.447   0.440  18.268  0.00  0.00    +0.000 HD
ENDBRANCH  22  23
ENDBRANCH  16  22
ENDBRANCH  15  20
ENDBRANCH  14  15
ENDBRANCH   1  14
TORSDOF 6
ENDMDL
MODEL 7
REMARK VINA RESULT:    -6.429      3.503      7.372
REMARK INTER + INTRA:          -8.958
REMARK INTER:                  -8.622
REMARK INTRA:                  -0.336
REMARK UNBOUND:                -0.462
REMARK  Name = 
REMARK  6 active torsions:
REMARK  status: ('A' for Active; 'I' for Inactive)
REMARK    1  A    between atoms: N_1  and  C_2
REMARK    2  A    between atoms: C_2  and  C_3
REMARK    3  A    between atoms: C_7  and  C_8
REMARK    4  A    between atoms: C_8  and  C_9
REMARK    5  A    between atoms: C_9  and  N_10
REMARK    6  A    between atoms: C_14  and  C_15
REMARK                            x       y       z     vdW  Elec       q    Type
REMARK                         _______ _______ _______ _____ _____    ______ ____
ROOT
ATOM      1  N   UNL     1      46.672   5.529  12.755  0.00  0.00    +0.000 N 
ATOM      2  C   UNL     1      47.171   5.273  14.032  0.00  0.00    +0.000 A 
ATOM      3  N   UNL     1      46.656   4.260  14.747  0.00  0.00    +0.000 NA
ATOM      4  C   UNL     1      47.107   4.092  16.007  0.00  0.00    +0.000 A 
ATOM      5  C   UNL     1      48.077   4.877  16.581  0.00  0.00    +0.000 A 
ATOM      6  C   UNL     1      48.565   5.871  15.767  0.00  0.00    +0.000 A 
ATOM      7  N   UNL     1      48.127   6.091  14.499  0.00  0.00    +0.000 NA
ATOM      8  H   UNL     1      46.891   6.499  12.555  0.00  0.00    +0.000 HD
ENDROOT
BRANCH   5   9
ATOM      9  C   UNL     1      48.457   4.645  17.982  0.00  0.00    +0.000 C 
ATOM     10  N   UNL     1      47.831   3.640  18.667  0.00  0.00    +0.000 N 
ATOM     11  O   UNL     1      49.290   5.351  18.531  0.00  0.00    +0.000 OA
ATOM     12  H   UNL     1      47.007   3.154  18.347  0.00  0.00    +0.000 HD
ATOM     13  H   UNL     1      48.055   3.576  19.654  0.00  0.00    +0.000 HD
ENDBRANCH   5   9
BRANCH   1  14
ATOM     14  C   UNL     1      45.266   5.142  12.604  0.00  0.00    +0.000 C 
BRANCH  14  15
ATOM     15  C   UNL     1      44.711   5.558  11.236  0.00  0.00    +0.000 C 
BRANCH  15  20
ATOM     16  C   UNL     1      45.896   3.661   8.115  0.00  0.00    +0.000 A 
ATOM     17  C   UNL     1      45.349   2.394   8.358  0.00  0.00    +0.000 A 
ATOM     18  C   UNL     1      44.567   2.164   9.489  0.00  0.00    +0.000 A 
ATOM     19  C   UNL     1      44.340   3.193  10.407  0.00  0.00    +0.000 A 
ATOM     20  C   UNL     1      44.893   4.463  10.201  0.00  0.00    +0.000 A 
ATOM     21  C   UNL     1      45.664   4.688   9.048  0.00  0.00    +0.000 A 
BRANCH  16  22
ATOM     22  C   UNL     1      46.758   3.895   6.898  0.00  0.00    +0.000 C 
BRANCH  22  23
ATOM     23  N   UNL     1      47.876   2.958   6.828  0.00  0.00    +0.000 NA
ATOM     24  H   UNL     1      48.375   3.099   5.952  0.00  0.00    +0.000 HD
ATOM     25  H   UNL     1      47.505   2.010   6.800  0.00  0.00    +0.000 HD
ENDBRANCH  22  23
ENDBRANCH  16  22
ENDBRANCH  15  20
ENDBRANCH  14  15
ENDBRANCH   1  14
TORSDOF 6
ENDMDL
MODEL 8
REMARK VINA RESULT:    -6.410      3.649      6.964
REMARK INTER + INTRA:          -8.933
REMARK INTER:                  -8.498
REMARK INTRA:                  -0.434
REMARK UNBOUND:                -0.462
REMARK  Name = 
REMARK  6 active torsions:
REMARK  status: ('A' for Active; 'I' for Inactive)
REMARK    1  A    between atoms: N_1  and  C_2
REMARK    2  A    between atoms: C_2  and  C_3
REMARK    3  A    between atoms: C_7  and  C_8
REMARK    4  A    between atoms: C_8  and  C_9
REMARK    5  A    between atoms: C_9  and  N_10
REMARK    6  A    between atoms: C_14  and  C_15
REMARK                            x       y       z     vdW  Elec       q    Type
REMARK                         _______ _______ _______ _____ _____    ______ ____
ROOT
ATOM      1  N   UNL     1      48.018   6.930  13.577  0.00  0.00    +0.000 N 
ATOM      2  C   UNL     1      47.970   5.980  14.598  0.00  0.00    +0.000 A 
ATOM      3  N   UNL     1      47.101   4.961  14.506  0.00  0.00    +0.000 NA
ATOM      4  C   UNL     1      47.026   4.108  15.549  0.00  0.00    +0.000 A 
ATOM      5  C   UNL     1      47.805   4.209  16.675  0.00  0.00    +0.000 A 
ATOM      6  C   UNL     1      48.683   5.267  16.670  0.00  0.00    +0.000 A 
ATOM      7  N   UNL     1      48.780   6.163  15.652  0.00  0.00    +0.000 NA
ATOM      8  H   UNL     1      48.418   7.766  13.988  0.00  0.00    +0.000 HD
ENDROOT
BRANCH   5   9
ATOM      9  C   UNL     1      47.604   3.260  17.779  0.00  0.00    +0.000 C 
ATOM     10  N   UNL     1      48.484   3.285  18.826  0.00  0.00    +0.000 N 
ATOM     11  O   UNL     1      46.692   2.447  17.748  0.00  0.00    +0.000 OA
ATOM     12  H   UNL     1      49.361   3.783  18.827  0.00  0.00    +0.000 HD
ATOM     13  H   UNL     1      48.364   2.553  19.518  0.00  0.00    +0.000 HD
ENDBRANCH   5   9
BRANCH   1  14
ATOM     14  C   UNL     1      46.731   7.099  12.894  0.00  0.00    +0.000 C 
BRANCH  14  15
ATOM     15  C   UNL     1      46.870   6.911  11.378  0.00  0.00    +0.000 C 
BRANCH  15  20
ATOM     16  C   UNL     1      44.341   4.023  11.297  0.00  0.00    +0.000 A 
ATOM     17  C   UNL     1      44.276   3.774   9.920  0.00  0.00    +0.000 A 
ATOM     18  C   UNL     1      45.072   4.494   9.030  0.00  0.00    +0.000 A 
ATOM     19  C   UNL     1      45.929   5.491   9.504  0.00  0.00    +0.000 A 
ATOM     20  C   UNL     1      45.997   5.777  10.872  0.00  0.00    +0.000 A 
ATOM     21  C   UNL     1      45.204   5.032  11.761  0.00  0.00    +0.000 A 
BRANCH  16  22
ATOM     22  C   UNL     1      43.460   3.252  12.250  0.00  0.00    +0.000 C 
BRANCH  22  23
ATOM     23  N   UNL     1      42.956   2.017  11.656  0.00  0.00    +0.000 NA
ATOM     24  H   UNL     1      42.017   1.838  12.006  0.00  0.00    +0.000 HD
ATOM     25  H   UNL     1      43.536   1.243  11.974  0.00  0.00    +0.000 HD
ENDBRANCH  22  23
ENDBRANCH  16  22
ENDBRANCH  15  20
ENDBRANCH  14  15
ENDBRANCH   1  14
TORSDOF 6
ENDMDL
MODEL 9
REMARK VINA RESULT:    -6.222      3.118      5.238
REMARK INTER + INTRA:          -8.685
REMARK INTER:                  -8.211
REMARK INTRA:                  -0.474
REMARK UNBOUND:                -0.462
REMARK  Name = 
REMARK  6 active torsions:
REMARK  status: ('A' for Active; 'I' for Inactive)
REMARK    1  A    between atoms: N_1  and  C_2
REMARK    2  A    between atoms: C_2  and  C_3
REMARK    3  A    between atoms: C_7  and  C_8
REMARK    4  A    between atoms: C_8  and  C_9
REMARK    5  A    between atoms: C_9  and  N_10
REMARK    6  A    between atoms: C_14  and  C_15
REMARK                            x       y       z     vdW  Elec       q    Type
REMARK                         _______ _______ _______ _____ _____    ______ ____
ROOT
ATOM      1  N   UNL     1      46.842   7.187  13.671  0.00  0.00    +0.000 N 
ATOM      2  C   UNL     1      46.105   6.158  13.085  0.00  0.00    +0.000 A 
ATOM      3  N   UNL     1      46.402   4.883  13.385  0.00  0.00    +0.000 NA
ATOM      4  C   UNL     1      45.723   3.914  12.738  0.00  0.00    +0.000 A 
ATOM      5  C   UNL     1      44.731   4.160  11.820  0.00  0.00    +0.000 A 
ATOM      6  C   UNL     1      44.476   5.492  11.596  0.00  0.00    +0.000 A 
ATOM      7  N   UNL     1      45.149   6.503  12.208  0.00  0.00    +0.000 NA
ATOM      8  H   UNL     1      46.740   7.991  13.062  0.00  0.00    +0.000 HD
ENDROOT
BRANCH   5   9
ATOM      9  C   UNL     1      44.091   3.031  11.130  0.00  0.00    +0.000 C 
ATOM     10  N   UNL     1      44.771   2.421  10.112  0.00  0.00    +0.000 N 
ATOM     11  O   UNL     1      42.967   2.664  11.438  0.00  0.00    +0.000 OA
ATOM     12  H   UNL     1      45.604   2.789   9.678  0.00  0.00    +0.000 HD
ATOM     13  H   UNL     1      44.257   1.711   9.604  0.00  0.00    +0.000 HD
ENDBRANCH   5   9
BRANCH   1  14
ATOM     14  C   UNL     1      48.218   6.792  13.991  0.00  0.00    +0.000 C 
BRANCH  14  15
ATOM     15  C   UNL     1      48.632   7.276  15.386  0.00  0.00    +0.000 C 
BRANCH  15  20
ATOM     16  C   UNL     1      48.823   3.947  17.291  0.00  0.00    +0.000 A 
ATOM     17  C   UNL     1      50.161   3.961  17.704  0.00  0.00    +0.000 A 
ATOM     18  C   UNL     1      50.982   5.051  17.415  0.00  0.00    +0.000 A 
ATOM     19  C   UNL     1      50.481   6.134  16.688  0.00  0.00    +0.000 A 
ATOM     20  C   UNL     1      49.154   6.136  16.242  0.00  0.00    +0.000 A 
ATOM     21  C   UNL     1      48.331   5.040  16.555  0.00  0.00    +0.000 A 
BRANCH  16  22
ATOM     22  C   UNL     1      47.948   2.753  17.590  0.00  0.00    +0.000 C 
BRANCH  22  23
ATOM     23  N   UNL     1      46.529   3.094  17.572  0.00  0.00    +0.000 NA
ATOM     24  H   UNL     1      46.427   4.085  17.363  0.00  0.00    +0.000 HD
ATOM     25  H   UNL     1      46.148   2.954  18.506  0.00  0.00    +0.000 HD
ENDBRANCH  22  23
ENDBRANCH  16  22
ENDBRANCH  15  20
ENDBRANCH  14  15
ENDBRANCH   1  14
TORSDOF 6
ENDMDL
