MODEL 1
REMARK VINA RESULT:    -7.917      0.000      0.000
REMARK INTER + INTRA:         -10.137
REMARK INTER:                  -9.537
REMARK INTRA:                  -0.600
REMARK UNBOUND:                -0.600
REMARK  Name = 
REMARK  4 active torsions:
REMARK  status: ('A' for Active; 'I' for Inactive)
REMARK    1  A    between atoms: N_1  and  C_2
REMARK    2  A    between atoms: C_2  and  C_3
REMARK    3  A    between atoms: C_6  and  C_7
REMARK    4  A    between atoms: C_7  and  N_8
REMARK                            x       y       z     vdW  Elec       q    Type
REMARK                         _______ _______ _______ _____ _____    ______ ____
ROOT
ATOM      1  C   UNL     1      43.819   4.420   9.661  0.00  0.00    +0.000 C 
ENDROOT
BRANCH   1   2
ATOM      2  N   UNL     1      44.150   4.454  11.086  0.00  0.00    +0.000 N 
ATOM      3  C   UNL     1      43.522   3.692  12.042  0.00  0.00    +0.000 A 
ATOM      4  C   UNL     1      44.158   3.901  13.246  0.00  0.00    +0.000 A 
ATOM      5  C   UNL     1      45.217   4.818  13.020  0.00  0.00    +0.000 A 
ATOM      6  C   UNL     1      46.202   5.385  13.841  0.00  0.00    +0.000 A 
ATOM      7  N   UNL     1      47.114   6.248  13.338  0.00  0.00    +0.000 NA
ATOM      8  C   UNL     1      47.049   6.559  12.027  0.00  0.00    +0.000 A 
ATOM      9  F   UNL     1      47.968   7.416  11.557  0.00  0.00    +0.000 F 
ATOM     10  C   UNL     1      46.118   6.057  11.131  0.00  0.00    +0.000 A 
ATOM     11  C   UNL     1      45.189   5.158  11.662  0.00  0.00    +0.000 A 
ENDBRANCH   1   2
BRANCH   1  15
ATOM     12  C   UNL     1      46.812   2.166   7.484  0.00  0.00    +0.000 A 
ATOM     13  C   UNL     1      45.919   1.518   8.348  0.00  0.00    +0.000 A 
ATOM     14  C   UNL     1      44.936   2.239   9.031  0.00  0.00    +0.000 A 
ATOM     15  C   UNL     1      44.826   3.626   8.869  0.00  0.00    +0.000 A 
ATOM     16  C   UNL     1      45.694   4.268   7.973  0.00  0.00    +0.000 A 
ATOM     17  C   UNL     1      46.676   3.545   7.289  0.00  0.00    +0.000 A 
BRANCH  12  18
ATOM     18  C   UNL     1      47.939   1.405   6.832  0.00  0.00    +0.000 C 
BRANCH  18  19
ATOM     19  N   UNL     1      48.352   2.009   5.571  0.00  0.00    +0.000 NA
ATOM     20  H   UNL     1      48.601   1.269   4.917  0.00  0.00    +0.000 HD
ATOM     21  H   UNL     1      49.202   2.548   5.731  0.00  0.00    +0.000 HD
ENDBRANCH  18  19
ENDBRANCH  12  18
ENDBRANCH   1  15
TORSDOF 4
ENDMDL
MODEL 2
REMARK VINA RESULT:    -7.889      1.678      2.216
REMARK INTER + INTRA:         -10.103
REMARK INTER:                  -9.500
REMARK INTRA:                  -0.603
REMARK UNBOUND:                -0.600
REMARK  Name = 
REMARK  4 active torsions:
REMARK  status: ('A' for Active; 'I' for Inactive)
REMARK    1  A    between atoms: N_1  and  C_2
REMARK    2  A    between atoms: C_2  and  C_3
REMARK    3  A    between atoms: C_6  and  C_7
REMARK    4  A    between atoms: C_7  and  N_8
REMARK                            x       y       z     vdW  Elec       q    Type
REMARK                         _______ _______ _______ _____ _____    ______ ____
ROOT
ATOM      1  C   UNL     1      44.095   4.574  10.621  0.00  0.00    +0.000 C 
ENDROOT
BRANCH   1   2
ATOM      2  N   UNL     1      44.955   5.507  11.350  0.00  0.00    +0.000 N 
ATOM      3  C   UNL     1      44.944   6.869  11.167  0.00  0.00    +0.000 A 
ATOM      4  C   UNL     1      45.798   7.434  12.089  0.00  0.00    +0.000 A 
ATOM      5  C   UNL     1      46.347   6.383  12.868  0.00  0.00    +0.000 A 
ATOM      6  C   UNL     1      47.243   6.340  13.946  0.00  0.00    +0.000 A 
ATOM      7  N   UNL     1      47.591   5.162  14.513  0.00  0.00    +0.000 NA
ATOM      8  C   UNL     1      47.062   4.027  14.012  0.00  0.00    +0.000 A 
ATOM      9  F   UNL     1      47.425   2.875  14.597  0.00  0.00    +0.000 F 
ATOM     10  C   UNL     1      46.171   3.959  12.952  0.00  0.00    +0.000 A 
ATOM     11  C   UNL     1      45.812   5.183  12.383  0.00  0.00    +0.000 A 
ENDBRANCH   1   2
BRANCH   1  15
ATOM     12  C   UNL     1      46.395   2.432   7.638  0.00  0.00    +0.000 A 
ATOM     13  C   UNL     1      45.674   1.737   8.618  0.00  0.00    +0.000 A 
ATOM     14  C   UNL     1      44.910   2.424   9.565  0.00  0.00    +0.000 A 
ATOM     15  C   UNL     1      44.853   3.824   9.556  0.00  0.00    +0.000 A 
ATOM     16  C   UNL     1      45.543   4.518   8.550  0.00  0.00    +0.000 A 
ATOM     17  C   UNL     1      46.305   3.829   7.603  0.00  0.00    +0.000 A 
BRANCH  12  18
ATOM     18  C   UNL     1      47.303   1.696   6.684  0.00  0.00    +0.000 C 
BRANCH  18  19
ATOM     19  N   UNL     1      48.504   2.460   6.368  0.00  0.00    +0.000 NA
ATOM     20  H   UNL     1      48.444   3.370   6.823  0.00  0.00    +0.000 HD
ATOM     21  H   UNL     1      48.520   2.641   5.366  0.00  0.00    +0.000 HD
ENDBRANCH  18  19
ENDBRANCH  12  18
ENDBRANCH   1  15
TORSDOF 4
ENDMDL
MODEL 3
REMARK VINA RESULT:    -7.055      1.553      1.875
REMARK INTER + INTRA:          -9.099
REMARK INTER:                  -8.497
REMARK INTRA:                  -0.602
REMARK UNBOUND:                -0.600
REMARK  Name = 
REMARK  4 active torsions:
REMARK  status: ('A' for Active; 'I' for Inactive)
REMARK    1  A    between atoms: N_1  and  C_2
REMARK    2  A    between atoms: C_2  and  C_3
REMARK    3  A    between atoms: C_6  and  C_7
REMARK    4  A    between atoms: C_7  and  N_8
REMARK                            x       y       z     vdW  Elec       q    Type
REMARK                         _______ _______ _______ _____ _____    ______ ____
ROOT
ATOM      1  C   UNL     1      44.184   4.388  11.193  0.00  0.00    +0.000 C 
ENDROOT
BRANCH   1   2
ATOM      2  N   UNL     1      45.192   4.878  12.134  0.00  0.00    +0.000 N 
ATOM      3  C   UNL     1      45.974   4.065  12.919  0.00  0.00    +0.000 A 
ATOM      4  C   UNL     1      46.876   4.858  13.595  0.00  0.00    +0.000 A 
ATOM      5  C   UNL     1      46.644   6.202  13.205  0.00  0.00    +0.000 A 
ATOM      6  C   UNL     1      47.244   7.426  13.535  0.00  0.00    +0.000 A 
ATOM      7  N   UNL     1      46.807   8.584  12.989  0.00  0.00    +0.000 NA
ATOM      8  C   UNL     1      45.773   8.536  12.125  0.00  0.00    +0.000 A 
ATOM      9  F   UNL     1      45.363   9.700  11.598  0.00  0.00    +0.000 F 
ATOM     10  C   UNL     1      45.110   7.383  11.733  0.00  0.00    +0.000 A 
ATOM     11  C   UNL     1      45.578   6.194  12.296  0.00  0.00    +0.000 A 
ENDBRANCH   1   2
BRANCH   1  15
ATOM     12  C   UNL     1      46.109   2.746   7.675  0.00  0.00    +0.000 A 
ATOM     13  C   UNL     1      45.472   1.906   8.597  0.00  0.00    +0.000 A 
ATOM     14  C   UNL     1      44.827   2.434   9.719  0.00  0.00    +0.000 A 
ATOM     15  C   UNL     1      44.809   3.817   9.946  0.00  0.00    +0.000 A 
ATOM     16  C   UNL     1      45.412   4.660   9.001  0.00  0.00    +0.000 A 
ATOM     17  C   UNL     1      46.055   4.130   7.879  0.00  0.00    +0.000 A 
BRANCH  12  18
ATOM     18  C   UNL     1      46.894   2.169   6.524  0.00  0.00    +0.000 C 
BRANCH  18  19
ATOM     19  N   UNL     1      48.143   1.556   6.963  0.00  0.00    +0.000 NA
ATOM     20  H   UNL     1      48.031   0.544   6.960  0.00  0.00    +0.000 HD
ATOM     21  H   UNL     1      48.313   1.824   7.931  0.00  0.00    +0.000 HD
ENDBRANCH  18  19
ENDBRANCH  12  18
ENDBRANCH   1  15
TORSDOF 4
ENDMDL
MODEL 4
REMARK VINA RESULT:    -6.579      2.212      5.666
REMARK INTER + INTRA:          -8.526
REMARK INTER:                  -7.959
REMARK INTRA:                  -0.567
REMARK UNBOUND:                -0.600
REMARK  Name = 
REMARK  4 active torsions:
REMARK  status: ('A' for Active; 'I' for Inactive)
REMARK    1  A    between atoms: N_1  and  C_2
REMARK    2  A    between atoms: C_2  and  C_3
REMARK    3  A    between atoms: C_6  and  C_7
REMARK    4  A    between atoms: C_7  and  N_8
REMARK                            x       y       z     vdW  Elec       q    Type
REMARK                         _______ _______ _______ _____ _____    ______ ____
ROOT
ATOM      1  C   UNL     1      44.128   6.185  11.843  0.00  0.00    +0.000 C 
ENDROOT
BRANCH   1   2
ATOM      2  N   UNL     1      44.061   4.777  11.450  0.00  0.00    +0.000 N 
ATOM      3  C   UNL     1      43.341   3.821  12.125  0.00  0.00    +0.000 A 
ATOM      4  C   UNL     1      43.420   2.642  11.418  0.00  0.00    +0.000 A 
ATOM      5  C   UNL     1      44.211   2.884  10.264  0.00  0.00    +0.000 A 
ATOM      6  C   UNL     1      44.619   2.090   9.183  0.00  0.00    +0.000 A 
ATOM      7  N   UNL     1      45.386   2.605   8.194  0.00  0.00    +0.000 NA
ATOM      8  C   UNL     1      45.758   3.898   8.277  0.00  0.00    +0.000 A 
ATOM      9  F   UNL     1      46.517   4.380   7.280  0.00  0.00    +0.000 F 
ATOM     10  C   UNL     1      45.410   4.767   9.300  0.00  0.00    +0.000 A 
ATOM     11  C   UNL     1      44.610   4.226  10.309  0.00  0.00    +0.000 A 
ENDBRANCH   1   2
BRANCH   1  15
ATOM     12  C   UNL     1      48.163   7.245  13.015  0.00  0.00    +0.000 A 
ATOM     13  C   UNL     1      47.400   8.110  12.220  0.00  0.00    +0.000 A 
ATOM     14  C   UNL     1      46.089   7.783  11.863  0.00  0.00    +0.000 A 
ATOM     15  C   UNL     1      45.512   6.580  12.289  0.00  0.00    +0.000 A 
ATOM     16  C   UNL     1      46.262   5.733  13.118  0.00  0.00    +0.000 A 
ATOM     17  C   UNL     1      47.573   6.062  13.476  0.00  0.00    +0.000 A 
BRANCH  12  18
ATOM     18  C   UNL     1      49.611   7.548  13.310  0.00  0.00    +0.000 C 
BRANCH  18  19
ATOM     19  N   UNL     1      50.050   6.958  14.569  0.00  0.00    +0.000 NA
ATOM     20  H   UNL     1      49.280   6.423  14.967  0.00  0.00    +0.000 HD
ATOM     21  H   UNL     1      50.249   7.708  15.228  0.00  0.00    +0.000 HD
ENDBRANCH  18  19
ENDBRANCH  12  18
ENDBRANCH   1  15
TORSDOF 4
ENDMDL
MODEL 5
REMARK VINA RESULT:    -6.146      2.165      3.302
REMARK INTER + INTRA:          -8.004
REMARK INTER:                  -7.403
REMARK INTRA:                  -0.601
REMARK UNBOUND:                -0.600
REMARK  Name = 
REMARK  4 active torsions:
REMARK  status: ('A' for Active; 'I' for Inactive)
REMARK    1  A    between atoms: N_1  and  C_2
REMARK    2  A    between atoms: C_2  and  C_3
REMARK    3  A    between atoms: C_6  and  C_7
REMARK    4  A    between atoms: C_7  and  N_8
REMARK                            x       y       z     vdW  Elec       q    Type
REMARK                         _______ _______ _______ _____ _____    ______ ____
ROOT
ATOM      1  C   UNL     1      44.327   6.438  11.631  0.00  0.00    +0.000 C 
ENDROOT
BRANCH   1   2
ATOM      2  N   UNL     1      45.597   6.917  12.176  0.00  0.00    +0.000 N 
ATOM      3  C   UNL     1      46.151   8.139  11.881  0.00  0.00    +0.000 A 
ATOM      4  C   UNL     1      47.284   8.296  12.650  0.00  0.00    +0.000 A 
ATOM      5  C   UNL     1      47.426   7.132  13.450  0.00  0.00    +0.000 A 
ATOM      6  C   UNL     1      48.354   6.728  14.420  0.00  0.00    +0.000 A 
ATOM      7  N   UNL     1      48.233   5.534  15.043  0.00  0.00    +0.000 NA
ATOM      8  C   UNL     1      47.202   4.734  14.702  0.00  0.00    +0.000 A 
ATOM      9  F   UNL     1      47.107   3.556  15.338  0.00  0.00    +0.000 F 
ATOM     10  C   UNL     1      46.232   5.036  13.758  0.00  0.00    +0.000 A 
ATOM     11  C   UNL     1      46.363   6.277  13.131  0.00  0.00    +0.000 A 
ENDBRANCH   1   2
BRANCH   1  15
ATOM     12  C   UNL     1      44.958   2.839   9.301  0.00  0.00    +0.000 A 
ATOM     13  C   UNL     1      44.070   2.841  10.384  0.00  0.00    +0.000 A 
ATOM     14  C   UNL     1      43.844   4.007  11.121  0.00  0.00    +0.000 A 
ATOM     15  C   UNL     1      44.506   5.198  10.793  0.00  0.00    +0.000 A 
ATOM     16  C   UNL     1      45.364   5.205   9.684  0.00  0.00    +0.000 A 
ATOM     17  C   UNL     1      45.588   4.039   8.946  0.00  0.00    +0.000 A 
BRANCH  12  18
ATOM     18  C   UNL     1      45.282   1.558   8.574  0.00  0.00    +0.000 C 
BRANCH  18  19
ATOM     19  N   UNL     1      46.573   1.620   7.899  0.00  0.00    +0.000 NA
ATOM     20  H   UNL     1      46.437   1.998   6.963  0.00  0.00    +0.000 HD
ATOM     21  H   UNL     1      46.923   0.671   7.778  0.00  0.00    +0.000 HD
ENDBRANCH  18  19
ENDBRANCH  12  18
ENDBRANCH   1  15
TORSDOF 4
ENDMDL
MODEL 6
REMARK VINA RESULT:    -5.592      4.057      7.342
REMARK INTER + INTRA:          -7.337
REMARK INTER:                  -6.777
REMARK INTRA:                  -0.560
REMARK UNBOUND:                -0.600
REMARK  Name = 
REMARK  4 active torsions:
REMARK  status: ('A' for Active; 'I' for Inactive)
REMARK    1  A    between atoms: N_1  and  C_2
REMARK    2  A    between atoms: C_2  and  C_3
REMARK    3  A    between atoms: C_6  and  C_7
REMARK    4  A    between atoms: C_7  and  N_8
REMARK                            x       y       z     vdW  Elec       q    Type
REMARK                         _______ _______ _______ _____ _____    ______ ____
ROOT
ATOM      1  C   UNL     1      47.664   5.505  13.248  0.00  0.00    +0.000 C 
ENDROOT
BRANCH   1   2
ATOM      2  N   UNL     1      46.385   6.088  12.843  0.00  0.00    +0.000 N 
ATOM      3  C   UNL     1      46.168   7.435  12.681  0.00  0.00    +0.000 A 
ATOM      4  C   UNL     1      44.891   7.610  12.194  0.00  0.00    +0.000 A 
ATOM      5  C   UNL     1      44.307   6.325  12.045  0.00  0.00    +0.000 A 
ATOM      6  C   UNL     1      43.062   5.872  11.585  0.00  0.00    +0.000 A 
ATOM      7  N   UNL     1      42.775   4.551  11.546  0.00  0.00    +0.000 NA
ATOM      8  C   UNL     1      43.712   3.677  11.968  0.00  0.00    +0.000 A 
ATOM      9  F   UNL     1      43.399   2.373  11.915  0.00  0.00    +0.000 F 
ATOM     10  C   UNL     1      44.970   4.019  12.440  0.00  0.00    +0.000 A 
ATOM     11  C   UNL     1      45.257   5.386  12.465  0.00  0.00    +0.000 A 
ENDBRANCH   1   2
BRANCH   1  15
ATOM     12  C   UNL     1      48.098   5.046  17.535  0.00  0.00    +0.000 A 
ATOM     13  C   UNL     1      48.669   6.141  16.873  0.00  0.00    +0.000 A 
ATOM     14  C   UNL     1      48.508   6.306  15.495  0.00  0.00    +0.000 A 
ATOM     15  C   UNL     1      47.775   5.376  14.746  0.00  0.00    +0.000 A 
ATOM     16  C   UNL     1      47.170   4.302  15.415  0.00  0.00    +0.000 A 
ATOM     17  C   UNL     1      47.330   4.140  16.794  0.00  0.00    +0.000 A 
BRANCH  12  18
ATOM     18  C   UNL     1      48.361   4.811  19.002  0.00  0.00    +0.000 C 
BRANCH  18  19
ATOM     19  N   UNL     1      48.362   3.393  19.339  0.00  0.00    +0.000 NA
ATOM     20  H   UNL     1      49.237   2.980  19.022  0.00  0.00    +0.000 HD
ATOM     21  H   UNL     1      47.620   2.933  18.814  0.00  0.00    +0.000 HD
ENDBRANCH  18  19
ENDBRANCH  12  18
ENDBRANCH   1  15
TORSDOF 4
ENDMDL
MODEL 7
REMARK VINA RESULT:    -5.552      2.542      4.176
REMARK INTER + INTRA:          -7.289
REMARK INTER:                  -6.732
REMARK INTRA:                  -0.557
REMARK UNBOUND:                -0.600
REMARK  Name = 
REMARK  4 active torsions:
REMARK  status: ('A' for Active; 'I' for Inactive)
REMARK    1  A    between atoms: N_1  and  C_2
REMARK    2  A    between atoms: C_2  and  C_3
REMARK    3  A    between atoms: C_6  and  C_7
REMARK    4  A    between atoms: C_7  and  N_8
REMARK                            x       y       z     vdW  Elec       q    Type
REMARK                         _______ _______ _______ _____ _____    ______ ____
ROOT
ATOM      1  C   UNL     1      45.525   6.116  13.084  0.00  0.00    +0.000 C 
ENDROOT
BRANCH   1   2
ATOM      2  N   UNL     1      46.766   6.846  12.828  0.00  0.00    +0.000 N 
ATOM      3  C   UNL     1      48.011   6.266  12.805  0.00  0.00    +0.000 A 
ATOM      4  C   UNL     1      48.927   7.225  12.431  0.00  0.00    +0.000 A 
ATOM      5  C   UNL     1      48.217   8.434  12.208  0.00  0.00    +0.000 A 
ATOM      6  C   UNL     1      48.596   9.721  11.800  0.00  0.00    +0.000 A 
ATOM      7  N   UNL     1      47.677  10.704  11.661  0.00  0.00    +0.000 NA
ATOM      8  C   UNL     1      46.387  10.420  11.932  0.00  0.00    +0.000 A 
ATOM      9  F   UNL     1      45.499  11.415  11.783  0.00  0.00    +0.000 F 
ATOM     10  C   UNL     1      45.908   9.185  12.341  0.00  0.00    +0.000 A 
ATOM     11  C   UNL     1      46.866   8.176  12.471  0.00  0.00    +0.000 A 
ENDBRANCH   1   2
BRANCH   1  15
ATOM     12  C   UNL     1      44.731   3.319   9.870  0.00  0.00    +0.000 A 
ATOM     13  C   UNL     1      44.706   2.897  11.206  0.00  0.00    +0.000 A 
ATOM     14  C   UNL     1      44.935   3.802  12.246  0.00  0.00    +0.000 A 
ATOM     15  C   UNL     1      45.199   5.151  11.973  0.00  0.00    +0.000 A 
ATOM     16  C   UNL     1      45.184   5.581  10.638  0.00  0.00    +0.000 A 
ATOM     17  C   UNL     1      44.953   4.675   9.599  0.00  0.00    +0.000 A 
BRANCH  12  18
ATOM     18  C   UNL     1      44.590   2.323   8.746  0.00  0.00    +0.000 C 
BRANCH  18  19
ATOM     19  N   UNL     1      45.618   1.290   8.796  0.00  0.00    +0.000 NA
ATOM     20  H   UNL     1      46.351   1.523   8.128  0.00  0.00    +0.000 HD
ATOM     21  H   UNL     1      45.211   0.411   8.481  0.00  0.00    +0.000 HD
ENDBRANCH  18  19
ENDBRANCH  12  18
ENDBRANCH   1  15
TORSDOF 4
ENDMDL
MODEL 8
REMARK VINA RESULT:    -5.238      2.574      4.584
REMARK INTER + INTRA:          -6.910
REMARK INTER:                  -6.520
REMARK INTRA:                  -0.390
REMARK UNBOUND:                -0.600
REMARK  Name = 
REMARK  4 active torsions:
REMARK  status: ('A' for Active; 'I' for Inactive)
REMARK    1  A    between atoms: N_1  and  C_2
REMARK    2  A    between atoms: C_2  and  C_3
REMARK    3  A    between atoms: C_6  and  C_7
REMARK    4  A    between atoms: C_7  and  N_8
REMARK                            x       y       z     vdW  Elec       q    Type
REMARK                         _______ _______ _______ _____ _____    ______ ____
ROOT
ATOM      1  C   UNL     1      46.047   6.590  13.227  0.00  0.00    +0.000 C 
ENDROOT
BRANCH   1   2
ATOM      2  N   UNL     1      46.420   7.884  12.655  0.00  0.00    +0.000 N 
ATOM      3  C   UNL     1      45.576   8.966  12.581  0.00  0.00    +0.000 A 
ATOM      4  C   UNL     1      46.290  10.036  12.086  0.00  0.00    +0.000 A 
ATOM      5  C   UNL     1      47.619   9.596  11.856  0.00  0.00    +0.000 A 
ATOM      6  C   UNL     1      48.782  10.225  11.385  0.00  0.00    +0.000 A 
ATOM      7  N   UNL     1      49.944   9.541  11.273  0.00  0.00    +0.000 NA
ATOM      8  C   UNL     1      49.957   8.237  11.615  0.00  0.00    +0.000 A 
ATOM      9  F   UNL     1      51.125   7.586  11.494  0.00  0.00    +0.000 F 
ATOM     10  C   UNL     1      48.868   7.523  12.089  0.00  0.00    +0.000 A 
ATOM     11  C   UNL     1      47.677   8.243  12.210  0.00  0.00    +0.000 A 
ENDBRANCH   1   2
BRANCH   1  15
ATOM     12  C   UNL     1      44.981   3.701  10.179  0.00  0.00    +0.000 A 
ATOM     13  C   UNL     1      45.366   5.001   9.826  0.00  0.00    +0.000 A 
ATOM     14  C   UNL     1      45.736   5.927  10.805  0.00  0.00    +0.000 A 
ATOM     15  C   UNL     1      45.725   5.574  12.161  0.00  0.00    +0.000 A 
ATOM     16  C   UNL     1      45.378   4.261  12.511  0.00  0.00    +0.000 A 
ATOM     17  C   UNL     1      45.010   3.335  11.530  0.00  0.00    +0.000 A 
BRANCH  12  18
ATOM     18  C   UNL     1      44.479   2.737   9.132  0.00  0.00    +0.000 C 
BRANCH  18  19
ATOM     19  N   UNL     1      44.310   3.376   7.833  0.00  0.00    +0.000 NA
ATOM     20  H   UNL     1      44.716   4.309   7.870  0.00  0.00    +0.000 HD
ATOM     21  H   UNL     1      43.314   3.502   7.659  0.00  0.00    +0.000 HD
ENDBRANCH  18  19
ENDBRANCH  12  18
ENDBRANCH   1  15
TORSDOF 4
ENDMDL
MODEL 9
REMARK VINA RESULT:    -5.221      3.772      6.268
REMARK INTER + INTRA:          -6.890
REMARK INTER:                  -6.367
REMARK INTRA:                  -0.522
REMARK UNBOUND:                -0.600
REMARK  Name = 
REMARK  4 active torsions:
REMARK  status: ('A' for Active; 'I' for Inactive)
REMARK    1  A    between atoms: N_1  and  C_2
REMARK    2  A    between atoms: C_2  and  C_3
REMARK    3  A    between atoms: C_6  and  C_7
REMARK    4  A    between atoms: C_7  and  N_8
REMARK                            x       y       z     vdW  Elec       q    Type
REMARK                         _______ _______ _______ _____ _____    ______ ____
ROOT
ATOM      1  C   UNL     1      46.350   8.327  13.221  0.00  0.00    +0.000 C 
ENDROOT
BRANCH   1   2
ATOM      2  N   UNL     1      45.691   7.169  12.618  0.00  0.00    +0.000 N 
ATOM      3  C   UNL     1      44.814   7.244  11.563  0.00  0.00    +0.000 A 
ATOM      4  C   UNL     1      44.476   5.960  11.192  0.00  0.00    +0.000 A 
ATOM      5  C   UNL     1      45.177   5.067  12.043  0.00  0.00    +0.000 A 
ATOM      6  C   UNL     1      45.250   3.670  12.135  0.00  0.00    +0.000 A 
ATOM      7  N   UNL     1      46.029   3.075  13.068  0.00  0.00    +0.000 NA
ATOM      8  C   UNL     1      46.728   3.858  13.914  0.00  0.00    +0.000 A 
ATOM      9  F   UNL     1      47.493   3.239  14.827  0.00  0.00    +0.000 F 
ATOM     10  C   UNL     1      46.726   5.244  13.909  0.00  0.00    +0.000 A 
ATOM     11  C   UNL     1      45.926   5.845  12.935  0.00  0.00    +0.000 A 
ENDBRANCH   1   2
BRANCH   1  15
ATOM     12  C   UNL     1      50.647   8.348  12.657  0.00  0.00    +0.000 A 
ATOM     13  C   UNL     1      50.095   8.462  13.940  0.00  0.00    +0.000 A 
ATOM     14  C   UNL     1      48.710   8.429  14.127  0.00  0.00    +0.000 A 
ATOM     15  C   UNL     1      47.846   8.285  13.035  0.00  0.00    +0.000 A 
ATOM     16  C   UNL     1      48.400   8.130  11.756  0.00  0.00    +0.000 A 
ATOM     17  C   UNL     1      49.785   8.161  11.570  0.00  0.00    +0.000 A 
BRANCH  12  18
ATOM     18  C   UNL     1      52.134   8.491  12.445  0.00  0.00    +0.000 C 
BRANCH  18  19
ATOM     19  N   UNL     1      52.904   7.896  13.531  0.00  0.00    +0.000 NA
ATOM     20  H   UNL     1      52.470   8.148  14.417  0.00  0.00    +0.000 HD
ATOM     21  H   UNL     1      53.833   8.314  13.537  0.00  0.00    +0.000 HD
ENDBRANCH  18  19
ENDBRANCH  12  18
ENDBRANCH   1  15
TORSDOF 4
ENDMDL
