MODEL 1
REMARK VINA RESULT:    -8.508      0.000      0.000
REMARK INTER + INTRA:         -10.684
REMARK INTER:                 -10.000
REMARK INTRA:                  -0.684
REMARK UNBOUND:                -0.684
REMARK  Name = 
REMARK  3 active torsions:
REMARK  status: ('A' for Active; 'I' for Inactive)
REMARK    1  A    between atoms: N_6  and  C_7
REMARK    2  A    between atoms: C_7  and  C_8
REMARK    3  A    between atoms: C_12  and  C_13
REMARK                            x       y       z     vdW  Elec       q    Type
REMARK                         _______ _______ _______ _____ _____    ______ ____
ROOT
ATOM      1  C   UNL     1      45.013   4.041  11.425  0.00  0.00    +0.000 A 
ATOM      2  C   UNL     1      45.499   3.263  12.481  0.00  0.00    +0.000 A 
ATOM      3  C   UNL     1      46.374   3.815  13.412  0.00  0.00    +0.000 A 
ATOM      4  C   UNL     1      46.763   5.154  13.303  0.00  0.00    +0.000 A 
ATOM      5  C   UNL     1      46.285   5.977  12.268  0.00  0.00    +0.000 A 
ATOM      6  C   UNL     1      45.389   5.395  11.348  0.00  0.00    +0.000 A 
ENDROOT
BRANCH   5   7
ATOM      7  C   UNL     1      46.731   7.381  12.127  0.00  0.00    +0.000 A 
ATOM      8  C   UNL     1      48.067   7.725  11.869  0.00  0.00    +0.000 A 
ATOM      9  C   UNL     1      48.453   9.062  11.757  0.00  0.00    +0.000 A 
ATOM     10  C   UNL     1      47.485  10.040  11.899  0.00  0.00    +0.000 A 
ATOM     11  N   UNL     1      46.190   9.771  12.151  0.00  0.00    +0.000 NA
ATOM     12  C   UNL     1      45.852   8.461  12.262  0.00  0.00    +0.000 A 
ENDBRANCH   5   7
BRANCH   1  13
ATOM     13  C   UNL     1      44.162   3.422  10.344  0.00  0.00    +0.000 C 
BRANCH  13  19
ATOM     14  F   UNL     1      48.064   2.060   5.419  0.00  0.00    +0.000 F 
ATOM     15  C   UNL     1      47.252   2.156   6.478  0.00  0.00    +0.000 A 
ATOM     16  C   UNL     1      46.682   3.369   6.818  0.00  0.00    +0.000 A 
ATOM     17  C   UNL     1      45.839   3.420   7.927  0.00  0.00    +0.000 A 
ATOM     18  C   UNL     1      45.588   2.265   8.675  0.00  0.00    +0.000 A 
ATOM     19  N   UNL     1      44.766   2.248   9.775  0.00  0.00    +0.000 N 
ATOM     20  N   UNL     1      46.144   1.085   8.340  0.00  0.00    +0.000 NA
ATOM     21  C   UNL     1      46.962   1.052   7.255  0.00  0.00    +0.000 A 
ATOM     22  H   UNL     1      44.689   1.350  10.237  0.00  0.00    +0.000 HD
ENDBRANCH  13  19
ENDBRANCH   1  13
TORSDOF 3
ENDMDL
MODEL 2
REMARK VINA RESULT:    -7.938      2.263      3.473
REMARK INTER + INTRA:         -10.014
REMARK INTER:                  -9.457
REMARK INTRA:                  -0.557
REMARK UNBOUND:                -0.684
REMARK  Name = 
REMARK  3 active torsions:
REMARK  status: ('A' for Active; 'I' for Inactive)
REMARK    1  A    between atoms: N_6  and  C_7
REMARK    2  A    between atoms: C_7  and  C_8
REMARK    3  A    between atoms: C_12  and  C_13
REMARK                            x       y       z     vdW  Elec       q    Type
REMARK                         _______ _______ _______ _____ _____    ______ ____
ROOT
ATOM      1  C   UNL     1      44.990   4.259  11.086  0.00  0.00    +0.000 A 
ATOM      2  C   UNL     1      45.056   5.566  10.591  0.00  0.00    +0.000 A 
ATOM      3  C   UNL     1      45.764   6.543  11.285  0.00  0.00    +0.000 A 
ATOM      4  C   UNL     1      46.421   6.220  12.477  0.00  0.00    +0.000 A 
ATOM      5  C   UNL     1      46.395   4.915  13.001  0.00  0.00    +0.000 A 
ATOM      6  C   UNL     1      45.683   3.944  12.268  0.00  0.00    +0.000 A 
ENDROOT
BRANCH   5   7
ATOM      7  C   UNL     1      47.055   4.584  14.285  0.00  0.00    +0.000 A 
ATOM      8  C   UNL     1      47.537   5.569  15.160  0.00  0.00    +0.000 A 
ATOM      9  C   UNL     1      48.166   5.218  16.355  0.00  0.00    +0.000 A 
ATOM     10  C   UNL     1      48.296   3.875  16.661  0.00  0.00    +0.000 A 
ATOM     11  N   UNL     1      47.856   2.886  15.860  0.00  0.00    +0.000 NA
ATOM     12  C   UNL     1      47.257   3.264  14.701  0.00  0.00    +0.000 A 
ENDBRANCH   5   7
BRANCH   1  13
ATOM     13  C   UNL     1      44.127   3.224  10.407  0.00  0.00    +0.000 C 
BRANCH  13  19
ATOM     14  F   UNL     1      47.837   2.265   5.244  0.00  0.00    +0.000 F 
ATOM     15  C   UNL     1      47.103   2.283   6.363  0.00  0.00    +0.000 A 
ATOM     16  C   UNL     1      46.341   3.390   6.685  0.00  0.00    +0.000 A 
ATOM     17  C   UNL     1      45.589   3.363   7.858  0.00  0.00    +0.000 A 
ATOM     18  C   UNL     1      45.618   2.236   8.687  0.00  0.00    +0.000 A 
ATOM     19  N   UNL     1      44.899   2.144   9.852  0.00  0.00    +0.000 N 
ATOM     20  N   UNL     1      46.361   1.158   8.369  0.00  0.00    +0.000 NA
ATOM     21  C   UNL     1      47.086   1.201   7.222  0.00  0.00    +0.000 A 
ATOM     22  H   UNL     1      45.028   1.283  10.368  0.00  0.00    +0.000 HD
ENDBRANCH  13  19
ENDBRANCH   1  13
TORSDOF 3
ENDMDL
MODEL 3
REMARK VINA RESULT:    -7.634      1.148      1.384
REMARK INTER + INTRA:          -9.657
REMARK INTER:                  -8.985
REMARK INTRA:                  -0.672
REMARK UNBOUND:                -0.684
REMARK  Name = 
REMARK  3 active torsions:
REMARK  status: ('A' for Active; 'I' for Inactive)
REMARK    1  A    between atoms: N_6  and  C_7
REMARK    2  A    between atoms: C_7  and  C_8
REMARK    3  A    between atoms: C_12  and  C_13
REMARK                            x       y       z     vdW  Elec       q    Type
REMARK                         _______ _______ _______ _____ _____    ______ ____
ROOT
ATOM      1  C   UNL     1      44.822   4.737  11.206  0.00  0.00    +0.000 A 
ATOM      2  C   UNL     1      45.006   3.884  12.298  0.00  0.00    +0.000 A 
ATOM      3  C   UNL     1      45.895   4.228  13.314  0.00  0.00    +0.000 A 
ATOM      4  C   UNL     1      46.599   5.434  13.251  0.00  0.00    +0.000 A 
ATOM      5  C   UNL     1      46.432   6.330  12.180  0.00  0.00    +0.000 A 
ATOM      6  C   UNL     1      45.515   5.961  11.174  0.00  0.00    +0.000 A 
ENDROOT
BRANCH   5   7
ATOM      7  C   UNL     1      47.210   7.585  12.092  0.00  0.00    +0.000 A 
ATOM      8  C   UNL     1      48.588   7.601  11.827  0.00  0.00    +0.000 A 
ATOM      9  C   UNL     1      49.291   8.805  11.766  0.00  0.00    +0.000 A 
ATOM     10  C   UNL     1      48.596   9.984  11.966  0.00  0.00    +0.000 A 
ATOM     11  N   UNL     1      47.276  10.032  12.227  0.00  0.00    +0.000 NA
ATOM     12  C   UNL     1      46.626   8.842  12.288  0.00  0.00    +0.000 A 
ENDBRANCH   5   7
BRANCH   1  13
ATOM     13  C   UNL     1      43.956   4.320  10.043  0.00  0.00    +0.000 C 
BRANCH  13  19
ATOM     14  F   UNL     1      47.736   0.928   6.100  0.00  0.00    +0.000 F 
ATOM     15  C   UNL     1      46.965   1.774   6.792  0.00  0.00    +0.000 A 
ATOM     16  C   UNL     1      46.509   1.437   8.053  0.00  0.00    +0.000 A 
ATOM     17  C   UNL     1      45.711   2.351   8.739  0.00  0.00    +0.000 A 
ATOM     18  C   UNL     1      45.381   3.577   8.152  0.00  0.00    +0.000 A 
ATOM     19  N   UNL     1      44.604   4.522   8.775  0.00  0.00    +0.000 N 
ATOM     20  N   UNL     1      45.828   3.903   6.923  0.00  0.00    +0.000 NA
ATOM     21  C   UNL     1      46.605   3.001   6.269  0.00  0.00    +0.000 A 
ATOM     22  H   UNL     1      44.423   5.355   8.229  0.00  0.00    +0.000 HD
ENDBRANCH  13  19
ENDBRANCH   1  13
TORSDOF 3
ENDMDL
MODEL 4
REMARK VINA RESULT:    -7.425      2.867      6.589
REMARK INTER + INTRA:          -9.411
REMARK INTER:                  -8.722
REMARK INTRA:                  -0.690
REMARK UNBOUND:                -0.684
REMARK  Name = 
REMARK  3 active torsions:
REMARK  status: ('A' for Active; 'I' for Inactive)
REMARK    1  A    between atoms: N_6  and  C_7
REMARK    2  A    between atoms: C_7  and  C_8
REMARK    3  A    between atoms: C_12  and  C_13
REMARK                            x       y       z     vdW  Elec       q    Type
REMARK                         _______ _______ _______ _____ _____    ______ ____
ROOT
ATOM      1  C   UNL     1      44.525   4.960  11.801  0.00  0.00    +0.000 A 
ATOM      2  C   UNL     1      43.575   4.081  12.331  0.00  0.00    +0.000 A 
ATOM      3  C   UNL     1      43.297   2.879  11.688  0.00  0.00    +0.000 A 
ATOM      4  C   UNL     1      43.974   2.539  10.512  0.00  0.00    +0.000 A 
ATOM      5  C   UNL     1      44.950   3.384   9.954  0.00  0.00    +0.000 A 
ATOM      6  C   UNL     1      45.220   4.588  10.636  0.00  0.00    +0.000 A 
ENDROOT
BRANCH   5   7
ATOM      7  C   UNL     1      45.635   3.044   8.687  0.00  0.00    +0.000 A 
ATOM      8  C   UNL     1      46.068   1.743   8.390  0.00  0.00    +0.000 A 
ATOM      9  C   UNL     1      46.724   1.463   7.191  0.00  0.00    +0.000 A 
ATOM     10  C   UNL     1      46.929   2.498   6.296  0.00  0.00    +0.000 A 
ATOM     11  N   UNL     1      46.539   3.766   6.526  0.00  0.00    +0.000 NA
ATOM     12  C   UNL     1      45.912   4.003   7.707  0.00  0.00    +0.000 A 
ENDBRANCH   5   7
BRANCH   1  13
ATOM     13  C   UNL     1      44.746   6.317  12.423  0.00  0.00    +0.000 C 
BRANCH  13  19
ATOM     14  F   UNL     1      50.912   8.139  12.536  0.00  0.00    +0.000 F 
ATOM     15  C   UNL     1      49.656   7.703  12.693  0.00  0.00    +0.000 A 
ATOM     16  C   UNL     1      48.778   7.692  11.624  0.00  0.00    +0.000 A 
ATOM     17  C   UNL     1      47.481   7.226  11.833  0.00  0.00    +0.000 A 
ATOM     18  C   UNL     1      47.086   6.789  13.102  0.00  0.00    +0.000 A 
ATOM     19  N   UNL     1      45.826   6.316  13.373  0.00  0.00    +0.000 N 
ATOM     20  N   UNL     1      47.944   6.801  14.140  0.00  0.00    +0.000 NA
ATOM     21  C   UNL     1      49.205   7.256  13.919  0.00  0.00    +0.000 A 
ATOM     22  H   UNL     1      45.666   6.053  14.337  0.00  0.00    +0.000 HD
ENDBRANCH  13  19
ENDBRANCH   1  13
TORSDOF 3
ENDMDL
MODEL 5
REMARK VINA RESULT:    -7.012      3.179      6.930
REMARK INTER + INTRA:          -8.927
REMARK INTER:                  -8.537
REMARK INTRA:                  -0.390
REMARK UNBOUND:                -0.684
REMARK  Name = 
REMARK  3 active torsions:
REMARK  status: ('A' for Active; 'I' for Inactive)
REMARK    1  A    between atoms: N_6  and  C_7
REMARK    2  A    between atoms: C_7  and  C_8
REMARK    3  A    between atoms: C_12  and  C_13
REMARK                            x       y       z     vdW  Elec       q    Type
REMARK                         _______ _______ _______ _____ _____    ______ ____
ROOT
ATOM      1  C   UNL     1      44.540   4.710  10.415  0.00  0.00    +0.000 A 
ATOM      2  C   UNL     1      43.761   3.710  11.006  0.00  0.00    +0.000 A 
ATOM      3  C   UNL     1      43.797   2.410  10.509  0.00  0.00    +0.000 A 
ATOM      4  C   UNL     1      44.620   2.096   9.423  0.00  0.00    +0.000 A 
ATOM      5  C   UNL     1      45.432   3.067   8.810  0.00  0.00    +0.000 A 
ATOM      6  C   UNL     1      45.386   4.371   9.344  0.00  0.00    +0.000 A 
ENDROOT
BRANCH   5   7
ATOM      7  C   UNL     1      46.270   2.743   7.634  0.00  0.00    +0.000 A 
ATOM      8  C   UNL     1      46.334   3.572   6.504  0.00  0.00    +0.000 A 
ATOM      9  C   UNL     1      47.125   3.227   5.406  0.00  0.00    +0.000 A 
ATOM     10  C   UNL     1      47.851   2.051   5.463  0.00  0.00    +0.000 A 
ATOM     11  N   UNL     1      47.827   1.214   6.518  0.00  0.00    +0.000 NA
ATOM     12  C   UNL     1      47.041   1.578   7.563  0.00  0.00    +0.000 A 
ENDBRANCH   5   7
BRANCH   1  13
ATOM     13  C   UNL     1      44.417   6.145  10.867  0.00  0.00    +0.000 C 
BRANCH  13  19
ATOM     14  F   UNL     1      48.332   5.013  15.840  0.00  0.00    +0.000 F 
ATOM     15  C   UNL     1      47.641   5.385  14.756  0.00  0.00    +0.000 A 
ATOM     16  C   UNL     1      46.405   4.829  14.486  0.00  0.00    +0.000 A 
ATOM     17  C   UNL     1      45.719   5.250  13.349  0.00  0.00    +0.000 A 
ATOM     18  C   UNL     1      46.282   6.211  12.502  0.00  0.00    +0.000 A 
ATOM     19  N   UNL     1      45.659   6.670  11.369  0.00  0.00    +0.000 N 
ATOM     20  N   UNL     1      47.487   6.751  12.769  0.00  0.00    +0.000 NA
ATOM     21  C   UNL     1      48.141   6.331  13.883  0.00  0.00    +0.000 A 
ATOM     22  H   UNL     1      46.187   7.349  10.835  0.00  0.00    +0.000 HD
ENDBRANCH  13  19
ENDBRANCH   1  13
TORSDOF 3
ENDMDL
MODEL 6
REMARK VINA RESULT:    -6.844      3.045      4.733
REMARK INTER + INTRA:          -8.728
REMARK INTER:                  -8.047
REMARK INTRA:                  -0.681
REMARK UNBOUND:                -0.684
REMARK  Name = 
REMARK  3 active torsions:
REMARK  status: ('A' for Active; 'I' for Inactive)
REMARK    1  A    between atoms: N_6  and  C_7
REMARK    2  A    between atoms: C_7  and  C_8
REMARK    3  A    between atoms: C_12  and  C_13
REMARK                            x       y       z     vdW  Elec       q    Type
REMARK                         _______ _______ _______ _____ _____    ______ ____
ROOT
ATOM      1  C   UNL     1      46.700   6.866  12.186  0.00  0.00    +0.000 A 
ATOM      2  C   UNL     1      47.785   7.688  11.867  0.00  0.00    +0.000 A 
ATOM      3  C   UNL     1      48.889   7.750  12.712  0.00  0.00    +0.000 A 
ATOM      4  C   UNL     1      48.923   6.981  13.880  0.00  0.00    +0.000 A 
ATOM      5  C   UNL     1      47.861   6.128  14.231  0.00  0.00    +0.000 A 
ATOM      6  C   UNL     1      46.763   6.075  13.348  0.00  0.00    +0.000 A 
ENDROOT
BRANCH   5   7
ATOM      7  C   UNL     1      47.879   5.348  15.489  0.00  0.00    +0.000 A 
ATOM      8  C   UNL     1      48.668   5.712  16.590  0.00  0.00    +0.000 A 
ATOM      9  C   UNL     1      48.669   4.944  17.755  0.00  0.00    +0.000 A 
ATOM     10  C   UNL     1      47.866   3.818  17.801  0.00  0.00    +0.000 A 
ATOM     11  N   UNL     1      47.090   3.418  16.776  0.00  0.00    +0.000 NA
ATOM     12  C   UNL     1      47.121   4.184  15.656  0.00  0.00    +0.000 A 
ENDBRANCH   5   7
BRANCH   1  13
ATOM     13  C   UNL     1      45.449   6.883  11.341  0.00  0.00    +0.000 C 
BRANCH  13  19
ATOM     14  F   UNL     1      44.497   1.086   8.727  0.00  0.00    +0.000 F 
ATOM     15  C   UNL     1      44.763   2.343   9.101  0.00  0.00    +0.000 A 
ATOM     16  C   UNL     1      44.602   2.734  10.417  0.00  0.00    +0.000 A 
ATOM     17  C   UNL     1      44.895   4.052  10.761  0.00  0.00    +0.000 A 
ATOM     18  C   UNL     1      45.336   4.953   9.785  0.00  0.00    +0.000 A 
ATOM     19  N   UNL     1      45.645   6.262  10.058  0.00  0.00    +0.000 N 
ATOM     20  N   UNL     1      45.493   4.568   8.504  0.00  0.00    +0.000 NA
ATOM     21  C   UNL     1      45.205   3.279   8.186  0.00  0.00    +0.000 A 
ATOM     22  H   UNL     1      45.930   6.810   9.257  0.00  0.00    +0.000 HD
ENDBRANCH  13  19
ENDBRANCH   1  13
TORSDOF 3
ENDMDL
MODEL 7
REMARK VINA RESULT:    -6.323      5.530      7.977
REMARK INTER + INTRA:          -8.116
REMARK INTER:                  -7.462
REMARK INTRA:                  -0.654
REMARK UNBOUND:                -0.684
REMARK  Name = 
REMARK  3 active torsions:
REMARK  status: ('A' for Active; 'I' for Inactive)
REMARK    1  A    between atoms: N_6  and  C_7
REMARK    2  A    between atoms: C_7  and  C_8
REMARK    3  A    between atoms: C_12  and  C_13
REMARK                            x       y       z     vdW  Elec       q    Type
REMARK                         _______ _______ _______ _____ _____    ______ ____
ROOT
ATOM      1  C   UNL     1      47.764   4.885  15.887  0.00  0.00    +0.000 A 
ATOM      2  C   UNL     1      48.573   6.017  15.744  0.00  0.00    +0.000 A 
ATOM      3  C   UNL     1      48.531   6.764  14.570  0.00  0.00    +0.000 A 
ATOM      4  C   UNL     1      47.670   6.392  13.531  0.00  0.00    +0.000 A 
ATOM      5  C   UNL     1      46.827   5.272  13.640  0.00  0.00    +0.000 A 
ATOM      6  C   UNL     1      46.881   4.543  14.846  0.00  0.00    +0.000 A 
ENDROOT
BRANCH   5   7
ATOM      7  C   UNL     1      45.950   4.853  12.524  0.00  0.00    +0.000 A 
ATOM      8  C   UNL     1      45.802   5.615  11.355  0.00  0.00    +0.000 A 
ATOM      9  C   UNL     1      44.953   5.195  10.330  0.00  0.00    +0.000 A 
ATOM     10  C   UNL     1      44.267   4.004  10.490  0.00  0.00    +0.000 A 
ATOM     11  N   UNL     1      44.366   3.233  11.589  0.00  0.00    +0.000 NA
ATOM     12  C   UNL     1      45.193   3.677  12.570  0.00  0.00    +0.000 A 
ENDBRANCH   5   7
BRANCH   1  13
ATOM     13  C   UNL     1      47.889   4.001  17.103  0.00  0.00    +0.000 C 
BRANCH  13  19
ATOM     14  F   UNL     1      53.880   2.000  18.308  0.00  0.00    +0.000 F 
ATOM     15  C   UNL     1      52.609   2.249  17.970  0.00  0.00    +0.000 A 
ATOM     16  C   UNL     1      52.047   3.488  18.214  0.00  0.00    +0.000 A 
ATOM     17  C   UNL     1      50.722   3.703  17.842  0.00  0.00    +0.000 A 
ATOM     18  C   UNL     1      49.984   2.677  17.241  0.00  0.00    +0.000 A 
ATOM     19  N   UNL     1      48.677   2.825  16.848  0.00  0.00    +0.000 N 
ATOM     20  N   UNL     1      50.535   1.471  17.004  0.00  0.00    +0.000 NA
ATOM     21  C   UNL     1      51.829   1.279  17.372  0.00  0.00    +0.000 A 
ATOM     22  H   UNL     1      48.255   1.997  16.447  0.00  0.00    +0.000 HD
ENDBRANCH  13  19
ENDBRANCH   1  13
TORSDOF 3
ENDMDL
MODEL 8
REMARK VINA RESULT:    -6.315      3.889      7.368
REMARK INTER + INTRA:          -8.107
REMARK INTER:                  -7.645
REMARK INTRA:                  -0.462
REMARK UNBOUND:                -0.684
REMARK  Name = 
REMARK  3 active torsions:
REMARK  status: ('A' for Active; 'I' for Inactive)
REMARK    1  A    between atoms: N_6  and  C_7
REMARK    2  A    between atoms: C_7  and  C_8
REMARK    3  A    between atoms: C_12  and  C_13
REMARK                            x       y       z     vdW  Elec       q    Type
REMARK                         _______ _______ _______ _____ _____    ______ ____
ROOT
ATOM      1  C   UNL     1      47.409   7.226  13.335  0.00  0.00    +0.000 A 
ATOM      2  C   UNL     1      46.720   8.443  13.357  0.00  0.00    +0.000 A 
ATOM      3  C   UNL     1      45.603   8.629  12.547  0.00  0.00    +0.000 A 
ATOM      4  C   UNL     1      45.159   7.596  11.715  0.00  0.00    +0.000 A 
ATOM      5  C   UNL     1      45.812   6.351  11.675  0.00  0.00    +0.000 A 
ATOM      6  C   UNL     1      46.931   6.187  12.516  0.00  0.00    +0.000 A 
ENDROOT
BRANCH   5   7
ATOM      7  C   UNL     1      45.367   5.274  10.762  0.00  0.00    +0.000 A 
ATOM      8  C   UNL     1      45.703   5.254   9.400  0.00  0.00    +0.000 A 
ATOM      9  C   UNL     1      45.253   4.229   8.567  0.00  0.00    +0.000 A 
ATOM     10  C   UNL     1      44.475   3.227   9.118  0.00  0.00    +0.000 A 
ATOM     11  N   UNL     1      44.118   3.194  10.416  0.00  0.00    +0.000 NA
ATOM     12  C   UNL     1      44.566   4.212  11.194  0.00  0.00    +0.000 A 
ENDBRANCH   5   7
BRANCH   1  13
ATOM     13  C   UNL     1      48.690   7.055  14.116  0.00  0.00    +0.000 C 
BRANCH  13  19
ATOM     14  F   UNL     1      47.010   2.206  17.989  0.00  0.00    +0.000 F 
ATOM     15  C   UNL     1      47.361   3.323  17.341  0.00  0.00    +0.000 A 
ATOM     16  C   UNL     1      47.445   3.336  15.961  0.00  0.00    +0.000 A 
ATOM     17  C   UNL     1      47.811   4.523  15.328  0.00  0.00    +0.000 A 
ATOM     18  C   UNL     1      48.091   5.666  16.083  0.00  0.00    +0.000 A 
ATOM     19  N   UNL     1      48.453   6.866  15.522  0.00  0.00    +0.000 N 
ATOM     20  N   UNL     1      48.008   5.649  17.428  0.00  0.00    +0.000 NA
ATOM     21  C   UNL     1      47.649   4.485  18.029  0.00  0.00    +0.000 A 
ATOM     22  H   UNL     1      48.650   7.606  16.184  0.00  0.00    +0.000 HD
ENDBRANCH  13  19
ENDBRANCH   1  13
TORSDOF 3
ENDMDL
MODEL 9
REMARK VINA RESULT:    -6.004      5.174      8.597
REMARK INTER + INTRA:          -7.742
REMARK INTER:                  -7.184
REMARK INTRA:                  -0.558
REMARK UNBOUND:                -0.684
REMARK  Name = 
REMARK  3 active torsions:
REMARK  status: ('A' for Active; 'I' for Inactive)
REMARK    1  A    between atoms: N_6  and  C_7
REMARK    2  A    between atoms: C_7  and  C_8
REMARK    3  A    between atoms: C_12  and  C_13
REMARK                            x       y       z     vdW  Elec       q    Type
REMARK                         _______ _______ _______ _____ _____    ______ ____
ROOT
ATOM      1  C   UNL     1      48.561   6.920  13.979  0.00  0.00    +0.000 A 
ATOM      2  C   UNL     1      49.082   7.714  12.952  0.00  0.00    +0.000 A 
ATOM      3  C   UNL     1      48.480   7.718  11.696  0.00  0.00    +0.000 A 
ATOM      4  C   UNL     1      47.345   6.937  11.459  0.00  0.00    +0.000 A 
ATOM      5  C   UNL     1      46.778   6.138  12.468  0.00  0.00    +0.000 A 
ATOM      6  C   UNL     1      47.400   6.165  13.733  0.00  0.00    +0.000 A 
ENDROOT
BRANCH   5   7
ATOM      7  C   UNL     1      45.603   5.277  12.204  0.00  0.00    +0.000 A 
ATOM      8  C   UNL     1      44.992   5.202  10.944  0.00  0.00    +0.000 A 
ATOM      9  C   UNL     1      43.876   4.390  10.736  0.00  0.00    +0.000 A 
ATOM     10  C   UNL     1      43.391   3.654  11.802  0.00  0.00    +0.000 A 
ATOM     11  N   UNL     1      43.932   3.687  13.035  0.00  0.00    +0.000 NA
ATOM     12  C   UNL     1      45.011   4.495  13.202  0.00  0.00    +0.000 A 
ENDBRANCH   5   7
BRANCH   1  13
ATOM     13  C   UNL     1      49.274   6.815  15.304  0.00  0.00    +0.000 C 
BRANCH  13  19
ATOM     14  F   UNL     1      48.786   4.096  21.111  0.00  0.00    +0.000 F 
ATOM     15  C   UNL     1      48.726   4.752  19.946  0.00  0.00    +0.000 A 
ATOM     16  C   UNL     1      49.639   4.488  18.943  0.00  0.00    +0.000 A 
ATOM     17  C   UNL     1      49.535   5.192  17.745  0.00  0.00    +0.000 A 
ATOM     18  C   UNL     1      48.529   6.149  17.576  0.00  0.00    +0.000 A 
ATOM     19  N   UNL     1      48.370   6.875  16.421  0.00  0.00    +0.000 N 
ATOM     20  N   UNL     1      47.640   6.404  18.556  0.00  0.00    +0.000 NA
ATOM     21  C   UNL     1      47.754   5.707  19.716  0.00  0.00    +0.000 A 
ATOM     22  H   UNL     1      47.615   7.549  16.440  0.00  0.00    +0.000 HD
ENDBRANCH  13  19
ENDBRANCH   1  13
TORSDOF 3
ENDMDL
