MODEL 1
REMARK VINA RESULT:    -7.854      0.000      0.000
REMARK INTER + INTRA:         -10.904
REMARK INTER:                 -10.380
REMARK INTRA:                  -0.524
REMARK UNBOUND:                -0.524
REMARK  Name = 
REMARK  8 active torsions:
REMARK  status: ('A' for Active; 'I' for Inactive)
REMARK    1  A    between atoms: C_1  and  C_2
REMARK    2  A    between atoms: C_2  and  C_3
REMARK    3  A    between atoms: C_2  and  N_4
REMARK    4  A    between atoms: C_2  and  C_5
REMARK    5  A    between atoms: C_5  and  C_6
REMARK    6  A    between atoms: C_10  and  C_11
REMARK    7  A    between atoms: C_11  and  N_12
REMARK    8  A    between atoms: C_17  and  C_18
REMARK                            x       y       z     vdW  Elec       q    Type
REMARK                         _______ _______ _______ _____ _____    ______ ____
ROOT
ATOM      1  C   UNL     1      43.455   5.801  10.645  0.00  0.00    +0.000 C 
ENDROOT
BRANCH   1   2
ATOM      2  N   UNL     1      43.880   4.418  10.443  0.00  0.00    +0.000 N 
ATOM      3  C   UNL     1      43.359   3.351  11.134  0.00  0.00    +0.000 A 
ATOM      4  C   UNL     1      43.927   2.200  10.638  0.00  0.00    +0.000 A 
ATOM      5  C   UNL     1      44.827   2.574   9.605  0.00  0.00    +0.000 A 
ATOM      6  C   UNL     1      45.670   1.838   8.745  0.00  0.00    +0.000 A 
ATOM      7  C   UNL     1      46.451   2.517   7.797  0.00  0.00    +0.000 A 
ATOM      8  C   UNL     1      46.378   3.907   7.696  0.00  0.00    +0.000 A 
ATOM      9  C   UNL     1      45.547   4.655   8.537  0.00  0.00    +0.000 A 
ATOM     10  C   UNL     1      44.779   3.968   9.492  0.00  0.00    +0.000 A 
BRANCH   7  11
ATOM     11  C   UNL     1      47.347   1.790   6.858  0.00  0.00    +0.000 C 
ATOM     12  N   UNL     1      48.398   2.482   6.319  0.00  0.00    +0.000 N 
ATOM     13  O   UNL     1      47.142   0.625   6.543  0.00  0.00    +0.000 OA
ATOM     14  H   UNL     1      48.467   3.488   6.359  0.00  0.00    +0.000 HD
ATOM     15  H   UNL     1      48.934   2.001   5.610  0.00  0.00    +0.000 HD
ENDBRANCH   7  11
ENDBRANCH   1   2
BRANCH   1  20
ATOM     16  C   UNL     1      46.288   6.606  12.882  0.00  0.00    +0.000 A 
ATOM     17  C   UNL     1      46.323   7.996  12.902  0.00  0.00    +0.000 A 
ATOM     18  C   UNL     1      45.393   8.697  12.146  0.00  0.00    +0.000 A 
ATOM     19  C   UNL     1      44.453   7.999  11.398  0.00  0.00    +0.000 A 
ATOM     20  C   UNL     1      44.466   6.608  11.424  0.00  0.00    +0.000 A 
ATOM     21  N   UNL     1      45.362   5.911  12.173  0.00  0.00    +0.000 NA
BRANCH  16  22
ATOM     22  C   UNL     1      47.356   5.811  13.600  0.00  0.00    +0.000 C 
BRANCH  22  24
ATOM     23  C   UNL     1      47.417   4.495  15.798  0.00  0.00    +0.000 C 
ATOM     24  C   UNL     1      46.813   4.586  14.387  0.00  0.00    +0.000 C 
ATOM     25  C   UNL     1      47.058   3.271  13.630  0.00  0.00    +0.000 C 
BRANCH  24  26
ATOM     26  N   UNL     1      45.353   4.751  14.558  0.00  0.00    +0.000 NA
ATOM     27  H   UNL     1      44.940   3.857  14.825  0.00  0.00    +0.000 HD
ATOM     28  H   UNL     1      44.930   4.993  13.662  0.00  0.00    +0.000 HD
ENDBRANCH  24  26
ENDBRANCH  22  24
ENDBRANCH  16  22
ENDBRANCH   1  20
TORSDOF 6
ENDMDL
MODEL 2
REMARK VINA RESULT:    -7.347      1.764      3.248
REMARK INTER + INTRA:         -10.233
REMARK INTER:                  -9.242
REMARK INTRA:                  -0.991
REMARK UNBOUND:                -0.524
REMARK  Name = 
REMARK  8 active torsions:
REMARK  status: ('A' for Active; 'I' for Inactive)
REMARK    1  A    between atoms: C_1  and  C_2
REMARK    2  A    between atoms: C_2  and  C_3
REMARK    3  A    between atoms: C_2  and  N_4
REMARK    4  A    between atoms: C_2  and  C_5
REMARK    5  A    between atoms: C_5  and  C_6
REMARK    6  A    between atoms: C_10  and  C_11
REMARK    7  A    between atoms: C_11  and  N_12
REMARK    8  A    between atoms: C_17  and  C_18
REMARK                            x       y       z     vdW  Elec       q    Type
REMARK                         _______ _______ _______ _____ _____    ______ ____
ROOT
ATOM      1  C   UNL     1      44.449   5.904  11.354  0.00  0.00    +0.000 C 
ENDROOT
BRANCH   1   2
ATOM      2  N   UNL     1      44.497   4.560  10.780  0.00  0.00    +0.000 N 
ATOM      3  C   UNL     1      43.768   3.500  11.260  0.00  0.00    +0.000 A 
ATOM      4  C   UNL     1      43.995   2.418  10.439  0.00  0.00    +0.000 A 
ATOM      5  C   UNL     1      44.895   2.831   9.420  0.00  0.00    +0.000 A 
ATOM      6  C   UNL     1      45.468   2.170   8.313  0.00  0.00    +0.000 A 
ATOM      7  C   UNL     1      46.335   2.874   7.462  0.00  0.00    +0.000 A 
ATOM      8  C   UNL     1      46.609   4.222   7.701  0.00  0.00    +0.000 A 
ATOM      9  C   UNL     1      46.048   4.896   8.792  0.00  0.00    +0.000 A 
ATOM     10  C   UNL     1      45.192   4.179   9.645  0.00  0.00    +0.000 A 
BRANCH   7  11
ATOM     11  C   UNL     1      46.957   2.230   6.274  0.00  0.00    +0.000 C 
ATOM     12  N   UNL     1      47.214   3.020   5.186  0.00  0.00    +0.000 N 
ATOM     13  O   UNL     1      47.204   1.032   6.246  0.00  0.00    +0.000 OA
ATOM     14  H   UNL     1      46.817   3.942   5.074  0.00  0.00    +0.000 HD
ATOM     15  H   UNL     1      47.544   2.545   4.356  0.00  0.00    +0.000 HD
ENDBRANCH   7  11
ENDBRANCH   1   2
BRANCH   1  20
ATOM     16  C   UNL     1      47.621   7.581  12.251  0.00  0.00    +0.000 A 
ATOM     17  C   UNL     1      48.035   6.931  13.409  0.00  0.00    +0.000 A 
ATOM     18  C   UNL     1      47.241   5.915  13.924  0.00  0.00    +0.000 A 
ATOM     19  C   UNL     1      46.064   5.569  13.271  0.00  0.00    +0.000 A 
ATOM     20  C   UNL     1      45.708   6.253  12.112  0.00  0.00    +0.000 A 
ATOM     21  N   UNL     1      46.485   7.240  11.591  0.00  0.00    +0.000 NA
BRANCH  16  22
ATOM     22  C   UNL     1      48.400   8.767  11.729  0.00  0.00    +0.000 C 
BRANCH  22  24
ATOM     23  C   UNL     1      47.939  11.217  11.133  0.00  0.00    +0.000 C 
ATOM     24  C   UNL     1      47.874  10.141  12.229  0.00  0.00    +0.000 C 
ATOM     25  C   UNL     1      48.634  10.621  13.476  0.00  0.00    +0.000 C 
BRANCH  24  26
ATOM     26  N   UNL     1      46.448   9.989  12.593  0.00  0.00    +0.000 NA
ATOM     27  H   UNL     1      46.152   9.029  12.410  0.00  0.00    +0.000 HD
ATOM     28  H   UNL     1      45.876  10.575  11.984  0.00  0.00    +0.000 HD
ENDBRANCH  24  26
ENDBRANCH  22  24
ENDBRANCH  16  22
ENDBRANCH   1  20
TORSDOF 6
ENDMDL
MODEL 3
REMARK VINA RESULT:    -6.895      3.623      5.731
REMARK INTER + INTRA:          -9.636
REMARK INTER:                  -8.542
REMARK INTRA:                  -1.094
REMARK UNBOUND:                -0.524
REMARK  Name = 
REMARK  8 active torsions:
REMARK  status: ('A' for Active; 'I' for Inactive)
REMARK    1  A    between atoms: C_1  and  C_2
REMARK    2  A    between atoms: C_2  and  C_3
REMARK    3  A    between atoms: C_2  and  N_4
REMARK    4  A    between atoms: C_2  and  C_5
REMARK    5  A    between atoms: C_5  and  C_6
REMARK    6  A    between atoms: C_10  and  C_11
REMARK    7  A    between atoms: C_11  and  N_12
REMARK    8  A    between atoms: C_17  and  C_18
REMARK                            x       y       z     vdW  Elec       q    Type
REMARK                         _______ _______ _______ _____ _____    ______ ____
ROOT
ATOM      1  C   UNL     1      48.858   7.675  13.860  0.00  0.00    +0.000 C 
ENDROOT
BRANCH   1   2
ATOM      2  N   UNL     1      47.475   7.679  13.388  0.00  0.00    +0.000 N 
ATOM      3  C   UNL     1      46.787   8.818  13.051  0.00  0.00    +0.000 A 
ATOM      4  C   UNL     1      45.549   8.447  12.577  0.00  0.00    +0.000 A 
ATOM      5  C   UNL     1      45.476   7.030  12.626  0.00  0.00    +0.000 A 
ATOM      6  C   UNL     1      44.476   6.101  12.266  0.00  0.00    +0.000 A 
ATOM      7  C   UNL     1      44.718   4.728  12.429  0.00  0.00    +0.000 A 
ATOM      8  C   UNL     1      45.947   4.288  12.924  0.00  0.00    +0.000 A 
ATOM      9  C   UNL     1      46.952   5.192  13.284  0.00  0.00    +0.000 A 
ATOM     10  C   UNL     1      46.696   6.564  13.129  0.00  0.00    +0.000 A 
BRANCH   7  11
ATOM     11  C   UNL     1      43.703   3.707  12.055  0.00  0.00    +0.000 C 
ATOM     12  N   UNL     1      43.882   2.434  12.524  0.00  0.00    +0.000 N 
ATOM     13  O   UNL     1      42.757   3.974  11.326  0.00  0.00    +0.000 OA
ATOM     14  H   UNL     1      44.755   2.114  12.919  0.00  0.00    +0.000 HD
ATOM     15  H   UNL     1      43.239   1.734  12.178  0.00  0.00    +0.000 HD
ENDBRANCH   7  11
ENDBRANCH   1   2
BRANCH   1  20
ATOM     16  C   UNL     1      49.568   5.919  17.037  0.00  0.00    +0.000 A 
ATOM     17  C   UNL     1      49.154   6.812  18.020  0.00  0.00    +0.000 A 
ATOM     18  C   UNL     1      48.636   8.040  17.630  0.00  0.00    +0.000 A 
ATOM     19  C   UNL     1      48.536   8.343  16.278  0.00  0.00    +0.000 A 
ATOM     20  C   UNL     1      48.962   7.404  15.342  0.00  0.00    +0.000 A 
ATOM     21  N   UNL     1      49.457   6.193  15.712  0.00  0.00    +0.000 NA
BRANCH  16  22
ATOM     22  C   UNL     1      50.244   4.624  17.427  0.00  0.00    +0.000 C 
BRANCH  22  24
ATOM     23  C   UNL     1      48.470   3.232  18.645  0.00  0.00    +0.000 C 
ATOM     24  C   UNL     1      49.313   3.381  17.368  0.00  0.00    +0.000 C 
ATOM     25  C   UNL     1      50.106   2.089  17.114  0.00  0.00    +0.000 C 
BRANCH  24  26
ATOM     26  N   UNL     1      48.363   3.562  16.249  0.00  0.00    +0.000 NA
ATOM     27  H   UNL     1      48.001   4.517  16.263  0.00  0.00    +0.000 HD
ATOM     28  H   UNL     1      47.553   2.958  16.387  0.00  0.00    +0.000 HD
ENDBRANCH  24  26
ENDBRANCH  22  24
ENDBRANCH  16  22
ENDBRANCH   1  20
TORSDOF 6
ENDMDL
MODEL 4
REMARK VINA RESULT:    -6.877      1.602      2.405
REMARK INTER + INTRA:          -9.612
REMARK INTER:                  -9.335
REMARK INTRA:                  -0.277
REMARK UNBOUND:                -0.524
REMARK  Name = 
REMARK  8 active torsions:
REMARK  status: ('A' for Active; 'I' for Inactive)
REMARK    1  A    between atoms: C_1  and  C_2
REMARK    2  A    between atoms: C_2  and  C_3
REMARK    3  A    between atoms: C_2  and  N_4
REMARK    4  A    between atoms: C_2  and  C_5
REMARK    5  A    between atoms: C_5  and  C_6
REMARK    6  A    between atoms: C_10  and  C_11
REMARK    7  A    between atoms: C_11  and  N_12
REMARK    8  A    between atoms: C_17  and  C_18
REMARK                            x       y       z     vdW  Elec       q    Type
REMARK                         _______ _______ _______ _____ _____    ______ ____
ROOT
ATOM      1  C   UNL     1      44.398   5.763  12.487  0.00  0.00    +0.000 C 
ENDROOT
BRANCH   1   2
ATOM      2  N   UNL     1      44.304   4.592  11.618  0.00  0.00    +0.000 N 
ATOM      3  C   UNL     1      43.490   3.516  11.874  0.00  0.00    +0.000 A 
ATOM      4  C   UNL     1      43.592   2.640  10.817  0.00  0.00    +0.000 A 
ATOM      5  C   UNL     1      44.501   3.200   9.880  0.00  0.00    +0.000 A 
ATOM      6  C   UNL     1      44.981   2.769   8.625  0.00  0.00    +0.000 A 
ATOM      7  C   UNL     1      45.889   3.574   7.920  0.00  0.00    +0.000 A 
ATOM      8  C   UNL     1      46.296   4.800   8.450  0.00  0.00    +0.000 A 
ATOM      9  C   UNL     1      45.829   5.247   9.691  0.00  0.00    +0.000 A 
ATOM     10  C   UNL     1      44.931   4.428  10.395  0.00  0.00    +0.000 A 
BRANCH   7  11
ATOM     11  C   UNL     1      46.418   3.174   6.588  0.00  0.00    +0.000 C 
ATOM     12  N   UNL     1      46.828   1.877   6.432  0.00  0.00    +0.000 N 
ATOM     13  O   UNL     1      46.521   3.974   5.668  0.00  0.00    +0.000 OA
ATOM     14  H   UNL     1      46.985   1.256   7.212  0.00  0.00    +0.000 HD
ATOM     15  H   UNL     1      47.275   1.651   5.553  0.00  0.00    +0.000 HD
ENDBRANCH   7  11
ENDBRANCH   1   2
BRANCH   1  20
ATOM     16  C   UNL     1      47.132   4.749  14.762  0.00  0.00    +0.000 A 
ATOM     17  C   UNL     1      48.022   5.818  14.724  0.00  0.00    +0.000 A 
ATOM     18  C   UNL     1      47.723   6.906  13.914  0.00  0.00    +0.000 A 
ATOM     19  C   UNL     1      46.548   6.905  13.172  0.00  0.00    +0.000 A 
ATOM     20  C   UNL     1      45.696   5.807  13.258  0.00  0.00    +0.000 A 
ATOM     21  N   UNL     1      45.971   4.743  14.059  0.00  0.00    +0.000 NA
BRANCH  16  22
ATOM     22  C   UNL     1      47.482   3.501  15.541  0.00  0.00    +0.000 C 
BRANCH  22  24
ATOM     23  C   UNL     1      47.164   5.137  17.487  0.00  0.00    +0.000 C 
ATOM     24  C   UNL     1      47.604   3.723  17.073  0.00  0.00    +0.000 C 
ATOM     25  C   UNL     1      49.031   3.454  17.575  0.00  0.00    +0.000 C 
BRANCH  24  26
ATOM     26  N   UNL     1      46.693   2.777  17.755  0.00  0.00    +0.000 NA
ATOM     27  H   UNL     1      46.110   3.288  18.419  0.00  0.00    +0.000 HD
ATOM     28  H   UNL     1      47.239   2.122  18.315  0.00  0.00    +0.000 HD
ENDBRANCH  24  26
ENDBRANCH  22  24
ENDBRANCH  16  22
ENDBRANCH   1  20
TORSDOF 6
ENDMDL
MODEL 5
REMARK VINA RESULT:    -6.306      4.522      8.272
REMARK INTER + INTRA:          -8.858
REMARK INTER:                  -8.582
REMARK INTRA:                  -0.275
REMARK UNBOUND:                -0.524
REMARK  Name = 
REMARK  8 active torsions:
REMARK  status: ('A' for Active; 'I' for Inactive)
REMARK    1  A    between atoms: C_1  and  C_2
REMARK    2  A    between atoms: C_2  and  C_3
REMARK    3  A    between atoms: C_2  and  N_4
REMARK    4  A    between atoms: C_2  and  C_5
REMARK    5  A    between atoms: C_5  and  C_6
REMARK    6  A    between atoms: C_10  and  C_11
REMARK    7  A    between atoms: C_11  and  N_12
REMARK    8  A    between atoms: C_17  and  C_18
REMARK                            x       y       z     vdW  Elec       q    Type
REMARK                         _______ _______ _______ _____ _____    ______ ____
ROOT
ATOM      1  C   UNL     1      47.174   4.138  16.589  0.00  0.00    +0.000 C 
ENDROOT
BRANCH   1   2
ATOM      2  N   UNL     1      48.504   4.424  17.121  0.00  0.00    +0.000 N 
ATOM      3  C   UNL     1      48.853   5.619  17.701  0.00  0.00    +0.000 A 
ATOM      4  C   UNL     1      50.148   5.513  18.157  0.00  0.00    +0.000 A 
ATOM      5  C   UNL     1      50.608   4.206  17.846  0.00  0.00    +0.000 A 
ATOM      6  C   UNL     1      51.827   3.531  18.073  0.00  0.00    +0.000 A 
ATOM      7  C   UNL     1      51.972   2.204  17.642  0.00  0.00    +0.000 A 
ATOM      8  C   UNL     1      50.910   1.552  17.013  0.00  0.00    +0.000 A 
ATOM      9  C   UNL     1      49.692   2.201  16.781  0.00  0.00    +0.000 A 
ATOM     10  C   UNL     1      49.562   3.535  17.203  0.00  0.00    +0.000 A 
BRANCH   7  11
ATOM     11  C   UNL     1      53.230   1.443  17.866  0.00  0.00    +0.000 C 
ATOM     12  N   UNL     1      53.149   0.279  18.583  0.00  0.00    +0.000 N 
ATOM     13  O   UNL     1      54.311   1.849  17.460  0.00  0.00    +0.000 OA
ATOM     14  H   UNL     1      52.340   0.032  19.133  0.00  0.00    +0.000 HD
ATOM     15  H   UNL     1      54.027  -0.170  18.808  0.00  0.00    +0.000 HD
ENDBRANCH   7  11
ENDBRANCH   1   2
BRANCH   1  20
ATOM     16  C   UNL     1      46.148   4.160  13.036  0.00  0.00    +0.000 A 
ATOM     17  C   UNL     1      46.701   5.331  12.529  0.00  0.00    +0.000 A 
ATOM     18  C   UNL     1      47.425   6.152  13.383  0.00  0.00    +0.000 A 
ATOM     19  C   UNL     1      47.586   5.783  14.713  0.00  0.00    +0.000 A 
ATOM     20  C   UNL     1      47.013   4.595  15.159  0.00  0.00    +0.000 A 
ATOM     21  N   UNL     1      46.315   3.776  14.327  0.00  0.00    +0.000 NA
BRANCH  16  22
ATOM     22  C   UNL     1      45.258   3.303  12.164  0.00  0.00    +0.000 C 
BRANCH  22  24
ATOM     23  C   UNL     1      43.854   4.819  10.648  0.00  0.00    +0.000 C 
ATOM     24  C   UNL     1      43.857   3.917  11.893  0.00  0.00    +0.000 C 
ATOM     25  C   UNL     1      43.336   4.704  13.106  0.00  0.00    +0.000 C 
BRANCH  24  26
ATOM     26  N   UNL     1      42.909   2.814  11.622  0.00  0.00    +0.000 NA
ATOM     27  H   UNL     1      41.988   3.060  11.988  0.00  0.00    +0.000 HD
ATOM     28  H   UNL     1      43.197   1.983  12.137  0.00  0.00    +0.000 HD
ENDBRANCH  24  26
ENDBRANCH  22  24
ENDBRANCH  16  22
ENDBRANCH   1  20
TORSDOF 6
ENDMDL
MODEL 6
REMARK VINA RESULT:    -6.190      4.614      8.117
REMARK INTER + INTRA:          -8.705
REMARK INTER:                  -7.869
REMARK INTRA:                  -0.836
REMARK UNBOUND:                -0.524
REMARK  Name = 
REMARK  8 active torsions:
REMARK  status: ('A' for Active; 'I' for Inactive)
REMARK    1  A    between atoms: C_1  and  C_2
REMARK    2  A    between atoms: C_2  and  C_3
REMARK    3  A    between atoms: C_2  and  N_4
REMARK    4  A    between atoms: C_2  and  C_5
REMARK    5  A    between atoms: C_5  and  C_6
REMARK    6  A    between atoms: C_10  and  C_11
REMARK    7  A    between atoms: C_11  and  N_12
REMARK    8  A    between atoms: C_17  and  C_18
REMARK                            x       y       z     vdW  Elec       q    Type
REMARK                         _______ _______ _______ _____ _____    ______ ____
ROOT
ATOM      1  C   UNL     1      48.653   6.223  17.343  0.00  0.00    +0.000 C 
ENDROOT
BRANCH   1   2
ATOM      2  N   UNL     1      48.716   4.766  17.254  0.00  0.00    +0.000 N 
ATOM      3  C   UNL     1      47.642   3.974  16.930  0.00  0.00    +0.000 A 
ATOM      4  C   UNL     1      48.075   2.669  16.861  0.00  0.00    +0.000 A 
ATOM      5  C   UNL     1      49.465   2.661  17.155  0.00  0.00    +0.000 A 
ATOM      6  C   UNL     1      50.432   1.635  17.222  0.00  0.00    +0.000 A 
ATOM      7  C   UNL     1      51.761   1.959  17.534  0.00  0.00    +0.000 A 
ATOM      8  C   UNL     1      52.125   3.289  17.755  0.00  0.00    +0.000 A 
ATOM      9  C   UNL     1      51.182   4.321  17.690  0.00  0.00    +0.000 A 
ATOM     10  C   UNL     1      49.851   3.985  17.390  0.00  0.00    +0.000 A 
BRANCH   7  11
ATOM     11  C   UNL     1      52.822   0.919  17.607  0.00  0.00    +0.000 C 
ATOM     12  N   UNL     1      52.568  -0.194  18.361  0.00  0.00    +0.000 N 
ATOM     13  O   UNL     1      53.901   1.058  17.047  0.00  0.00    +0.000 OA
ATOM     14  H   UNL     1      51.807  -0.245  19.023  0.00  0.00    +0.000 HD
ATOM     15  H   UNL     1      53.337  -0.841  18.479  0.00  0.00    +0.000 HD
ENDBRANCH   7  11
ENDBRANCH   1   2
BRANCH   1  20
ATOM     16  C   UNL     1      48.770   6.982  13.725  0.00  0.00    +0.000 A 
ATOM     17  C   UNL     1      49.666   8.041  13.628  0.00  0.00    +0.000 A 
ATOM     18  C   UNL     1      50.244   8.535  14.789  0.00  0.00    +0.000 A 
ATOM     19  C   UNL     1      49.922   7.959  16.012  0.00  0.00    +0.000 A 
ATOM     20  C   UNL     1      49.023   6.897  16.043  0.00  0.00    +0.000 A 
ATOM     21  N   UNL     1      48.462   6.396  14.910  0.00  0.00    +0.000 NA
BRANCH  16  22
ATOM     22  C   UNL     1      48.035   6.497  12.496  0.00  0.00    +0.000 C 
BRANCH  22  24
ATOM     23  C   UNL     1      45.813   6.334  11.229  0.00  0.00    +0.000 C 
ATOM     24  C   UNL     1      46.495   6.692  12.560  0.00  0.00    +0.000 C 
ATOM     25  C   UNL     1      46.120   8.126  12.966  0.00  0.00    +0.000 C 
BRANCH  24  26
ATOM     26  N   UNL     1      45.950   5.770  13.580  0.00  0.00    +0.000 NA
ATOM     27  H   UNL     1      45.250   5.164  13.149  0.00  0.00    +0.000 HD
ATOM     28  H   UNL     1      45.452   6.304  14.291  0.00  0.00    +0.000 HD
ENDBRANCH  24  26
ENDBRANCH  22  24
ENDBRANCH  16  22
ENDBRANCH   1  20
TORSDOF 6
ENDMDL
MODEL 7
REMARK VINA RESULT:    -6.074      4.160      8.075
REMARK INTER + INTRA:          -8.551
REMARK INTER:                  -7.597
REMARK INTRA:                  -0.954
REMARK UNBOUND:                -0.524
REMARK  Name = 
REMARK  8 active torsions:
REMARK  status: ('A' for Active; 'I' for Inactive)
REMARK    1  A    between atoms: C_1  and  C_2
REMARK    2  A    between atoms: C_2  and  C_3
REMARK    3  A    between atoms: C_2  and  N_4
REMARK    4  A    between atoms: C_2  and  C_5
REMARK    5  A    between atoms: C_5  and  C_6
REMARK    6  A    between atoms: C_10  and  C_11
REMARK    7  A    between atoms: C_11  and  N_12
REMARK    8  A    between atoms: C_17  and  C_18
REMARK                            x       y       z     vdW  Elec       q    Type
REMARK                         _______ _______ _______ _____ _____    ______ ____
ROOT
ATOM      1  C   UNL     1      48.674   6.632  13.426  0.00  0.00    +0.000 C 
ENDROOT
BRANCH   1   2
ATOM      2  N   UNL     1      48.900   7.134  14.780  0.00  0.00    +0.000 N 
ATOM      3  C   UNL     1      49.310   8.415  15.060  0.00  0.00    +0.000 A 
ATOM      4  C   UNL     1      49.344   8.565  16.428  0.00  0.00    +0.000 A 
ATOM      5  C   UNL     1      48.940   7.332  17.007  0.00  0.00    +0.000 A 
ATOM      6  C   UNL     1      48.774   6.899  18.340  0.00  0.00    +0.000 A 
ATOM      7  C   UNL     1      48.339   5.589  18.591  0.00  0.00    +0.000 A 
ATOM      8  C   UNL     1      48.054   4.729  17.528  0.00  0.00    +0.000 A 
ATOM      9  C   UNL     1      48.209   5.140  16.199  0.00  0.00    +0.000 A 
ATOM     10  C   UNL     1      48.657   6.449  15.958  0.00  0.00    +0.000 A 
BRANCH   7  11
ATOM     11  C   UNL     1      48.138   5.085  19.976  0.00  0.00    +0.000 C 
ATOM     12  N   UNL     1      48.473   3.783  20.233  0.00  0.00    +0.000 N 
ATOM     13  O   UNL     1      47.657   5.788  20.855  0.00  0.00    +0.000 OA
ATOM     14  H   UNL     1      48.643   3.108  19.501  0.00  0.00    +0.000 HD
ATOM     15  H   UNL     1      48.236   3.432  21.151  0.00  0.00    +0.000 HD
ENDBRANCH   7  11
ENDBRANCH   1   2
BRANCH   1  20
ATOM     16  C   UNL     1      45.126   5.966  12.625  0.00  0.00    +0.000 A 
ATOM     17  C   UNL     1      44.666   7.166  12.092  0.00  0.00    +0.000 A 
ATOM     18  C   UNL     1      45.545   8.237  12.002  0.00  0.00    +0.000 A 
ATOM     19  C   UNL     1      46.855   8.084  12.438  0.00  0.00    +0.000 A 
ATOM     20  C   UNL     1      47.256   6.856  12.957  0.00  0.00    +0.000 A 
ATOM     21  N   UNL     1      46.408   5.796  13.035  0.00  0.00    +0.000 NA
BRANCH  16  22
ATOM     22  C   UNL     1      44.166   4.818  12.844  0.00  0.00    +0.000 C 
BRANCH  22  24
ATOM     23  C   UNL     1      44.938   3.890  10.584  0.00  0.00    +0.000 C 
ATOM     24  C   UNL     1      44.500   3.546  12.016  0.00  0.00    +0.000 C 
ATOM     25  C   UNL     1      43.317   2.566  11.978  0.00  0.00    +0.000 C 
BRANCH  24  26
ATOM     26  N   UNL     1      45.642   2.859  12.658  0.00  0.00    +0.000 NA
ATOM     27  H   UNL     1      46.249   2.465  11.938  0.00  0.00    +0.000 HD
ATOM     28  H   UNL     1      45.302   2.064  13.198  0.00  0.00    +0.000 HD
ENDBRANCH  24  26
ENDBRANCH  22  24
ENDBRANCH  16  22
ENDBRANCH   1  20
TORSDOF 6
ENDMDL
MODEL 8
REMARK VINA RESULT:    -5.876      3.860      6.873
REMARK INTER + INTRA:          -8.289
REMARK INTER:                  -7.417
REMARK INTRA:                  -0.873
REMARK UNBOUND:                -0.524
REMARK  Name = 
REMARK  8 active torsions:
REMARK  status: ('A' for Active; 'I' for Inactive)
REMARK    1  A    between atoms: C_1  and  C_2
REMARK    2  A    between atoms: C_2  and  C_3
REMARK    3  A    between atoms: C_2  and  N_4
REMARK    4  A    between atoms: C_2  and  C_5
REMARK    5  A    between atoms: C_5  and  C_6
REMARK    6  A    between atoms: C_10  and  C_11
REMARK    7  A    between atoms: C_11  and  N_12
REMARK    8  A    between atoms: C_17  and  C_18
REMARK                            x       y       z     vdW  Elec       q    Type
REMARK                         _______ _______ _______ _____ _____    ______ ____
ROOT
ATOM      1  C   UNL     1      47.983   5.724  16.454  0.00  0.00    +0.000 C 
ENDROOT
BRANCH   1   2
ATOM      2  N   UNL     1      48.139   6.218  15.088  0.00  0.00    +0.000 N 
ATOM      3  C   UNL     1      49.194   6.992  14.671  0.00  0.00    +0.000 A 
ATOM      4  C   UNL     1      49.061   7.206  13.318  0.00  0.00    +0.000 A 
ATOM      5  C   UNL     1      47.883   6.538  12.890  0.00  0.00    +0.000 A 
ATOM      6  C   UNL     1      47.255   6.397  11.634  0.00  0.00    +0.000 A 
ATOM      7  C   UNL     1      46.074   5.646  11.532  0.00  0.00    +0.000 A 
ATOM      8  C   UNL     1      45.539   5.027  12.664  0.00  0.00    +0.000 A 
ATOM      9  C   UNL     1      46.148   5.152  13.918  0.00  0.00    +0.000 A 
ATOM     10  C   UNL     1      47.322   5.917  14.011  0.00  0.00    +0.000 A 
BRANCH   7  11
ATOM     11  C   UNL     1      45.378   5.455  10.232  0.00  0.00    +0.000 C 
ATOM     12  N   UNL     1      44.036   5.189  10.263  0.00  0.00    +0.000 N 
ATOM     13  O   UNL     1      45.979   5.499   9.166  0.00  0.00    +0.000 OA
ATOM     14  H   UNL     1      43.554   4.910  11.106  0.00  0.00    +0.000 HD
ATOM     15  H   UNL     1      43.603   4.965   9.377  0.00  0.00    +0.000 HD
ENDBRANCH   7  11
ENDBRANCH   1   2
BRANCH   1  20
ATOM     16  C   UNL     1      50.787   3.503  17.394  0.00  0.00    +0.000 A 
ATOM     17  C   UNL     1      50.300   2.222  17.160  0.00  0.00    +0.000 A 
ATOM     18  C   UNL     1      49.002   2.077  16.689  0.00  0.00    +0.000 A 
ATOM     19  C   UNL     1      48.228   3.208  16.458  0.00  0.00    +0.000 A 
ATOM     20  C   UNL     1      48.775   4.463  16.706  0.00  0.00    +0.000 A 
ATOM     21  N   UNL     1      50.050   4.617  17.153  0.00  0.00    +0.000 NA
BRANCH  16  22
ATOM     22  C   UNL     1      52.153   3.692  18.016  0.00  0.00    +0.000 C 
BRANCH  22  24
ATOM     23  C   UNL     1      52.403   5.967  19.169  0.00  0.00    +0.000 C 
ATOM     24  C   UNL     1      52.134   4.467  19.363  0.00  0.00    +0.000 C 
ATOM     25  C   UNL     1      53.140   3.884  20.368  0.00  0.00    +0.000 C 
BRANCH  24  26
ATOM     26  N   UNL     1      50.781   4.348  19.950  0.00  0.00    +0.000 NA
ATOM     27  H   UNL     1      50.119   4.074  19.222  0.00  0.00    +0.000 HD
ATOM     28  H   UNL     1      50.470   5.263  20.276  0.00  0.00    +0.000 HD
ENDBRANCH  24  26
ENDBRANCH  22  24
ENDBRANCH  16  22
ENDBRANCH   1  20
TORSDOF 6
ENDMDL
MODEL 9
REMARK VINA RESULT:    -5.855      2.136      2.623
REMARK INTER + INTRA:          -8.262
REMARK INTER:                  -7.471
REMARK INTRA:                  -0.791
REMARK UNBOUND:                -0.524
REMARK  Name = 
REMARK  8 active torsions:
REMARK  status: ('A' for Active; 'I' for Inactive)
REMARK    1  A    between atoms: C_1  and  C_2
REMARK    2  A    between atoms: C_2  and  C_3
REMARK    3  A    between atoms: C_2  and  N_4
REMARK    4  A    between atoms: C_2  and  C_5
REMARK    5  A    between atoms: C_5  and  C_6
REMARK    6  A    between atoms: C_10  and  C_11
REMARK    7  A    between atoms: C_11  and  N_12
REMARK    8  A    between atoms: C_17  and  C_18
REMARK                            x       y       z     vdW  Elec       q    Type
REMARK                         _______ _______ _______ _____ _____    ______ ____
ROOT
ATOM      1  C   UNL     1      44.497   7.164  12.415  0.00  0.00    +0.000 C 
ENDROOT
BRANCH   1   2
ATOM      2  N   UNL     1      44.479   5.730  12.138  0.00  0.00    +0.000 N 
ATOM      3  C   UNL     1      43.908   4.799  12.971  0.00  0.00    +0.000 A 
ATOM      4  C   UNL     1      44.004   3.566  12.365  0.00  0.00    +0.000 A 
ATOM      5  C   UNL     1      44.656   3.748  11.117  0.00  0.00    +0.000 A 
ATOM      6  C   UNL     1      45.015   2.865  10.077  0.00  0.00    +0.000 A 
ATOM      7  C   UNL     1      45.658   3.367   8.935  0.00  0.00    +0.000 A 
ATOM      8  C   UNL     1      45.922   4.734   8.824  0.00  0.00    +0.000 A 
ATOM      9  C   UNL     1      45.571   5.627   9.843  0.00  0.00    +0.000 A 
ATOM     10  C   UNL     1      44.940   5.112  10.987  0.00  0.00    +0.000 A 
BRANCH   7  11
ATOM     11  C   UNL     1      46.048   2.483   7.804  0.00  0.00    +0.000 C 
ATOM     12  N   UNL     1      46.061   3.026   6.549  0.00  0.00    +0.000 N 
ATOM     13  O   UNL     1      46.315   1.300   7.973  0.00  0.00    +0.000 OA
ATOM     14  H   UNL     1      45.625   3.911   6.332  0.00  0.00    +0.000 HD
ATOM     15  H   UNL     1      46.231   2.386   5.785  0.00  0.00    +0.000 HD
ENDBRANCH   7  11
ENDBRANCH   1   2
BRANCH   1  20
ATOM     16  C   UNL     1      47.953   7.495  13.688  0.00  0.00    +0.000 A 
ATOM     17  C   UNL     1      48.449   8.622  13.041  0.00  0.00    +0.000 A 
ATOM     18  C   UNL     1      47.626   9.292  12.144  0.00  0.00    +0.000 A 
ATOM     19  C   UNL     1      46.335   8.829  11.922  0.00  0.00    +0.000 A 
ATOM     20  C   UNL     1      45.896   7.698  12.606  0.00  0.00    +0.000 A 
ATOM     21  N   UNL     1      46.688   7.043  13.497  0.00  0.00    +0.000 NA
BRANCH  16  22
ATOM     22  C   UNL     1      48.858   6.676  14.580  0.00  0.00    +0.000 C 
BRANCH  22  24
ATOM     23  C   UNL     1      50.372   7.964  16.198  0.00  0.00    +0.000 C 
ATOM     24  C   UNL     1      49.023   7.249  16.015  0.00  0.00    +0.000 C 
ATOM     25  C   UNL     1      48.863   6.158  17.085  0.00  0.00    +0.000 C 
BRANCH  24  26
ATOM     26  N   UNL     1      47.969   8.264  16.234  0.00  0.00    +0.000 NA
ATOM     27  H   UNL     1      47.635   8.203  17.197  0.00  0.00    +0.000 HD
ATOM     28  H   UNL     1      47.163   8.051  15.648  0.00  0.00    +0.000 HD
ENDBRANCH  24  26
ENDBRANCH  22  24
ENDBRANCH  16  22
ENDBRANCH   1  20
TORSDOF 6
ENDMDL
