MODEL 1
REMARK VINA RESULT:    -7.405      0.000      0.000
REMARK INTER + INTRA:         -10.867
REMARK INTER:                 -10.002
REMARK INTRA:                  -0.865
REMARK UNBOUND:                -0.865
REMARK  Name = 
REMARK  6 active torsions:
REMARK  status: ('A' for Active; 'I' for Inactive)
REMARK    1  A    between atoms: C_2  and  C_3
REMARK    2  A    between atoms: N_10  and  C_11
REMARK    3  A    between atoms: C_11  and  C_12
REMARK    4  A    between atoms: C_15  and  C_16
REMARK    5  A    between atoms: C_16  and  N_17
REMARK    6  A    between atoms: C_18  and  C_20
REMARK                            x       y       z     vdW  Elec       q    Type
REMARK                         _______ _______ _______ _____ _____    ______ ____
ROOT
ATOM      1  C   UNL     1      50.278   6.581  16.258  0.00  0.00    +0.000 A 
ATOM      2  C   UNL     1      50.874   7.430  15.318  0.00  0.00    +0.000 A 
ATOM      3  C   UNL     1      50.180   7.814  14.163  0.00  0.00    +0.000 A 
ATOM      4  C   UNL     1      48.868   7.375  13.935  0.00  0.00    +0.000 A 
ATOM      5  C   UNL     1      48.282   6.507  14.864  0.00  0.00    +0.000 A 
ATOM      6  C   UNL     1      48.975   6.121  16.017  0.00  0.00    +0.000 A 
ENDROOT
BRANCH   1   7
ATOM      7  C   UNL     1      51.031   6.149  17.488  0.00  0.00    +0.000 C 
BRANCH   7  15
ATOM      8  C   UNL     1      52.107   1.862  17.663  0.00  0.00    +0.000 A 
ATOM      9  C   UNL     1      53.026   0.834  17.808  0.00  0.00    +0.000 A 
ATOM     10  C   UNL     1      54.058   1.294  18.659  0.00  0.00    +0.000 A 
ATOM     11  C   UNL     1      53.721   2.570  19.039  0.00  0.00    +0.000 A 
ATOM     12  N   UNL     1      52.553   2.949  18.403  0.00  0.00    +0.000 N 
ATOM     13  C   UNL     1      51.923   4.196  18.593  0.00  0.00    +0.000 C 
ATOM     14  O   UNL     1      51.903   4.689  19.711  0.00  0.00    +0.000 OA
ATOM     15  N   UNL     1      51.507   4.783  17.418  0.00  0.00    +0.000 N 
ATOM     16  H   UNL     1      51.873   4.455  16.531  0.00  0.00    +0.000 HD
BRANCH   8  18
ATOM     17  N   UNL     1      49.852   1.759  16.406  0.00  0.00    +0.000 NA
ATOM     18  C   UNL     1      50.856   1.795  16.979  0.00  0.00    +0.000 C 
ENDBRANCH   8  18
ENDBRANCH   7  15
ENDBRANCH   1   7
BRANCH   4  19
ATOM     19  C   UNL     1      48.112   7.804  12.704  0.00  0.00    +0.000 C 
BRANCH  19  20
ATOM     20  N   UNL     1      47.353   6.718  12.139  0.00  0.00    +0.000 N 
ATOM     21  C   UNL     1      46.113   6.932  11.590  0.00  0.00    +0.000 C 
ATOM     22  O   UNL     1      45.533   8.009  11.697  0.00  0.00    +0.000 OA
ATOM     23  H   UNL     1      47.874   5.884  11.885  0.00  0.00    +0.000 HD
BRANCH  21  24
ATOM     24  C   UNL     1      45.509   5.811  10.860  0.00  0.00    +0.000 A 
ATOM     25  C   UNL     1      45.803   5.615   9.520  0.00  0.00    +0.000 A 
ATOM     26  S   UNL     1      45.087   4.213   8.862  0.00  0.00    +0.000 S 
ATOM     27  C   UNL     1      44.421   3.784  10.368  0.00  0.00    +0.000 A 
ATOM     28  N   UNL     1      43.772   2.601  10.538  0.00  0.00    +0.000 NA
ATOM     29  C   UNL     1      43.341   2.397  11.739  0.00  0.00    +0.000 A 
ATOM     30  N   UNL     1      43.459   3.289  12.773  0.00  0.00    +0.000 N 
ATOM     31  C   UNL     1      44.055   4.518  12.633  0.00  0.00    +0.000 A 
ATOM     32  O   UNL     1      44.048   5.338  13.544  0.00  0.00    +0.000 OA
ATOM     33  C   UNL     1      44.644   4.755  11.329  0.00  0.00    +0.000 A 
ATOM     34  H   UNL     1      43.046   3.094  13.673  0.00  0.00    +0.000 HD
ENDBRANCH  21  24
ENDBRANCH  19  20
ENDBRANCH   4  19
TORSDOF 6
ENDMDL
MODEL 2
REMARK VINA RESULT:    -7.272      1.820      2.383
REMARK INTER + INTRA:         -10.687
REMARK INTER:                  -9.698
REMARK INTRA:                  -0.990
REMARK UNBOUND:                -0.865
REMARK  Name = 
REMARK  6 active torsions:
REMARK  status: ('A' for Active; 'I' for Inactive)
REMARK    1  A    between atoms: C_2  and  C_3
REMARK    2  A    between atoms: N_10  and  C_11
REMARK    3  A    between atoms: C_11  and  C_12
REMARK    4  A    between atoms: C_15  and  C_16
REMARK    5  A    between atoms: C_16  and  N_17
REMARK    6  A    between atoms: C_18  and  C_20
REMARK                            x       y       z     vdW  Elec       q    Type
REMARK                         _______ _______ _______ _____ _____    ______ ____
ROOT
ATOM      1  C   UNL     1      49.437   4.940  17.497  0.00  0.00    +0.000 A 
ATOM      2  C   UNL     1      50.262   6.001  17.101  0.00  0.00    +0.000 A 
ATOM      3  C   UNL     1      49.903   6.819  16.023  0.00  0.00    +0.000 A 
ATOM      4  C   UNL     1      48.701   6.609  15.332  0.00  0.00    +0.000 A 
ATOM      5  C   UNL     1      47.889   5.534  15.713  0.00  0.00    +0.000 A 
ATOM      6  C   UNL     1      48.248   4.714  16.789  0.00  0.00    +0.000 A 
ENDROOT
BRANCH   1   7
ATOM      7  C   UNL     1      49.833   4.045  18.641  0.00  0.00    +0.000 C 
BRANCH   7  15
ATOM      8  C   UNL     1      53.922   2.608  17.759  0.00  0.00    +0.000 A 
ATOM      9  C   UNL     1      54.919   1.645  17.802  0.00  0.00    +0.000 A 
ATOM     10  C   UNL     1      54.294   0.376  17.781  0.00  0.00    +0.000 A 
ATOM     11  C   UNL     1      52.942   0.600  17.688  0.00  0.00    +0.000 A 
ATOM     12  N   UNL     1      52.695   1.960  17.719  0.00  0.00    +0.000 N 
ATOM     13  C   UNL     1      51.408   2.528  17.618  0.00  0.00    +0.000 C 
ATOM     14  O   UNL     1      50.593   2.028  16.857  0.00  0.00    +0.000 OA
ATOM     15  N   UNL     1      51.185   3.537  18.529  0.00  0.00    +0.000 N 
ATOM     16  H   UNL     1      51.795   3.639  19.332  0.00  0.00    +0.000 HD
BRANCH   8  18
ATOM     17  N   UNL     1      54.229   5.166  17.564  0.00  0.00    +0.000 NA
ATOM     18  C   UNL     1      54.107   4.019  17.651  0.00  0.00    +0.000 C 
ENDBRANCH   8  18
ENDBRANCH   7  15
ENDBRANCH   1   7
BRANCH   4  19
ATOM     19  C   UNL     1      48.302   7.502  14.185  0.00  0.00    +0.000 C 
BRANCH  19  20
ATOM     20  N   UNL     1      46.983   7.188  13.699  0.00  0.00    +0.000 N 
ATOM     21  C   UNL     1      46.791   6.733  12.418  0.00  0.00    +0.000 C 
ATOM     22  O   UNL     1      47.697   6.727  11.589  0.00  0.00    +0.000 OA
ATOM     23  H   UNL     1      46.268   7.018  14.400  0.00  0.00    +0.000 HD
BRANCH  21  24
ATOM     24  C   UNL     1      45.447   6.250  12.081  0.00  0.00    +0.000 A 
ATOM     25  C   UNL     1      44.515   7.116  11.531  0.00  0.00    +0.000 A 
ATOM     26  S   UNL     1      43.042   6.360  11.118  0.00  0.00    +0.000 S 
ATOM     27  C   UNL     1      43.631   4.836  11.593  0.00  0.00    +0.000 A 
ATOM     28  N   UNL     1      42.903   3.705  11.388  0.00  0.00    +0.000 NA
ATOM     29  C   UNL     1      43.484   2.619  11.775  0.00  0.00    +0.000 A 
ATOM     30  N   UNL     1      44.708   2.564  12.391  0.00  0.00    +0.000 N 
ATOM     31  C   UNL     1      45.453   3.685  12.670  0.00  0.00    +0.000 A 
ATOM     32  O   UNL     1      46.490   3.615  13.320  0.00  0.00    +0.000 OA
ATOM     33  C   UNL     1      44.889   4.922  12.165  0.00  0.00    +0.000 A 
ATOM     34  H   UNL     1      45.080   1.688  12.725  0.00  0.00    +0.000 HD
ENDBRANCH  21  24
ENDBRANCH  19  20
ENDBRANCH   4  19
TORSDOF 6
ENDMDL
MODEL 3
REMARK VINA RESULT:    -7.017      2.928      9.144
REMARK INTER + INTRA:         -10.343
REMARK INTER:                  -9.307
REMARK INTRA:                  -1.036
REMARK UNBOUND:                -0.865
REMARK  Name = 
REMARK  6 active torsions:
REMARK  status: ('A' for Active; 'I' for Inactive)
REMARK    1  A    between atoms: C_2  and  C_3
REMARK    2  A    between atoms: N_10  and  C_11
REMARK    3  A    between atoms: C_11  and  C_12
REMARK    4  A    between atoms: C_15  and  C_16
REMARK    5  A    between atoms: C_16  and  N_17
REMARK    6  A    between atoms: C_18  and  C_20
REMARK                            x       y       z     vdW  Elec       q    Type
REMARK                         _______ _______ _______ _____ _____    ______ ____
ROOT
ATOM      1  C   UNL     1      47.693   7.391  13.108  0.00  0.00    +0.000 A 
ATOM      2  C   UNL     1      48.035   8.560  13.798  0.00  0.00    +0.000 A 
ATOM      3  C   UNL     1      48.492   8.500  15.120  0.00  0.00    +0.000 A 
ATOM      4  C   UNL     1      48.640   7.268  15.773  0.00  0.00    +0.000 A 
ATOM      5  C   UNL     1      48.276   6.101  15.089  0.00  0.00    +0.000 A 
ATOM      6  C   UNL     1      47.817   6.160  13.769  0.00  0.00    +0.000 A 
ENDROOT
BRANCH   1   7
ATOM      7  C   UNL     1      47.180   7.456  11.693  0.00  0.00    +0.000 C 
BRANCH   7  15
ATOM      8  C   UNL     1      44.866   4.046  10.086  0.00  0.00    +0.000 A 
ATOM      9  C   UNL     1      44.131   2.882  10.243  0.00  0.00    +0.000 A 
ATOM     10  C   UNL     1      43.461   2.958  11.486  0.00  0.00    +0.000 A 
ATOM     11  C   UNL     1      43.776   4.179  12.033  0.00  0.00    +0.000 A 
ATOM     12  N   UNL     1      44.670   4.837  11.210  0.00  0.00    +0.000 N 
ATOM     13  C   UNL     1      45.176   6.127  11.471  0.00  0.00    +0.000 C 
ATOM     14  O   UNL     1      44.436   6.972  11.951  0.00  0.00    +0.000 OA
ATOM     15  N   UNL     1      46.534   6.233  11.262  0.00  0.00    +0.000 N 
ATOM     16  H   UNL     1      47.103   5.397  11.196  0.00  0.00    +0.000 HD
BRANCH   8  18
ATOM     17  N   UNL     1      46.212   4.775   8.004  0.00  0.00    +0.000 NA
ATOM     18  C   UNL     1      45.605   4.436   8.928  0.00  0.00    +0.000 C 
ENDBRANCH   8  18
ENDBRANCH   7  15
ENDBRANCH   1   7
BRANCH   4  19
ATOM     19  C   UNL     1      49.152   7.199  17.188  0.00  0.00    +0.000 C 
BRANCH  19  20
ATOM     20  N   UNL     1      50.292   6.325  17.300  0.00  0.00    +0.000 N 
ATOM     21  C   UNL     1      50.721   5.876  18.525  0.00  0.00    +0.000 C 
ATOM     22  O   UNL     1      50.264   6.318  19.575  0.00  0.00    +0.000 OA
ATOM     23  H   UNL     1      50.562   5.820  16.462  0.00  0.00    +0.000 HD
BRANCH  21  24
ATOM     24  C   UNL     1      51.756   4.835  18.524  0.00  0.00    +0.000 A 
ATOM     25  C   UNL     1      52.999   5.091  19.082  0.00  0.00    +0.000 A 
ATOM     26  S   UNL     1      54.041   3.740  19.075  0.00  0.00    +0.000 S 
ATOM     27  C   UNL     1      52.837   2.750  18.392  0.00  0.00    +0.000 A 
ATOM     28  N   UNL     1      53.035   1.414  18.229  0.00  0.00    +0.000 NA
ATOM     29  C   UNL     1      52.028   0.784  17.722  0.00  0.00    +0.000 A 
ATOM     30  N   UNL     1      50.858   1.376  17.321  0.00  0.00    +0.000 N 
ATOM     31  C   UNL     1      50.637   2.729  17.413  0.00  0.00    +0.000 A 
ATOM     32  O   UNL     1      49.627   3.243  16.945  0.00  0.00    +0.000 OA
ATOM     33  C   UNL     1      51.699   3.467  18.068  0.00  0.00    +0.000 A 
ATOM     34  H   UNL     1      50.131   0.836  16.875  0.00  0.00    +0.000 HD
ENDBRANCH  21  24
ENDBRANCH  19  20
ENDBRANCH   4  19
TORSDOF 6
ENDMDL
MODEL 4
REMARK VINA RESULT:    -6.883      3.512      5.846
REMARK INTER + INTRA:         -10.162
REMARK INTER:                  -9.360
REMARK INTRA:                  -0.802
REMARK UNBOUND:                -0.865
REMARK  Name = 
REMARK  6 active torsions:
REMARK  status: ('A' for Active; 'I' for Inactive)
REMARK    1  A    between atoms: C_2  and  C_3
REMARK    2  A    between atoms: N_10  and  C_11
REMARK    3  A    between atoms: C_11  and  C_12
REMARK    4  A    between atoms: C_15  and  C_16
REMARK    5  A    between atoms: C_16  and  N_17
REMARK    6  A    between atoms: C_18  and  C_20
REMARK                            x       y       z     vdW  Elec       q    Type
REMARK                         _______ _______ _______ _____ _____    ______ ____
ROOT
ATOM      1  C   UNL     1      46.579   6.668  13.143  0.00  0.00    +0.000 A 
ATOM      2  C   UNL     1      46.677   5.360  13.634  0.00  0.00    +0.000 A 
ATOM      3  C   UNL     1      45.813   4.360  13.173  0.00  0.00    +0.000 A 
ATOM      4  C   UNL     1      44.847   4.639  12.196  0.00  0.00    +0.000 A 
ATOM      5  C   UNL     1      44.735   5.953  11.723  0.00  0.00    +0.000 A 
ATOM      6  C   UNL     1      45.596   6.954  12.184  0.00  0.00    +0.000 A 
ENDROOT
BRANCH   1   7
ATOM      7  C   UNL     1      47.492   7.751  13.655  0.00  0.00    +0.000 C 
BRANCH   7  15
ATOM      8  C   UNL     1      49.045   7.574  17.793  0.00  0.00    +0.000 A 
ATOM      9  C   UNL     1      49.517   6.879  18.896  0.00  0.00    +0.000 A 
ATOM     10  C   UNL     1      50.179   5.721  18.426  0.00  0.00    +0.000 A 
ATOM     11  C   UNL     1      50.125   5.761  17.054  0.00  0.00    +0.000 A 
ATOM     12  N   UNL     1      49.396   6.865  16.652  0.00  0.00    +0.000 N 
ATOM     13  C   UNL     1      49.172   7.211  15.304  0.00  0.00    +0.000 C 
ATOM     14  O   UNL     1      50.070   7.054  14.491  0.00  0.00    +0.000 OA
ATOM     15  N   UNL     1      47.868   7.573  15.042  0.00  0.00    +0.000 N 
ATOM     16  H   UNL     1      47.136   7.342  15.704  0.00  0.00    +0.000 HD
BRANCH   8  18
ATOM     17  N   UNL     1      47.927   9.904  17.808  0.00  0.00    +0.000 NA
ATOM     18  C   UNL     1      48.413   8.854  17.800  0.00  0.00    +0.000 C 
ENDBRANCH   8  18
ENDBRANCH   7  15
ENDBRANCH   1   7
BRANCH   4  19
ATOM     19  C   UNL     1      43.931   3.559  11.682  0.00  0.00    +0.000 C 
BRANCH  19  20
ATOM     20  N   UNL     1      44.604   2.684  10.757  0.00  0.00    +0.000 N 
ATOM     21  C   UNL     1      44.654   2.976   9.416  0.00  0.00    +0.000 C 
ATOM     22  O   UNL     1      44.002   3.894   8.927  0.00  0.00    +0.000 OA
ATOM     23  H   UNL     1      45.281   2.038  11.152  0.00  0.00    +0.000 HD
BRANCH  21  24
ATOM     24  C   UNL     1      45.529   2.138   8.588  0.00  0.00    +0.000 A 
ATOM     25  C   UNL     1      45.468   0.756   8.690  0.00  0.00    +0.000 A 
ATOM     26  S   UNL     1      46.487  -0.055   7.588  0.00  0.00    +0.000 S 
ATOM     27  C   UNL     1      46.988   1.414   6.890  0.00  0.00    +0.000 A 
ATOM     28  N   UNL     1      47.786   1.433   5.789  0.00  0.00    +0.000 NA
ATOM     29  C   UNL     1      48.066   2.616   5.353  0.00  0.00    +0.000 A 
ATOM     30  N   UNL     1      47.657   3.784   5.945  0.00  0.00    +0.000 N 
ATOM     31  C   UNL     1      46.898   3.813   7.090  0.00  0.00    +0.000 A 
ATOM     32  O   UNL     1      46.642   4.869   7.658  0.00  0.00    +0.000 OA
ATOM     33  C   UNL     1      46.475   2.509   7.563  0.00  0.00    +0.000 A 
ATOM     34  H   UNL     1      47.961   4.677   5.589  0.00  0.00    +0.000 HD
ENDBRANCH  21  24
ENDBRANCH  19  20
ENDBRANCH   4  19
TORSDOF 6
ENDMDL
MODEL 5
REMARK VINA RESULT:    -6.458      1.897      2.225
REMARK INTER + INTRA:          -9.588
REMARK INTER:                  -8.123
REMARK INTRA:                  -1.465
REMARK UNBOUND:                -0.865
REMARK  Name = 
REMARK  6 active torsions:
REMARK  status: ('A' for Active; 'I' for Inactive)
REMARK    1  A    between atoms: C_2  and  C_3
REMARK    2  A    between atoms: N_10  and  C_11
REMARK    3  A    between atoms: C_11  and  C_12
REMARK    4  A    between atoms: C_15  and  C_16
REMARK    5  A    between atoms: C_16  and  N_17
REMARK    6  A    between atoms: C_18  and  C_20
REMARK                            x       y       z     vdW  Elec       q    Type
REMARK                         _______ _______ _______ _____ _____    ______ ____
ROOT
ATOM      1  C   UNL     1      51.468   7.287  16.478  0.00  0.00    +0.000 A 
ATOM      2  C   UNL     1      51.590   8.064  15.319  0.00  0.00    +0.000 A 
ATOM      3  C   UNL     1      50.493   8.779  14.821  0.00  0.00    +0.000 A 
ATOM      4  C   UNL     1      49.258   8.750  15.483  0.00  0.00    +0.000 A 
ATOM      5  C   UNL     1      49.131   7.954  16.628  0.00  0.00    +0.000 A 
ATOM      6  C   UNL     1      50.226   7.238  17.126  0.00  0.00    +0.000 A 
ENDROOT
BRANCH   1   7
ATOM      7  C   UNL     1      52.641   6.501  17.001  0.00  0.00    +0.000 C 
BRANCH   7  15
ATOM      8  C   UNL     1      51.672   2.224  17.580  0.00  0.00    +0.000 A 
ATOM      9  C   UNL     1      52.026   0.885  17.640  0.00  0.00    +0.000 A 
ATOM     10  C   UNL     1      53.361   0.811  18.101  0.00  0.00    +0.000 A 
ATOM     11  C   UNL     1      53.770   2.100  18.342  0.00  0.00    +0.000 A 
ATOM     12  N   UNL     1      52.764   2.979  17.987  0.00  0.00    +0.000 N 
ATOM     13  C   UNL     1      52.855   4.378  18.132  0.00  0.00    +0.000 C 
ATOM     14  O   UNL     1      53.407   4.841  19.119  0.00  0.00    +0.000 OA
ATOM     15  N   UNL     1      52.404   5.072  17.031  0.00  0.00    +0.000 N 
ATOM     16  H   UNL     1      52.288   4.595  16.144  0.00  0.00    +0.000 HD
BRANCH   8  18
ATOM     17  N   UNL     1      49.347   3.197  17.011  0.00  0.00    +0.000 NA
ATOM     18  C   UNL     1      50.381   2.750  17.273  0.00  0.00    +0.000 C 
ENDBRANCH   8  18
ENDBRANCH   7  15
ENDBRANCH   1   7
BRANCH   4  19
ATOM     19  C   UNL     1      48.082   9.535  14.962  0.00  0.00    +0.000 C 
BRANCH  19  20
ATOM     20  N   UNL     1      47.060   8.672  14.426  0.00  0.00    +0.000 N 
ATOM     21  C   UNL     1      47.081   8.283  13.109  0.00  0.00    +0.000 C 
ATOM     22  O   UNL     1      47.865   8.772  12.301  0.00  0.00    +0.000 OA
ATOM     23  H   UNL     1      46.526   8.129  15.098  0.00  0.00    +0.000 HD
BRANCH  21  24
ATOM     24  C   UNL     1      46.121   7.248  12.709  0.00  0.00    +0.000 A 
ATOM     25  C   UNL     1      45.055   7.572  11.884  0.00  0.00    +0.000 A 
ATOM     26  S   UNL     1      44.098   6.228  11.447  0.00  0.00    +0.000 S 
ATOM     27  C   UNL     1      45.122   5.160  12.289  0.00  0.00    +0.000 A 
ATOM     28  N   UNL     1      44.939   3.814  12.224  0.00  0.00    +0.000 NA
ATOM     29  C   UNL     1      45.805   3.126  12.891  0.00  0.00    +0.000 A 
ATOM     30  N   UNL     1      46.809   3.663  13.655  0.00  0.00    +0.000 N 
ATOM     31  C   UNL     1      46.995   5.017  13.796  0.00  0.00    +0.000 A 
ATOM     32  O   UNL     1      47.830   5.468  14.572  0.00  0.00    +0.000 OA
ATOM     33  C   UNL     1      46.110   5.832  12.987  0.00  0.00    +0.000 A 
ATOM     34  H   UNL     1      47.415   3.070  14.202  0.00  0.00    +0.000 HD
ENDBRANCH  21  24
ENDBRANCH  19  20
ENDBRANCH   4  19
TORSDOF 6
ENDMDL
MODEL 6
REMARK VINA RESULT:    -6.439      3.076      8.986
REMARK INTER + INTRA:          -9.562
REMARK INTER:                  -8.420
REMARK INTRA:                  -1.142
REMARK UNBOUND:                -0.865
REMARK  Name = 
REMARK  6 active torsions:
REMARK  status: ('A' for Active; 'I' for Inactive)
REMARK    1  A    between atoms: C_2  and  C_3
REMARK    2  A    between atoms: N_10  and  C_11
REMARK    3  A    between atoms: C_11  and  C_12
REMARK    4  A    between atoms: C_15  and  C_16
REMARK    5  A    between atoms: C_16  and  N_17
REMARK    6  A    between atoms: C_18  and  C_20
REMARK                            x       y       z     vdW  Elec       q    Type
REMARK                         _______ _______ _______ _____ _____    ______ ____
ROOT
ATOM      1  C   UNL     1      48.230   8.140  14.659  0.00  0.00    +0.000 A 
ATOM      2  C   UNL     1      48.254   9.120  15.659  0.00  0.00    +0.000 A 
ATOM      3  C   UNL     1      49.189   9.055  16.699  0.00  0.00    +0.000 A 
ATOM      4  C   UNL     1      50.134   8.021  16.750  0.00  0.00    +0.000 A 
ATOM      5  C   UNL     1      50.095   7.028  15.763  0.00  0.00    +0.000 A 
ATOM      6  C   UNL     1      49.160   7.092  14.724  0.00  0.00    +0.000 A 
ENDROOT
BRANCH   1   7
ATOM      7  C   UNL     1      47.211   8.197  13.552  0.00  0.00    +0.000 C 
BRANCH   7  15
ATOM      8  C   UNL     1      45.031   4.410  12.868  0.00  0.00    +0.000 A 
ATOM      9  C   UNL     1      43.868   3.688  12.644  0.00  0.00    +0.000 A 
ATOM     10  C   UNL     1      42.974   4.520  11.931  0.00  0.00    +0.000 A 
ATOM     11  C   UNL     1      43.628   5.707  11.707  0.00  0.00    +0.000 A 
ATOM     12  N   UNL     1      44.870   5.672  12.312  0.00  0.00    +0.000 N 
ATOM     13  C   UNL     1      45.804   6.727  12.252  0.00  0.00    +0.000 C 
ATOM     14  O   UNL     1      45.925   7.358  11.212  0.00  0.00    +0.000 OA
ATOM     15  N   UNL     1      46.392   7.006  13.467  0.00  0.00    +0.000 N 
ATOM     16  H   UNL     1      45.975   6.658  14.323  0.00  0.00    +0.000 HD
BRANCH   8  18
ATOM     17  N   UNL     1      47.198   3.505  13.944  0.00  0.00    +0.000 NA
ATOM     18  C   UNL     1      46.237   3.920  13.455  0.00  0.00    +0.000 C 
ENDBRANCH   8  18
ENDBRANCH   7  15
ENDBRANCH   1   7
BRANCH   4  19
ATOM     19  C   UNL     1      51.155   7.960  17.857  0.00  0.00    +0.000 C 
BRANCH  19  20
ATOM     20  N   UNL     1      51.919   6.740  17.811  0.00  0.00    +0.000 N 
ATOM     21  C   UNL     1      52.233   6.058  18.961  0.00  0.00    +0.000 C 
ATOM     22  O   UNL     1      52.021   6.531  20.074  0.00  0.00    +0.000 OA
ATOM     23  H   UNL     1      51.946   6.253  16.920  0.00  0.00    +0.000 HD
BRANCH  21  24
ATOM     24  C   UNL     1      52.834   4.729  18.800  0.00  0.00    +0.000 A 
ATOM     25  C   UNL     1      54.112   4.481  19.278  0.00  0.00    +0.000 A 
ATOM     26  S   UNL     1      54.609   2.860  19.087  0.00  0.00    +0.000 S 
ATOM     27  C   UNL     1      53.104   2.421  18.426  0.00  0.00    +0.000 A 
ATOM     28  N   UNL     1      52.810   1.123  18.148  0.00  0.00    +0.000 NA
ATOM     29  C   UNL     1      51.623   0.934  17.674  0.00  0.00    +0.000 A 
ATOM     30  N   UNL     1      50.719   1.931  17.412  0.00  0.00    +0.000 N 
ATOM     31  C   UNL     1      50.994   3.261  17.623  0.00  0.00    +0.000 A 
ATOM     32  O   UNL     1      50.209   4.137  17.275  0.00  0.00    +0.000 OA
ATOM     33  C   UNL     1      52.277   3.517  18.247  0.00  0.00    +0.000 A 
ATOM     34  H   UNL     1      49.830   1.722  16.984  0.00  0.00    +0.000 HD
ENDBRANCH  21  24
ENDBRANCH  19  20
ENDBRANCH   4  19
TORSDOF 6
ENDMDL
MODEL 7
REMARK VINA RESULT:    -6.204      5.598      9.396
REMARK INTER + INTRA:          -9.245
REMARK INTER:                  -8.251
REMARK INTRA:                  -0.994
REMARK UNBOUND:                -0.865
REMARK  Name = 
REMARK  6 active torsions:
REMARK  status: ('A' for Active; 'I' for Inactive)
REMARK    1  A    between atoms: C_2  and  C_3
REMARK    2  A    between atoms: N_10  and  C_11
REMARK    3  A    between atoms: C_11  and  C_12
REMARK    4  A    between atoms: C_15  and  C_16
REMARK    5  A    between atoms: C_16  and  N_17
REMARK    6  A    between atoms: C_18  and  C_20
REMARK                            x       y       z     vdW  Elec       q    Type
REMARK                         _______ _______ _______ _____ _____    ______ ____
ROOT
ATOM      1  C   UNL     1      47.462   7.984  12.132  0.00  0.00    +0.000 A 
ATOM      2  C   UNL     1      47.787   9.322  11.876  0.00  0.00    +0.000 A 
ATOM      3  C   UNL     1      49.119   9.707  11.683  0.00  0.00    +0.000 A 
ATOM      4  C   UNL     1      50.153   8.760  11.718  0.00  0.00    +0.000 A 
ATOM      5  C   UNL     1      49.828   7.426  11.997  0.00  0.00    +0.000 A 
ATOM      6  C   UNL     1      48.498   7.040  12.193  0.00  0.00    +0.000 A 
ENDROOT
BRANCH   1   7
ATOM      7  C   UNL     1      46.032   7.572  12.363  0.00  0.00    +0.000 C 
BRANCH   7  15
ATOM      8  C   UNL     1      44.667   3.921  10.273  0.00  0.00    +0.000 A 
ATOM      9  C   UNL     1      44.176   2.624  10.265  0.00  0.00    +0.000 A 
ATOM     10  C   UNL     1      43.373   2.459  11.418  0.00  0.00    +0.000 A 
ATOM     11  C   UNL     1      43.366   3.666  12.074  0.00  0.00    +0.000 A 
ATOM     12  N   UNL     1      44.189   4.558  11.410  0.00  0.00    +0.000 N 
ATOM     13  C   UNL     1      44.384   5.896  11.811  0.00  0.00    +0.000 C 
ATOM     14  O   UNL     1      43.437   6.532  12.247  0.00  0.00    +0.000 OA
ATOM     15  N   UNL     1      45.705   6.287  11.781  0.00  0.00    +0.000 N 
ATOM     16  H   UNL     1      46.439   5.589  11.735  0.00  0.00    +0.000 HD
BRANCH   8  18
ATOM     17  N   UNL     1      46.026   5.057   8.392  0.00  0.00    +0.000 NA
ATOM     18  C   UNL     1      45.430   4.548   9.242  0.00  0.00    +0.000 C 
ENDBRANCH   8  18
ENDBRANCH   7  15
ENDBRANCH   1   7
BRANCH   4  19
ATOM     19  C   UNL     1      51.585   9.168  11.488  0.00  0.00    +0.000 C 
BRANCH  19  20
ATOM     20  N   UNL     1      52.105   8.622  10.260  0.00  0.00    +0.000 N 
ATOM     21  C   UNL     1      53.153   7.735  10.268  0.00  0.00    +0.000 C 
ATOM     22  O   UNL     1      53.791   7.493  11.289  0.00  0.00    +0.000 OA
ATOM     23  H   UNL     1      51.495   8.666   9.449  0.00  0.00    +0.000 HD
BRANCH  21  24
ATOM     24  C   UNL     1      53.477   7.082   8.995  0.00  0.00    +0.000 A 
ATOM     25  C   UNL     1      53.580   5.700   8.929  0.00  0.00    +0.000 A 
ATOM     26  S   UNL     1      53.870   5.113   7.354  0.00  0.00    +0.000 S 
ATOM     27  C   UNL     1      53.794   6.681   6.698  0.00  0.00    +0.000 A 
ATOM     28  N   UNL     1      53.844   6.884   5.354  0.00  0.00    +0.000 NA
ATOM     29  C   UNL     1      53.750   8.122   4.998  0.00  0.00    +0.000 A 
ATOM     30  N   UNL     1      53.658   9.180   5.866  0.00  0.00    +0.000 N 
ATOM     31  C   UNL     1      53.663   9.026   7.231  0.00  0.00    +0.000 A 
ATOM     32  O   UNL     1      53.692   9.995   7.982  0.00  0.00    +0.000 OA
ATOM     33  C   UNL     1      53.666   7.647   7.680  0.00  0.00    +0.000 A 
ATOM     34  H   UNL     1      53.650  10.129   5.525  0.00  0.00    +0.000 HD
ENDBRANCH  21  24
ENDBRANCH  19  20
ENDBRANCH   4  19
TORSDOF 6
ENDMDL
MODEL 8
REMARK VINA RESULT:    -6.058      5.274      8.758
REMARK INTER + INTRA:          -9.048
REMARK INTER:                  -8.166
REMARK INTRA:                  -0.882
REMARK UNBOUND:                -0.865
REMARK  Name = 
REMARK  6 active torsions:
REMARK  status: ('A' for Active; 'I' for Inactive)
REMARK    1  A    between atoms: C_2  and  C_3
REMARK    2  A    between atoms: N_10  and  C_11
REMARK    3  A    between atoms: C_11  and  C_12
REMARK    4  A    between atoms: C_15  and  C_16
REMARK    5  A    between atoms: C_16  and  N_17
REMARK    6  A    between atoms: C_18  and  C_20
REMARK                            x       y       z     vdW  Elec       q    Type
REMARK                         _______ _______ _______ _____ _____    ______ ____
ROOT
ATOM      1  C   UNL     1      47.515   8.968  12.837  0.00  0.00    +0.000 A 
ATOM      2  C   UNL     1      47.925  10.082  12.093  0.00  0.00    +0.000 A 
ATOM      3  C   UNL     1      49.267  10.240  11.726  0.00  0.00    +0.000 A 
ATOM      4  C   UNL     1      50.224   9.276  12.074  0.00  0.00    +0.000 A 
ATOM      5  C   UNL     1      49.817   8.175  12.838  0.00  0.00    +0.000 A 
ATOM      6  C   UNL     1      48.477   8.017  13.207  0.00  0.00    +0.000 A 
ENDROOT
BRANCH   1   7
ATOM      7  C   UNL     1      46.076   8.809  13.252  0.00  0.00    +0.000 C 
BRANCH   7  15
ATOM      8  C   UNL     1      45.041   4.535  12.776  0.00  0.00    +0.000 A 
ATOM      9  C   UNL     1      44.125   3.506  12.617  0.00  0.00    +0.000 A 
ATOM     10  C   UNL     1      43.018   4.021  11.902  0.00  0.00    +0.000 A 
ATOM     11  C   UNL     1      43.305   5.333  11.615  0.00  0.00    +0.000 A 
ATOM     12  N   UNL     1      44.519   5.676  12.181  0.00  0.00    +0.000 N 
ATOM     13  C   UNL     1      45.116   6.947  12.052  0.00  0.00    +0.000 C 
ATOM     14  O   UNL     1      45.032   7.540  10.987  0.00  0.00    +0.000 OA
ATOM     15  N   UNL     1      45.625   7.433  13.236  0.00  0.00    +0.000 N 
ATOM     16  H   UNL     1      45.341   7.020  14.117  0.00  0.00    +0.000 HD
BRANCH   8  18
ATOM     17  N   UNL     1      47.416   4.341  13.775  0.00  0.00    +0.000 NA
ATOM     18  C   UNL     1      46.348   4.431  13.342  0.00  0.00    +0.000 C 
ENDBRANCH   8  18
ENDBRANCH   7  15
ENDBRANCH   1   7
BRANCH   4  19
ATOM     19  C   UNL     1      51.665   9.432  11.662  0.00  0.00    +0.000 C 
BRANCH  19  20
ATOM     20  N   UNL     1      51.867   9.070  10.282  0.00  0.00    +0.000 N 
ATOM     21  C   UNL     1      53.110   8.717   9.819  0.00  0.00    +0.000 C 
ATOM     22  O   UNL     1      54.120   8.847  10.505  0.00  0.00    +0.000 OA
ATOM     23  H   UNL     1      51.042   8.790   9.760  0.00  0.00    +0.000 HD
BRANCH  21  24
ATOM     24  C   UNL     1      53.180   8.172   8.458  0.00  0.00    +0.000 A 
ATOM     25  C   UNL     1      53.051   9.014   7.364  0.00  0.00    +0.000 A 
ATOM     26  S   UNL     1      53.251   8.222   5.866  0.00  0.00    +0.000 S 
ATOM     27  C   UNL     1      53.588   6.742   6.635  0.00  0.00    +0.000 A 
ATOM     28  N   UNL     1      53.972   5.650   5.920  0.00  0.00    +0.000 NA
ATOM     29  C   UNL     1      54.219   4.604   6.636  0.00  0.00    +0.000 A 
ATOM     30  N   UNL     1      54.072   4.537   7.997  0.00  0.00    +0.000 N 
ATOM     31  C   UNL     1      53.632   5.596   8.753  0.00  0.00    +0.000 A 
ATOM     32  O   UNL     1      53.404   5.474   9.952  0.00  0.00    +0.000 OA
ATOM     33  C   UNL     1      53.436   6.825   8.008  0.00  0.00    +0.000 A 
ATOM     34  H   UNL     1      54.223   3.670   8.491  0.00  0.00    +0.000 HD
ENDBRANCH  21  24
ENDBRANCH  19  20
ENDBRANCH   4  19
TORSDOF 6
ENDMDL
MODEL 9
REMARK VINA RESULT:    -5.796      3.465     10.006
REMARK INTER + INTRA:          -8.694
REMARK INTER:                  -7.759
REMARK INTRA:                  -0.936
REMARK UNBOUND:                -0.865
REMARK  Name = 
REMARK  6 active torsions:
REMARK  status: ('A' for Active; 'I' for Inactive)
REMARK    1  A    between atoms: C_2  and  C_3
REMARK    2  A    between atoms: N_10  and  C_11
REMARK    3  A    between atoms: C_11  and  C_12
REMARK    4  A    between atoms: C_15  and  C_16
REMARK    5  A    between atoms: C_16  and  N_17
REMARK    6  A    between atoms: C_18  and  C_20
REMARK                            x       y       z     vdW  Elec       q    Type
REMARK                         _______ _______ _______ _____ _____    ______ ____
ROOT
ATOM      1  C   UNL     1      47.074   5.555  13.291  0.00  0.00    +0.000 A 
ATOM      2  C   UNL     1      46.687   4.350  13.890  0.00  0.00    +0.000 A 
ATOM      3  C   UNL     1      47.113   4.028  15.184  0.00  0.00    +0.000 A 
ATOM      4  C   UNL     1      47.916   4.914  15.917  0.00  0.00    +0.000 A 
ATOM      5  C   UNL     1      48.322   6.108  15.308  0.00  0.00    +0.000 A 
ATOM      6  C   UNL     1      47.898   6.430  14.014  0.00  0.00    +0.000 A 
ENDROOT
BRANCH   1   7
ATOM      7  C   UNL     1      46.635   5.892  11.890  0.00  0.00    +0.000 C 
BRANCH   7  15
ATOM      8  C   UNL     1      45.974  10.264  11.756  0.00  0.00    +0.000 A 
ATOM      9  C   UNL     1      45.384  11.398  11.221  0.00  0.00    +0.000 A 
ATOM     10  C   UNL     1      44.115  11.028  10.717  0.00  0.00    +0.000 A 
ATOM     11  C   UNL     1      43.952   9.692  10.993  0.00  0.00    +0.000 A 
ATOM     12  N   UNL     1      45.098   9.200  11.588  0.00  0.00    +0.000 N 
ATOM     13  C   UNL     1      45.250   7.866  12.019  0.00  0.00    +0.000 C 
ATOM     14  O   UNL     1      44.300   7.294  12.533  0.00  0.00    +0.000 OA
ATOM     15  N   UNL     1      46.463   7.314  11.671  0.00  0.00    +0.000 N 
ATOM     16  H   UNL     1      47.034   7.754  10.958  0.00  0.00    +0.000 HD
BRANCH   8  18
ATOM     17  N   UNL     1      48.197  10.155  13.069  0.00  0.00    +0.000 NA
ATOM     18  C   UNL     1      47.210  10.203  12.469  0.00  0.00    +0.000 C 
ENDBRANCH   8  18
ENDBRANCH   7  15
ENDBRANCH   1   7
BRANCH   4  19
ATOM     19  C   UNL     1      48.357   4.580  17.318  0.00  0.00    +0.000 C 
BRANCH  19  20
ATOM     20  N   UNL     1      49.761   4.260  17.373  0.00  0.00    +0.000 N 
ATOM     21  C   UNL     1      50.466   4.371  18.546  0.00  0.00    +0.000 C 
ATOM     22  O   UNL     1      49.983   4.893  19.547  0.00  0.00    +0.000 OA
ATOM     23  H   UNL     1      50.123   3.674  16.627  0.00  0.00    +0.000 HD
BRANCH  21  24
ATOM     24  C   UNL     1      51.832   3.832  18.551  0.00  0.00    +0.000 A 
ATOM     25  C   UNL     1      52.865   4.564  19.117  0.00  0.00    +0.000 A 
ATOM     26  S   UNL     1      54.361   3.744  19.117  0.00  0.00    +0.000 S 
ATOM     27  C   UNL     1      53.659   2.356  18.427  0.00  0.00    +0.000 A 
ATOM     28  N   UNL     1      54.376   1.211  18.266  0.00  0.00    +0.000 NA
ATOM     29  C   UNL     1      53.709   0.232  17.753  0.00  0.00    +0.000 A 
ATOM     30  N   UNL     1      52.402   0.305  17.344  0.00  0.00    +0.000 N 
ATOM     31  C   UNL     1      51.657   1.456  17.435  0.00  0.00    +0.000 A 
ATOM     32  O   UNL     1      50.529   1.524  16.960  0.00  0.00    +0.000 OA
ATOM     33  C   UNL     1      52.330   2.557  18.095  0.00  0.00    +0.000 A 
ATOM     34  H   UNL     1      51.956  -0.480  16.894  0.00  0.00    +0.000 HD
ENDBRANCH  21  24
ENDBRANCH  19  20
ENDBRANCH   4  19
TORSDOF 6
ENDMDL
