MODEL 1
REMARK VINA RESULT:    -8.346      0.000      0.000
REMARK INTER + INTRA:         -11.391
REMARK INTER:                 -10.785
REMARK INTRA:                  -0.606
REMARK UNBOUND:                -0.606
REMARK  Name = 
REMARK  5 active torsions:
REMARK  status: ('A' for Active; 'I' for Inactive)
REMARK    1  A    between atoms: C_2  and  C_18
REMARK    2  A    between atoms: N_3  and  C_4
REMARK    3  A    between atoms: C_4  and  C_5
REMARK    4  A    between atoms: C_8  and  C_9
REMARK    5  A    between atoms: C_9  and  C_10
REMARK                            x       y       z     vdW  Elec       q    Type
REMARK                         _______ _______ _______ _____ _____    ______ ____
ROOT
ATOM      1  O   UNL     1      47.058   3.281  14.032  0.00  0.00    +0.000 OA
ATOM      2  C   UNL     1      46.871   4.458  14.289  0.00  0.00    +0.000 C 
ATOM      3  N   UNL     1      45.728   5.159  13.954  0.00  0.00    +0.000 N 
ATOM      4  H   UNL     1      45.555   6.028  14.438  0.00  0.00    +0.000 HD
ENDROOT
BRANCH   2   5
ATOM      5  C   UNL     1      47.709   5.223  15.203  0.00  0.00    +0.000 A 
ATOM      6  C   UNL     1      48.297   6.426  14.846  0.00  0.00    +0.000 A 
ATOM      7  S   UNL     1      49.685   6.741  15.808  0.00  0.00    +0.000 S 
ATOM      8  C   UNL     1      49.379   5.383  16.795  0.00  0.00    +0.000 A 
ATOM      9  N   UNL     1      50.255   4.945  17.738  0.00  0.00    +0.000 NA
ATOM     10  C   UNL     1      49.828   3.939  18.431  0.00  0.00    +0.000 A 
ATOM     11  N   UNL     1      48.585   3.367  18.307  0.00  0.00    +0.000 N 
ATOM     12  C   UNL     1      47.666   3.778  17.373  0.00  0.00    +0.000 A 
ATOM     13  O   UNL     1      46.537   3.304  17.314  0.00  0.00    +0.000 OA
ATOM     14  C   UNL     1      48.165   4.811  16.491  0.00  0.00    +0.000 A 
ATOM     15  H   UNL     1      48.279   2.642  18.942  0.00  0.00    +0.000 HD
ENDBRANCH   2   5
BRANCH   3  16
ATOM     16  C   UNL     1      44.531   4.499  13.495  0.00  0.00    +0.000 C 
BRANCH  16  17
ATOM     17  C   UNL     1      44.595   4.286  12.001  0.00  0.00    +0.000 A 
ATOM     18  C   UNL     1      43.874   3.255  11.412  0.00  0.00    +0.000 A 
ATOM     19  N   UNL     1      43.849   3.046  10.074  0.00  0.00    +0.000 NA
ATOM     20  C   UNL     1      44.569   3.917   9.321  0.00  0.00    +0.000 A 
ATOM     21  C   UNL     1      45.276   4.961   9.908  0.00  0.00    +0.000 A 
ATOM     22  N   UNL     1      45.292   5.180  11.247  0.00  0.00    +0.000 NA
BRANCH  20  23
ATOM     23  C   UNL     1      44.617   3.670   7.835  0.00  0.00    +0.000 C 
BRANCH  23  24
ATOM     24  C   UNL     1      45.830   2.906   7.399  0.00  0.00    +0.000 A 
ATOM     25  C   UNL     1      46.188   1.696   7.967  0.00  0.00    +0.000 A 
ATOM     26  N   UNL     1      47.283   0.996   7.610  0.00  0.00    +0.000 NA
ATOM     27  C   UNL     1      48.033   1.540   6.642  0.00  0.00    +0.000 A 
ATOM     28  N   UNL     1      47.780   2.694   6.003  0.00  0.00    +0.000 NA
ATOM     29  C   UNL     1      46.673   3.350   6.399  0.00  0.00    +0.000 A 
ENDBRANCH  23  24
ENDBRANCH  20  23
ENDBRANCH  16  17
ENDBRANCH   3  16
TORSDOF 5
ENDMDL
MODEL 2
REMARK VINA RESULT:    -7.751      1.657      2.817
REMARK INTER + INTRA:         -10.623
REMARK INTER:                  -9.825
REMARK INTRA:                  -0.798
REMARK UNBOUND:                -0.606
REMARK  Name = 
REMARK  5 active torsions:
REMARK  status: ('A' for Active; 'I' for Inactive)
REMARK    1  A    between atoms: C_2  and  C_18
REMARK    2  A    between atoms: N_3  and  C_4
REMARK    3  A    between atoms: C_4  and  C_5
REMARK    4  A    between atoms: C_8  and  C_9
REMARK    5  A    between atoms: C_9  and  C_10
REMARK                            x       y       z     vdW  Elec       q    Type
REMARK                         _______ _______ _______ _____ _____    ______ ____
ROOT
ATOM      1  O   UNL     1      47.125   3.347  14.190  0.00  0.00    +0.000 OA
ATOM      2  C   UNL     1      47.048   4.552  14.357  0.00  0.00    +0.000 C 
ATOM      3  N   UNL     1      45.967   5.326  13.976  0.00  0.00    +0.000 N 
ATOM      4  H   UNL     1      45.879   6.242  14.392  0.00  0.00    +0.000 HD
ENDROOT
BRANCH   2   5
ATOM      5  C   UNL     1      47.962   5.307  15.205  0.00  0.00    +0.000 A 
ATOM      6  C   UNL     1      48.230   4.949  16.516  0.00  0.00    +0.000 A 
ATOM      7  S   UNL     1      48.766   6.303  17.426  0.00  0.00    +0.000 S 
ATOM      8  C   UNL     1      48.811   7.291  16.035  0.00  0.00    +0.000 A 
ATOM      9  N   UNL     1      49.034   8.631  16.090  0.00  0.00    +0.000 NA
ATOM     10  C   UNL     1      49.094   9.206  14.933  0.00  0.00    +0.000 A 
ATOM     11  N   UNL     1      49.008   8.556  13.724  0.00  0.00    +0.000 N 
ATOM     12  C   UNL     1      48.787   7.205  13.619  0.00  0.00    +0.000 A 
ATOM     13  O   UNL     1      48.777   6.627  12.539  0.00  0.00    +0.000 OA
ATOM     14  C   UNL     1      48.579   6.556  14.895  0.00  0.00    +0.000 A 
ATOM     15  H   UNL     1      49.153   9.052  12.855  0.00  0.00    +0.000 HD
ENDBRANCH   2   5
BRANCH   3  16
ATOM     16  C   UNL     1      44.711   4.744  13.576  0.00  0.00    +0.000 C 
BRANCH  16  17
ATOM     17  C   UNL     1      44.717   4.462  12.091  0.00  0.00    +0.000 A 
ATOM     18  C   UNL     1      43.934   3.439  11.572  0.00  0.00    +0.000 A 
ATOM     19  N   UNL     1      43.856   3.172  10.247  0.00  0.00    +0.000 NA
ATOM     20  C   UNL     1      44.588   3.975   9.433  0.00  0.00    +0.000 A 
ATOM     21  C   UNL     1      45.358   5.012   9.950  0.00  0.00    +0.000 A 
ATOM     22  N   UNL     1      45.427   5.289  11.276  0.00  0.00    +0.000 NA
BRANCH  20  23
ATOM     23  C   UNL     1      44.577   3.661   7.959  0.00  0.00    +0.000 C 
BRANCH  23  24
ATOM     24  C   UNL     1      45.798   2.921   7.501  0.00  0.00    +0.000 A 
ATOM     25  C   UNL     1      46.657   3.431   6.544  0.00  0.00    +0.000 A 
ATOM     26  N   UNL     1      47.751   2.781   6.097  0.00  0.00    +0.000 NA
ATOM     27  C   UNL     1      47.979   1.580   6.645  0.00  0.00    +0.000 A 
ATOM     28  N   UNL     1      47.232   0.989   7.592  0.00  0.00    +0.000 NA
ATOM     29  C   UNL     1      46.153   1.685   8.002  0.00  0.00    +0.000 A 
ENDBRANCH  23  24
ENDBRANCH  20  23
ENDBRANCH  16  17
ENDBRANCH   3  16
TORSDOF 5
ENDMDL
MODEL 3
REMARK VINA RESULT:    -7.622      2.929      8.598
REMARK INTER + INTRA:         -10.456
REMARK INTER:                  -9.689
REMARK INTRA:                  -0.767
REMARK UNBOUND:                -0.606
REMARK  Name = 
REMARK  5 active torsions:
REMARK  status: ('A' for Active; 'I' for Inactive)
REMARK    1  A    between atoms: C_2  and  C_18
REMARK    2  A    between atoms: N_3  and  C_4
REMARK    3  A    between atoms: C_4  and  C_5
REMARK    4  A    between atoms: C_8  and  C_9
REMARK    5  A    between atoms: C_9  and  C_10
REMARK                            x       y       z     vdW  Elec       q    Type
REMARK                         _______ _______ _______ _____ _____    ______ ____
ROOT
ATOM      1  O   UNL     1      45.182   7.378  11.373  0.00  0.00    +0.000 OA
ATOM      2  C   UNL     1      45.547   6.218  11.454  0.00  0.00    +0.000 C 
ATOM      3  N   UNL     1      46.694   5.804  12.105  0.00  0.00    +0.000 N 
ATOM      4  H   UNL     1      46.766   4.826  12.349  0.00  0.00    +0.000 HD
ENDROOT
BRANCH   2   5
ATOM      5  C   UNL     1      44.703   5.083  11.102  0.00  0.00    +0.000 A 
ATOM      6  C   UNL     1      43.664   4.648  11.909  0.00  0.00    +0.000 A 
ATOM      7  S   UNL     1      43.306   2.995  11.611  0.00  0.00    +0.000 S 
ATOM      8  C   UNL     1      44.397   2.935  10.301  0.00  0.00    +0.000 A 
ATOM      9  N   UNL     1      44.723   1.778   9.666  0.00  0.00    +0.000 NA
ATOM     10  C   UNL     1      45.518   1.934   8.657  0.00  0.00    +0.000 A 
ATOM     11  N   UNL     1      45.973   3.144   8.191  0.00  0.00    +0.000 N 
ATOM     12  C   UNL     1      45.668   4.338   8.797  0.00  0.00    +0.000 A 
ATOM     13  O   UNL     1      46.025   5.416   8.335  0.00  0.00    +0.000 OA
ATOM     14  C   UNL     1      44.891   4.185  10.008  0.00  0.00    +0.000 A 
ATOM     15  H   UNL     1      46.520   3.204   7.343  0.00  0.00    +0.000 HD
ENDBRANCH   2   5
BRANCH   3  16
ATOM     16  C   UNL     1      47.439   6.678  12.976  0.00  0.00    +0.000 C 
BRANCH  16  17
ATOM     17  C   UNL     1      47.801   5.956  14.253  0.00  0.00    +0.000 A 
ATOM     18  C   UNL     1      48.695   6.528  15.149  0.00  0.00    +0.000 A 
ATOM     19  N   UNL     1      49.018   5.956  16.333  0.00  0.00    +0.000 NA
ATOM     20  C   UNL     1      48.407   4.776  16.611  0.00  0.00    +0.000 A 
ATOM     21  C   UNL     1      47.497   4.211  15.723  0.00  0.00    +0.000 A 
ATOM     22  N   UNL     1      47.162   4.789  14.543  0.00  0.00    +0.000 NA
BRANCH  20  23
ATOM     23  C   UNL     1      48.797   4.079  17.889  0.00  0.00    +0.000 C 
BRANCH  23  24
ATOM     24  C   UNL     1      50.072   3.300  17.775  0.00  0.00    +0.000 A 
ATOM     25  C   UNL     1      50.112   2.014  17.266  0.00  0.00    +0.000 A 
ATOM     26  N   UNL     1      51.240   1.281  17.170  0.00  0.00    +0.000 NA
ATOM     27  C   UNL     1      52.360   1.878  17.599  0.00  0.00    +0.000 A 
ATOM     28  N   UNL     1      52.452   3.123  18.093  0.00  0.00    +0.000 NA
ATOM     29  C   UNL     1      51.295   3.809  18.165  0.00  0.00    +0.000 A 
ENDBRANCH  23  24
ENDBRANCH  20  23
ENDBRANCH  16  17
ENDBRANCH   3  16
TORSDOF 5
ENDMDL
MODEL 4
REMARK VINA RESULT:    -7.342      1.653      2.183
REMARK INTER + INTRA:         -10.093
REMARK INTER:                  -9.580
REMARK INTRA:                  -0.513
REMARK UNBOUND:                -0.606
REMARK  Name = 
REMARK  5 active torsions:
REMARK  status: ('A' for Active; 'I' for Inactive)
REMARK    1  A    between atoms: C_2  and  C_18
REMARK    2  A    between atoms: N_3  and  C_4
REMARK    3  A    between atoms: C_4  and  C_5
REMARK    4  A    between atoms: C_8  and  C_9
REMARK    5  A    between atoms: C_9  and  C_10
REMARK                            x       y       z     vdW  Elec       q    Type
REMARK                         _______ _______ _______ _____ _____    ______ ____
ROOT
ATOM      1  O   UNL     1      47.862   4.978  13.617  0.00  0.00    +0.000 OA
ATOM      2  C   UNL     1      47.784   6.194  13.617  0.00  0.00    +0.000 C 
ATOM      3  N   UNL     1      46.634   6.903  13.324  0.00  0.00    +0.000 N 
ATOM      4  H   UNL     1      46.597   7.870  13.611  0.00  0.00    +0.000 HD
ENDROOT
BRANCH   2   5
ATOM      5  C   UNL     1      48.814   7.065  14.170  0.00  0.00    +0.000 A 
ATOM      6  C   UNL     1      49.323   8.151  13.477  0.00  0.00    +0.000 A 
ATOM      7  S   UNL     1      50.893   8.559  14.042  0.00  0.00    +0.000 S 
ATOM      8  C   UNL     1      50.796   7.419  15.307  0.00  0.00    +0.000 A 
ATOM      9  N   UNL     1      51.854   7.110  16.104  0.00  0.00    +0.000 NA
ATOM     10  C   UNL     1      51.579   6.270  17.048  0.00  0.00    +0.000 A 
ATOM     11  N   UNL     1      50.331   5.751  17.303  0.00  0.00    +0.000 N 
ATOM     12  C   UNL     1      49.234   6.036  16.529  0.00  0.00    +0.000 A 
ATOM     13  O   UNL     1      48.114   5.620  16.804  0.00  0.00    +0.000 OA
ATOM     14  C   UNL     1      49.538   6.866  15.384  0.00  0.00    +0.000 A 
ATOM     15  H   UNL     1      50.165   5.169  18.113  0.00  0.00    +0.000 HD
ENDBRANCH   2   5
BRANCH   3  16
ATOM     16  C   UNL     1      45.343   6.268  13.242  0.00  0.00    +0.000 C 
BRANCH  16  17
ATOM     17  C   UNL     1      45.171   5.611  11.893  0.00  0.00    +0.000 A 
ATOM     18  C   UNL     1      44.236   4.597  11.725  0.00  0.00    +0.000 A 
ATOM     19  N   UNL     1      43.999   4.006  10.530  0.00  0.00    +0.000 NA
ATOM     20  C   UNL     1      44.726   4.468   9.481  0.00  0.00    +0.000 A 
ATOM     21  C   UNL     1      45.648   5.496   9.644  0.00  0.00    +0.000 A 
ATOM     22  N   UNL     1      45.878   6.099  10.838  0.00  0.00    +0.000 NA
BRANCH  20  23
ATOM     23  C   UNL     1      44.535   3.785   8.152  0.00  0.00    +0.000 C 
BRANCH  23  24
ATOM     24  C   UNL     1      45.689   2.912   7.761  0.00  0.00    +0.000 A 
ATOM     25  C   UNL     1      46.701   3.350   6.926  0.00  0.00    +0.000 A 
ATOM     26  N   UNL     1      47.740   2.583   6.541  0.00  0.00    +0.000 NA
ATOM     27  C   UNL     1      47.753   1.334   7.026  0.00  0.00    +0.000 A 
ATOM     28  N   UNL     1      46.843   0.801   7.857  0.00  0.00    +0.000 NA
ATOM     29  C   UNL     1      45.828   1.613   8.209  0.00  0.00    +0.000 A 
ENDBRANCH  23  24
ENDBRANCH  20  23
ENDBRANCH  16  17
ENDBRANCH   3  16
TORSDOF 5
ENDMDL
MODEL 5
REMARK VINA RESULT:    -7.166      3.016      9.256
REMARK INTER + INTRA:          -9.866
REMARK INTER:                  -9.198
REMARK INTRA:                  -0.668
REMARK UNBOUND:                -0.606
REMARK  Name = 
REMARK  5 active torsions:
REMARK  status: ('A' for Active; 'I' for Inactive)
REMARK    1  A    between atoms: C_2  and  C_18
REMARK    2  A    between atoms: N_3  and  C_4
REMARK    3  A    between atoms: C_4  and  C_5
REMARK    4  A    between atoms: C_8  and  C_9
REMARK    5  A    between atoms: C_9  and  C_10
REMARK                            x       y       z     vdW  Elec       q    Type
REMARK                         _______ _______ _______ _____ _____    ______ ____
ROOT
ATOM      1  O   UNL     1      45.347   7.434  11.446  0.00  0.00    +0.000 OA
ATOM      2  C   UNL     1      45.659   6.256  11.447  0.00  0.00    +0.000 C 
ATOM      3  N   UNL     1      46.815   5.755  12.015  0.00  0.00    +0.000 N 
ATOM      4  H   UNL     1      46.851   4.763  12.202  0.00  0.00    +0.000 HD
ENDROOT
BRANCH   2   5
ATOM      5  C   UNL     1      44.745   5.182  11.079  0.00  0.00    +0.000 A 
ATOM      6  C   UNL     1      43.657   4.829  11.861  0.00  0.00    +0.000 A 
ATOM      7  S   UNL     1      43.188   3.204  11.563  0.00  0.00    +0.000 S 
ATOM      8  C   UNL     1      44.306   3.056  10.282  0.00  0.00    +0.000 A 
ATOM      9  N   UNL     1      44.565   1.874   9.662  0.00  0.00    +0.000 NA
ATOM     10  C   UNL     1      45.395   1.964   8.675  0.00  0.00    +0.000 A 
ATOM     11  N   UNL     1      45.948   3.135   8.214  0.00  0.00    +0.000 N 
ATOM     12  C   UNL     1      45.714   4.352   8.805  0.00  0.00    +0.000 A 
ATOM     13  O   UNL     1      46.159   5.398   8.347  0.00  0.00    +0.000 OA
ATOM     14  C   UNL     1      44.897   4.265   9.996  0.00  0.00    +0.000 A 
ATOM     15  H   UNL     1      46.519   3.149   7.380  0.00  0.00    +0.000 HD
ENDBRANCH   2   5
BRANCH   3  16
ATOM     16  C   UNL     1      47.643   6.544  12.891  0.00  0.00    +0.000 C 
BRANCH  16  17
ATOM     17  C   UNL     1      47.730   5.894  14.252  0.00  0.00    +0.000 A 
ATOM     18  C   UNL     1      46.924   4.803  14.556  0.00  0.00    +0.000 A 
ATOM     19  N   UNL     1      46.993   4.145  15.738  0.00  0.00    +0.000 NA
ATOM     20  C   UNL     1      47.912   4.606  16.625  0.00  0.00    +0.000 A 
ATOM     21  C   UNL     1      48.731   5.686  16.314  0.00  0.00    +0.000 A 
ATOM     22  N   UNL     1      48.673   6.338  15.126  0.00  0.00    +0.000 NA
BRANCH  20  23
ATOM     23  C   UNL     1      47.965   3.939  17.975  0.00  0.00    +0.000 C 
BRANCH  23  24
ATOM     24  C   UNL     1      48.200   4.898  19.102  0.00  0.00    +0.000 A 
ATOM     25  C   UNL     1      47.284   5.876  19.447  0.00  0.00    +0.000 A 
ATOM     26  N   UNL     1      47.476   6.765  20.442  0.00  0.00    +0.000 NA
ATOM     27  C   UNL     1      48.633   6.652  21.109  0.00  0.00    +0.000 A 
ATOM     28  N   UNL     1      49.588   5.736  20.882  0.00  0.00    +0.000 NA
ATOM     29  C   UNL     1      49.342   4.873  19.878  0.00  0.00    +0.000 A 
ENDBRANCH  23  24
ENDBRANCH  20  23
ENDBRANCH  16  17
ENDBRANCH   3  16
TORSDOF 5
ENDMDL
MODEL 6
REMARK VINA RESULT:    -6.948      3.226      8.140
REMARK INTER + INTRA:          -9.585
REMARK INTER:                  -8.842
REMARK INTRA:                  -0.743
REMARK UNBOUND:                -0.606
REMARK  Name = 
REMARK  5 active torsions:
REMARK  status: ('A' for Active; 'I' for Inactive)
REMARK    1  A    between atoms: C_2  and  C_18
REMARK    2  A    between atoms: N_3  and  C_4
REMARK    3  A    between atoms: C_4  and  C_5
REMARK    4  A    between atoms: C_8  and  C_9
REMARK    5  A    between atoms: C_9  and  C_10
REMARK                            x       y       z     vdW  Elec       q    Type
REMARK                         _______ _______ _______ _____ _____    ______ ____
ROOT
ATOM      1  O   UNL     1      44.537   7.877  11.224  0.00  0.00    +0.000 OA
ATOM      2  C   UNL     1      45.513   7.147  11.227  0.00  0.00    +0.000 C 
ATOM      3  N   UNL     1      46.675   7.400  11.931  0.00  0.00    +0.000 N 
ATOM      4  H   UNL     1      47.304   6.625  12.088  0.00  0.00    +0.000 HD
ENDROOT
BRANCH   2   5
ATOM      5  C   UNL     1      45.502   5.788  10.700  0.00  0.00    +0.000 A 
ATOM      6  C   UNL     1      45.862   5.491   9.395  0.00  0.00    +0.000 A 
ATOM      7  S   UNL     1      45.148   4.016   8.881  0.00  0.00    +0.000 S 
ATOM      8  C   UNL     1      44.530   3.705  10.441  0.00  0.00    +0.000 A 
ATOM      9  N   UNL     1      43.674   2.682  10.705  0.00  0.00    +0.000 NA
ATOM     10  C   UNL     1      43.360   2.563  11.954  0.00  0.00    +0.000 A 
ATOM     11  N   UNL     1      43.865   3.337  12.972  0.00  0.00    +0.000 N 
ATOM     12  C   UNL     1      44.734   4.378  12.755  0.00  0.00    +0.000 A 
ATOM     13  O   UNL     1      45.228   5.020  13.674  0.00  0.00    +0.000 OA
ATOM     14  C   UNL     1      44.998   4.623  11.353  0.00  0.00    +0.000 A 
ATOM     15  H   UNL     1      43.648   3.134  13.938  0.00  0.00    +0.000 HD
ENDBRANCH   2   5
BRANCH   3  16
ATOM     16  C   UNL     1      46.752   8.426  12.940  0.00  0.00    +0.000 C 
BRANCH  16  17
ATOM     17  C   UNL     1      47.633   7.970  14.080  0.00  0.00    +0.000 A 
ATOM     18  C   UNL     1      48.211   6.708  14.053  0.00  0.00    +0.000 A 
ATOM     19  N   UNL     1      49.051   6.263  15.018  0.00  0.00    +0.000 NA
ATOM     20  C   UNL     1      49.313   7.131  16.028  0.00  0.00    +0.000 A 
ATOM     21  C   UNL     1      48.749   8.403  16.046  0.00  0.00    +0.000 A 
ATOM     22  N   UNL     1      47.918   8.855  15.074  0.00  0.00    +0.000 NA
BRANCH  20  23
ATOM     23  C   UNL     1      50.189   6.642  17.152  0.00  0.00    +0.000 C 
BRANCH  23  24
ATOM     24  C   UNL     1      50.150   5.154  17.330  0.00  0.00    +0.000 A 
ATOM     25  C   UNL     1      51.297   4.381  17.367  0.00  0.00    +0.000 A 
ATOM     26  N   UNL     1      51.293   3.040  17.505  0.00  0.00    +0.000 NA
ATOM     27  C   UNL     1      50.086   2.470  17.615  0.00  0.00    +0.000 A 
ATOM     28  N   UNL     1      48.906   3.112  17.612  0.00  0.00    +0.000 NA
ATOM     29  C   UNL     1      48.971   4.450  17.472  0.00  0.00    +0.000 A 
ENDBRANCH  23  24
ENDBRANCH  20  23
ENDBRANCH  16  17
ENDBRANCH   3  16
TORSDOF 5
ENDMDL
MODEL 7
REMARK VINA RESULT:    -6.764      3.739      8.237
REMARK INTER + INTRA:          -9.347
REMARK INTER:                  -8.488
REMARK INTRA:                  -0.858
REMARK UNBOUND:                -0.606
REMARK  Name = 
REMARK  5 active torsions:
REMARK  status: ('A' for Active; 'I' for Inactive)
REMARK    1  A    between atoms: C_2  and  C_18
REMARK    2  A    between atoms: N_3  and  C_4
REMARK    3  A    between atoms: C_4  and  C_5
REMARK    4  A    between atoms: C_8  and  C_9
REMARK    5  A    between atoms: C_9  and  C_10
REMARK                            x       y       z     vdW  Elec       q    Type
REMARK                         _______ _______ _______ _____ _____    ______ ____
ROOT
ATOM      1  O   UNL     1      47.241   2.991  14.018  0.00  0.00    +0.000 OA
ATOM      2  C   UNL     1      46.769   4.107  14.152  0.00  0.00    +0.000 C 
ATOM      3  N   UNL     1      46.799   4.832  15.328  0.00  0.00    +0.000 N 
ATOM      4  H   UNL     1      46.633   5.826  15.268  0.00  0.00    +0.000 HD
ENDROOT
BRANCH   2   5
ATOM      5  C   UNL     1      46.335   4.935  13.034  0.00  0.00    +0.000 A 
ATOM      6  C   UNL     1      47.085   5.999  12.559  0.00  0.00    +0.000 A 
ATOM      7  S   UNL     1      46.088   7.139  11.748  0.00  0.00    +0.000 S 
ATOM      8  C   UNL     1      44.723   6.124  11.877  0.00  0.00    +0.000 A 
ATOM      9  N   UNL     1      43.471   6.525  11.533  0.00  0.00    +0.000 NA
ATOM     10  C   UNL     1      42.571   5.603  11.639  0.00  0.00    +0.000 A 
ATOM     11  N   UNL     1      42.816   4.301  12.005  0.00  0.00    +0.000 N 
ATOM     12  C   UNL     1      44.063   3.848  12.357  0.00  0.00    +0.000 A 
ATOM     13  O   UNL     1      44.282   2.671  12.618  0.00  0.00    +0.000 OA
ATOM     14  C   UNL     1      45.067   4.890  12.379  0.00  0.00    +0.000 A 
ATOM     15  H   UNL     1      42.081   3.606  11.981  0.00  0.00    +0.000 HD
ENDBRANCH   2   5
BRANCH   3  16
ATOM     16  C   UNL     1      47.623   4.445  16.446  0.00  0.00    +0.000 C 
BRANCH  16  17
ATOM     17  C   UNL     1      48.886   5.274  16.474  0.00  0.00    +0.000 A 
ATOM     18  C   UNL     1      48.871   6.584  16.010  0.00  0.00    +0.000 A 
ATOM     19  N   UNL     1      49.956   7.393  16.057  0.00  0.00    +0.000 NA
ATOM     20  C   UNL     1      51.078   6.855  16.599  0.00  0.00    +0.000 A 
ATOM     21  C   UNL     1      51.089   5.550  17.081  0.00  0.00    +0.000 A 
ATOM     22  N   UNL     1      50.000   4.742  17.046  0.00  0.00    +0.000 NA
BRANCH  20  23
ATOM     23  C   UNL     1      52.321   7.707  16.603  0.00  0.00    +0.000 C 
BRANCH  23  24
ATOM     24  C   UNL     1      53.199   7.482  15.409  0.00  0.00    +0.000 A 
ATOM     25  C   UNL     1      54.217   6.544  15.404  0.00  0.00    +0.000 A 
ATOM     26  N   UNL     1      55.035   6.333  14.353  0.00  0.00    +0.000 NA
ATOM     27  C   UNL     1      54.807   7.095  13.275  0.00  0.00    +0.000 A 
ATOM     28  N   UNL     1      53.842   8.021  13.153  0.00  0.00    +0.000 NA
ATOM     29  C   UNL     1      53.054   8.188  14.232  0.00  0.00    +0.000 A 
ENDBRANCH  23  24
ENDBRANCH  20  23
ENDBRANCH  16  17
ENDBRANCH   3  16
TORSDOF 5
ENDMDL
MODEL 8
REMARK VINA RESULT:    -6.149      3.758      9.628
REMARK INTER + INTRA:          -8.552
REMARK INTER:                  -7.751
REMARK INTRA:                  -0.801
REMARK UNBOUND:                -0.606
REMARK  Name = 
REMARK  5 active torsions:
REMARK  status: ('A' for Active; 'I' for Inactive)
REMARK    1  A    between atoms: C_2  and  C_18
REMARK    2  A    between atoms: N_3  and  C_4
REMARK    3  A    between atoms: C_4  and  C_5
REMARK    4  A    between atoms: C_8  and  C_9
REMARK    5  A    between atoms: C_9  and  C_10
REMARK                            x       y       z     vdW  Elec       q    Type
REMARK                         _______ _______ _______ _____ _____    ______ ____
ROOT
ATOM      1  O   UNL     1      47.508   2.957  14.142  0.00  0.00    +0.000 OA
ATOM      2  C   UNL     1      46.814   3.941  14.329  0.00  0.00    +0.000 C 
ATOM      3  N   UNL     1      46.505   4.453  15.576  0.00  0.00    +0.000 N 
ATOM      4  H   UNL     1      46.163   5.402  15.619  0.00  0.00    +0.000 HD
ENDROOT
BRANCH   2   5
ATOM      5  C   UNL     1      46.425   4.864  13.270  0.00  0.00    +0.000 A 
ATOM      6  C   UNL     1      47.179   5.978  12.937  0.00  0.00    +0.000 A 
ATOM      7  S   UNL     1      46.207   7.175  12.181  0.00  0.00    +0.000 S 
ATOM      8  C   UNL     1      44.856   6.133  12.141  0.00  0.00    +0.000 A 
ATOM      9  N   UNL     1      43.616   6.548  11.767  0.00  0.00    +0.000 NA
ATOM     10  C   UNL     1      42.729   5.607  11.739  0.00  0.00    +0.000 A 
ATOM     11  N   UNL     1      42.978   4.280  11.996  0.00  0.00    +0.000 N 
ATOM     12  C   UNL     1      44.214   3.814  12.373  0.00  0.00    +0.000 A 
ATOM     13  O   UNL     1      44.440   2.621  12.536  0.00  0.00    +0.000 OA
ATOM     14  C   UNL     1      45.195   4.863  12.546  0.00  0.00    +0.000 A 
ATOM     15  H   UNL     1      42.260   3.581  11.868  0.00  0.00    +0.000 HD
ENDBRANCH   2   5
BRANCH   3  16
ATOM     16  C   UNL     1      47.186   4.024  16.771  0.00  0.00    +0.000 C 
BRANCH  16  17
ATOM     17  C   UNL     1      47.816   5.209  17.466  0.00  0.00    +0.000 A 
ATOM     18  C   UNL     1      48.807   5.945  16.829  0.00  0.00    +0.000 A 
ATOM     19  N   UNL     1      49.371   7.047  17.377  0.00  0.00    +0.000 NA
ATOM     20  C   UNL     1      48.905   7.410  18.600  0.00  0.00    +0.000 A 
ATOM     21  C   UNL     1      47.900   6.684  19.230  0.00  0.00    +0.000 A 
ATOM     22  N   UNL     1      47.324   5.588  18.677  0.00  0.00    +0.000 NA
BRANCH  20  23
ATOM     23  C   UNL     1      49.561   8.592  19.267  0.00  0.00    +0.000 C 
BRANCH  23  24
ATOM     24  C   UNL     1      51.007   8.365  19.589  0.00  0.00    +0.000 A 
ATOM     25  C   UNL     1      52.013   9.177  19.096  0.00  0.00    +0.000 A 
ATOM     26  N   UNL     1      53.323   8.986  19.352  0.00  0.00    +0.000 NA
ATOM     27  C   UNL     1      53.617   7.941  20.137  0.00  0.00    +0.000 A 
ATOM     28  N   UNL     1      52.732   7.095  20.689  0.00  0.00    +0.000 NA
ATOM     29  C   UNL     1      51.438   7.334  20.401  0.00  0.00    +0.000 A 
ENDBRANCH  23  24
ENDBRANCH  20  23
ENDBRANCH  16  17
ENDBRANCH   3  16
TORSDOF 5
ENDMDL
MODEL 9
REMARK VINA RESULT:    -6.011      4.646      7.828
REMARK INTER + INTRA:          -8.373
REMARK INTER:                  -7.761
REMARK INTRA:                  -0.612
REMARK UNBOUND:                -0.606
REMARK  Name = 
REMARK  5 active torsions:
REMARK  status: ('A' for Active; 'I' for Inactive)
REMARK    1  A    between atoms: C_2  and  C_18
REMARK    2  A    between atoms: N_3  and  C_4
REMARK    3  A    between atoms: C_4  and  C_5
REMARK    4  A    between atoms: C_8  and  C_9
REMARK    5  A    between atoms: C_9  and  C_10
REMARK                            x       y       z     vdW  Elec       q    Type
REMARK                         _______ _______ _______ _____ _____    ______ ____
ROOT
ATOM      1  O   UNL     1      44.979   7.042  12.209  0.00  0.00    +0.000 OA
ATOM      2  C   UNL     1      45.376   5.899  12.063  0.00  0.00    +0.000 C 
ATOM      3  N   UNL     1      46.519   5.389  12.648  0.00  0.00    +0.000 N 
ATOM      4  H   UNL     1      46.614   4.384  12.689  0.00  0.00    +0.000 HD
ENDROOT
BRANCH   2   5
ATOM      5  C   UNL     1      44.573   4.840  11.464  0.00  0.00    +0.000 A 
ATOM      6  C   UNL     1      43.540   4.213  12.142  0.00  0.00    +0.000 A 
ATOM      7  S   UNL     1      43.240   2.651  11.495  0.00  0.00    +0.000 S 
ATOM      8  C   UNL     1      44.347   2.902  10.222  0.00  0.00    +0.000 A 
ATOM      9  N   UNL     1      44.718   1.916   9.362  0.00  0.00    +0.000 NA
ATOM     10  C   UNL     1      45.519   2.306   8.424  0.00  0.00    +0.000 A 
ATOM     11  N   UNL     1      45.939   3.600   8.232  0.00  0.00    +0.000 N 
ATOM     12  C   UNL     1      45.588   4.629   9.071  0.00  0.00    +0.000 A 
ATOM     13  O   UNL     1      45.914   5.790   8.854  0.00  0.00    +0.000 OA
ATOM     14  C   UNL     1      44.803   4.200  10.208  0.00  0.00    +0.000 A 
ATOM     15  H   UNL     1      46.493   3.854   7.425  0.00  0.00    +0.000 HD
ENDBRANCH   2   5
BRANCH   3  16
ATOM     16  C   UNL     1      47.219   6.084  13.698  0.00  0.00    +0.000 C 
BRANCH  16  17
ATOM     17  C   UNL     1      48.422   6.804  13.135  0.00  0.00    +0.000 A 
ATOM     18  C   UNL     1      48.395   7.298  11.837  0.00  0.00    +0.000 A 
ATOM     19  N   UNL     1      49.420   7.997  11.295  0.00  0.00    +0.000 NA
ATOM     20  C   UNL     1      50.493   8.203  12.100  0.00  0.00    +0.000 A 
ATOM     21  C   UNL     1      50.514   7.726  13.406  0.00  0.00    +0.000 A 
ATOM     22  N   UNL     1      49.482   7.037  13.956  0.00  0.00    +0.000 NA
BRANCH  20  23
ATOM     23  C   UNL     1      51.678   8.918  11.504  0.00  0.00    +0.000 C 
BRANCH  23  24
ATOM     24  C   UNL     1      52.763   7.989  11.047  0.00  0.00    +0.000 A 
ATOM     25  C   UNL     1      54.019   7.974  11.628  0.00  0.00    +0.000 A 
ATOM     26  N   UNL     1      55.020   7.165  11.225  0.00  0.00    +0.000 NA
ATOM     27  C   UNL     1      54.732   6.344  10.206  0.00  0.00    +0.000 A 
ATOM     28  N   UNL     1      53.549   6.254   9.575  0.00  0.00    +0.000 NA
ATOM     29  C   UNL     1      52.586   7.084  10.020  0.00  0.00    +0.000 A 
ENDBRANCH  23  24
ENDBRANCH  20  23
ENDBRANCH  16  17
ENDBRANCH   3  16
TORSDOF 5
ENDMDL
