MODEL 1
REMARK VINA RESULT:    -7.778      0.000      0.000
REMARK INTER + INTRA:         -12.005
REMARK INTER:                 -10.961
REMARK INTRA:                  -1.044
REMARK UNBOUND:                -1.044
REMARK  Name = 
REMARK  7 active torsions:
REMARK  status: ('A' for Active; 'I' for Inactive)
REMARK    1  A    between atoms: C_2  and  C_3
REMARK    2  A    between atoms: C_6  and  N_7
REMARK    3  A    between atoms: N_7  and  C_8
REMARK    4  A    between atoms: C_8  and  C_9
REMARK    5  A    between atoms: C_9  and  C_12
REMARK    6  A    between atoms: C_16  and  C_17
REMARK    7  A    between atoms: C_17  and  C_18
REMARK                            x       y       z     vdW  Elec       q    Type
REMARK                         _______ _______ _______ _____ _____    ______ ____
ROOT
ATOM      1  C   UNL     1      43.756   4.940  12.329  0.00  0.00    +0.000 C 
ATOM      2  F   UNL     1      42.858   5.857  12.799  0.00  0.00    +0.000 F 
ATOM      3  F   UNL     1      43.499   3.799  13.044  0.00  0.00    +0.000 F 
ENDROOT
BRANCH   1   4
ATOM      4  C   UNL     1      45.194   5.400  12.502  0.00  0.00    +0.000 A 
ATOM      5  C   UNL     1      45.775   6.264  11.565  0.00  0.00    +0.000 A 
ATOM      6  C   UNL     1      47.062   6.758  11.766  0.00  0.00    +0.000 A 
ATOM      7  C   UNL     1      47.774   6.420  12.919  0.00  0.00    +0.000 A 
ATOM      8  C   UNL     1      47.214   5.563  13.874  0.00  0.00    +0.000 A 
ATOM      9  C   UNL     1      45.941   5.024  13.634  0.00  0.00    +0.000 A 
BRANCH   8  10
ATOM     10  C   UNL     1      47.930   5.283  15.176  0.00  0.00    +0.000 C 
BRANCH  10  11
ATOM     11  C   UNL     1      47.223   4.219  15.998  0.00  0.00    +0.000 C 
ATOM     12  C   UNL     1      47.212   4.506  17.508  0.00  0.00    +0.000 C 
ATOM     13  O   UNL     1      47.780   3.211  17.804  0.00  0.00    +0.000 OA
ATOM     14  C   UNL     1      48.020   2.969  16.397  0.00  0.00    +0.000 C 
ENDBRANCH  10  11
ENDBRANCH   8  10
ENDBRANCH   1   4
BRANCH   1  15
ATOM     15  C   UNL     1      43.424   4.631  10.839  0.00  0.00    +0.000 C 
BRANCH  15  16
ATOM     16  N   UNL     1      43.733   3.244  10.422  0.00  0.00    +0.000 N 
ATOM     17  H   UNL     1      42.893   2.678  10.308  0.00  0.00    +0.000 HD
BRANCH  16  21
ATOM     18  C   UNL     1      46.601   2.393   7.525  0.00  0.00    +0.000 A 
ATOM     19  C   UNL     1      46.208   3.718   7.676  0.00  0.00    +0.000 A 
ATOM     20  C   UNL     1      45.229   4.023   8.625  0.00  0.00    +0.000 A 
ATOM     21  C   UNL     1      44.644   3.012   9.389  0.00  0.00    +0.000 A 
ATOM     22  C   UNL     1      45.144   1.722   9.174  0.00  0.00    +0.000 A 
ATOM     23  N   UNL     1      46.083   1.381   8.259  0.00  0.00    +0.000 NA
BRANCH  18  25
ATOM     24  N   UNL     1      48.394   1.712   5.781  0.00  0.00    +0.000 NA
ATOM     25  C   UNL     1      47.608   2.032   6.574  0.00  0.00    +0.000 C 
ENDBRANCH  18  25
ENDBRANCH  16  21
ENDBRANCH  15  16
ENDBRANCH   1  15
TORSDOF 7
ENDMDL
MODEL 2
REMARK VINA RESULT:    -7.447      2.388      3.503
REMARK INTER + INTRA:         -11.539
REMARK INTER:                 -10.668
REMARK INTRA:                  -0.871
REMARK UNBOUND:                -1.044
REMARK  Name = 
REMARK  7 active torsions:
REMARK  status: ('A' for Active; 'I' for Inactive)
REMARK    1  A    between atoms: C_2  and  C_3
REMARK    2  A    between atoms: C_6  and  N_7
REMARK    3  A    between atoms: N_7  and  C_8
REMARK    4  A    between atoms: C_8  and  C_9
REMARK    5  A    between atoms: C_9  and  C_12
REMARK    6  A    between atoms: C_16  and  C_17
REMARK    7  A    between atoms: C_17  and  C_18
REMARK                            x       y       z     vdW  Elec       q    Type
REMARK                         _______ _______ _______ _____ _____    ______ ____
ROOT
ATOM      1  C   UNL     1      43.352   5.173  12.376  0.00  0.00    +0.000 C 
ATOM      2  F   UNL     1      42.687   6.289  11.953  0.00  0.00    +0.000 F 
ATOM      3  F   UNL     1      42.608   4.698  13.425  0.00  0.00    +0.000 F 
ENDROOT
BRANCH   1   4
ATOM      4  C   UNL     1      44.782   5.476  12.792  0.00  0.00    +0.000 A 
ATOM      5  C   UNL     1      45.544   4.503  13.452  0.00  0.00    +0.000 A 
ATOM      6  C   UNL     1      46.882   4.744  13.756  0.00  0.00    +0.000 A 
ATOM      7  C   UNL     1      47.484   5.947  13.379  0.00  0.00    +0.000 A 
ATOM      8  C   UNL     1      46.746   6.933  12.714  0.00  0.00    +0.000 A 
ATOM      9  C   UNL     1      45.385   6.705  12.465  0.00  0.00    +0.000 A 
BRANCH   8  10
ATOM     10  C   UNL     1      47.416   8.188  12.203  0.00  0.00    +0.000 C 
BRANCH  10  11
ATOM     11  C   UNL     1      48.907   8.197  12.489  0.00  0.00    +0.000 C 
ATOM     12  C   UNL     1      49.553   9.588  12.384  0.00  0.00    +0.000 C 
ATOM     13  O   UNL     1      50.551   9.104  11.458  0.00  0.00    +0.000 OA
ATOM     14  C   UNL     1      49.863   7.835  11.344  0.00  0.00    +0.000 C 
ENDBRANCH  10  11
ENDBRANCH   8  10
ENDBRANCH   1   4
BRANCH   1  15
ATOM     15  C   UNL     1      43.294   4.098  11.250  0.00  0.00    +0.000 C 
BRANCH  15  16
ATOM     16  N   UNL     1      43.753   4.578   9.926  0.00  0.00    +0.000 N 
ATOM     17  H   UNL     1      43.948   5.578   9.924  0.00  0.00    +0.000 HD
BRANCH  16  21
ATOM     18  C   UNL     1      46.592   2.601   7.609  0.00  0.00    +0.000 A 
ATOM     19  C   UNL     1      45.820   1.837   8.475  0.00  0.00    +0.000 A 
ATOM     20  C   UNL     1      44.878   2.483   9.281  0.00  0.00    +0.000 A 
ATOM     21  C   UNL     1      44.734   3.870   9.229  0.00  0.00    +0.000 A 
ATOM     22  C   UNL     1      45.541   4.530   8.294  0.00  0.00    +0.000 A 
ATOM     23  N   UNL     1      46.472   3.945   7.502  0.00  0.00    +0.000 NA
BRANCH  18  25
ATOM     24  N   UNL     1      48.344   1.520   6.033  0.00  0.00    +0.000 NA
ATOM     25  C   UNL     1      47.562   1.985   6.755  0.00  0.00    +0.000 C 
ENDBRANCH  18  25
ENDBRANCH  16  21
ENDBRANCH  15  16
ENDBRANCH   1  15
TORSDOF 7
ENDMDL
MODEL 3
REMARK VINA RESULT:    -7.111      3.718      7.472
REMARK INTER + INTRA:         -11.064
REMARK INTER:                 -10.562
REMARK INTRA:                  -0.503
REMARK UNBOUND:                -1.044
REMARK  Name = 
REMARK  7 active torsions:
REMARK  status: ('A' for Active; 'I' for Inactive)
REMARK    1  A    between atoms: C_2  and  C_3
REMARK    2  A    between atoms: C_6  and  N_7
REMARK    3  A    between atoms: N_7  and  C_8
REMARK    4  A    between atoms: C_8  and  C_9
REMARK    5  A    between atoms: C_9  and  C_12
REMARK    6  A    between atoms: C_16  and  C_17
REMARK    7  A    between atoms: C_17  and  C_18
REMARK                            x       y       z     vdW  Elec       q    Type
REMARK                         _______ _______ _______ _____ _____    ______ ____
ROOT
ATOM      1  C   UNL     1      44.331   5.909  11.511  0.00  0.00    +0.000 C 
ATOM      2  F   UNL     1      43.825   5.553  12.729  0.00  0.00    +0.000 F 
ATOM      3  F   UNL     1      43.384   6.736  10.965  0.00  0.00    +0.000 F 
ENDROOT
BRANCH   1   4
ATOM      4  C   UNL     1      44.604   4.706  10.625  0.00  0.00    +0.000 A 
ATOM      5  C   UNL     1      43.958   3.488  10.872  0.00  0.00    +0.000 A 
ATOM      6  C   UNL     1      44.137   2.408  10.010  0.00  0.00    +0.000 A 
ATOM      7  C   UNL     1      44.940   2.539   8.875  0.00  0.00    +0.000 A 
ATOM      8  C   UNL     1      45.593   3.747   8.601  0.00  0.00    +0.000 A 
ATOM      9  C   UNL     1      45.453   4.810   9.506  0.00  0.00    +0.000 A 
BRANCH   8  10
ATOM     10  C   UNL     1      46.371   3.933   7.319  0.00  0.00    +0.000 C 
BRANCH  10  11
ATOM     11  C   UNL     1      46.551   2.628   6.565  0.00  0.00    +0.000 C 
ATOM     12  C   UNL     1      47.664   1.731   7.132  0.00  0.00    +0.000 C 
ATOM     13  O   UNL     1      48.303   1.632   5.840  0.00  0.00    +0.000 OA
ATOM     14  C   UNL     1      47.417   2.640   5.298  0.00  0.00    +0.000 C 
ENDBRANCH  10  11
ENDBRANCH   8  10
ENDBRANCH   1   4
BRANCH   1  15
ATOM     15  C   UNL     1      45.613   6.766  11.732  0.00  0.00    +0.000 C 
BRANCH  15  16
ATOM     16  N   UNL     1      46.826   5.976  12.047  0.00  0.00    +0.000 N 
ATOM     17  H   UNL     1      47.658   6.343  11.586  0.00  0.00    +0.000 HD
BRANCH  16  21
ATOM     18  C   UNL     1      47.919   4.927  15.926  0.00  0.00    +0.000 A 
ATOM     19  C   UNL     1      46.988   4.124  15.278  0.00  0.00    +0.000 A 
ATOM     20  C   UNL     1      46.588   4.472  13.984  0.00  0.00    +0.000 A 
ATOM     21  C   UNL     1      47.099   5.615  13.369  0.00  0.00    +0.000 A 
ATOM     22  C   UNL     1      48.055   6.326  14.105  0.00  0.00    +0.000 A 
ATOM     23  N   UNL     1      48.463   6.031  15.363  0.00  0.00    +0.000 NA
BRANCH  18  25
ATOM     24  N   UNL     1      48.760   4.384  18.318  0.00  0.00    +0.000 NA
ATOM     25  C   UNL     1      48.369   4.607  17.247  0.00  0.00    +0.000 C 
ENDBRANCH  18  25
ENDBRANCH  16  21
ENDBRANCH  15  16
ENDBRANCH   1  15
TORSDOF 7
ENDMDL
MODEL 4
REMARK VINA RESULT:    -7.021      4.033      6.970
REMARK INTER + INTRA:         -10.938
REMARK INTER:                 -10.244
REMARK INTRA:                  -0.695
REMARK UNBOUND:                -1.044
REMARK  Name = 
REMARK  7 active torsions:
REMARK  status: ('A' for Active; 'I' for Inactive)
REMARK    1  A    between atoms: C_2  and  C_3
REMARK    2  A    between atoms: C_6  and  N_7
REMARK    3  A    between atoms: N_7  and  C_8
REMARK    4  A    between atoms: C_8  and  C_9
REMARK    5  A    between atoms: C_9  and  C_12
REMARK    6  A    between atoms: C_16  and  C_17
REMARK    7  A    between atoms: C_17  and  C_18
REMARK                            x       y       z     vdW  Elec       q    Type
REMARK                         _______ _______ _______ _____ _____    ______ ____
ROOT
ATOM      1  C   UNL     1      43.818   5.689  11.422  0.00  0.00    +0.000 C 
ATOM      2  F   UNL     1      42.460   5.702  11.567  0.00  0.00    +0.000 F 
ATOM      3  F   UNL     1      44.119   6.888  10.831  0.00  0.00    +0.000 F 
ENDROOT
BRANCH   1   4
ATOM      4  C   UNL     1      44.299   4.514  10.587  0.00  0.00    +0.000 A 
ATOM      5  C   UNL     1      43.794   3.229  10.823  0.00  0.00    +0.000 A 
ATOM      6  C   UNL     1      44.164   2.166  10.002  0.00  0.00    +0.000 A 
ATOM      7  C   UNL     1      45.020   2.376   8.919  0.00  0.00    +0.000 A 
ATOM      8  C   UNL     1      45.534   3.653   8.658  0.00  0.00    +0.000 A 
ATOM      9  C   UNL     1      45.201   4.705   9.524  0.00  0.00    +0.000 A 
BRANCH   8  10
ATOM     10  C   UNL     1      46.368   3.913   7.424  0.00  0.00    +0.000 C 
BRANCH  10  11
ATOM     11  C   UNL     1      46.590   2.652   6.608  0.00  0.00    +0.000 C 
ATOM     12  C   UNL     1      47.862   1.879   6.993  0.00  0.00    +0.000 C 
ATOM     13  O   UNL     1      48.329   1.879   5.626  0.00  0.00    +0.000 OA
ATOM     14  C   UNL     1      47.272   2.790   5.240  0.00  0.00    +0.000 C 
ENDBRANCH  10  11
ENDBRANCH   8  10
ENDBRANCH   1   4
BRANCH   1  15
ATOM     15  C   UNL     1      44.473   5.698  12.836  0.00  0.00    +0.000 C 
BRANCH  15  16
ATOM     16  N   UNL     1      45.107   6.986  13.204  0.00  0.00    +0.000 N 
ATOM     17  H   UNL     1      44.984   7.209  14.191  0.00  0.00    +0.000 HD
BRANCH  16  21
ATOM     18  C   UNL     1      49.074   7.753  12.198  0.00  0.00    +0.000 A 
ATOM     19  C   UNL     1      48.132   8.731  11.901  0.00  0.00    +0.000 A 
ATOM     20  C   UNL     1      46.791   8.484  12.208  0.00  0.00    +0.000 A 
ATOM     21  C   UNL     1      46.406   7.271  12.779  0.00  0.00    +0.000 A 
ATOM     22  C   UNL     1      47.447   6.377  13.065  0.00  0.00    +0.000 A 
ATOM     23  N   UNL     1      48.756   6.571  12.775  0.00  0.00    +0.000 NA
BRANCH  18  25
ATOM     24  N   UNL     1      51.591   8.158  11.721  0.00  0.00    +0.000 NA
ATOM     25  C   UNL     1      50.462   7.963  11.914  0.00  0.00    +0.000 C 
ENDBRANCH  18  25
ENDBRANCH  16  21
ENDBRANCH  15  16
ENDBRANCH   1  15
TORSDOF 7
ENDMDL
MODEL 5
REMARK VINA RESULT:    -6.978      2.013      2.394
REMARK INTER + INTRA:         -10.877
REMARK INTER:                  -9.967
REMARK INTRA:                  -0.910
REMARK UNBOUND:                -1.044
REMARK  Name = 
REMARK  7 active torsions:
REMARK  status: ('A' for Active; 'I' for Inactive)
REMARK    1  A    between atoms: C_2  and  C_3
REMARK    2  A    between atoms: C_6  and  N_7
REMARK    3  A    between atoms: N_7  and  C_8
REMARK    4  A    between atoms: C_8  and  C_9
REMARK    5  A    between atoms: C_9  and  C_12
REMARK    6  A    between atoms: C_16  and  C_17
REMARK    7  A    between atoms: C_17  and  C_18
REMARK                            x       y       z     vdW  Elec       q    Type
REMARK                         _______ _______ _______ _____ _____    ______ ____
ROOT
ATOM      1  C   UNL     1      44.686   4.658  12.271  0.00  0.00    +0.000 C 
ATOM      2  F   UNL     1      43.985   4.583  13.442  0.00  0.00    +0.000 F 
ATOM      3  F   UNL     1      45.457   3.525  12.250  0.00  0.00    +0.000 F 
ENDROOT
BRANCH   1   4
ATOM      4  C   UNL     1      45.533   5.917  12.185  0.00  0.00    +0.000 A 
ATOM      5  C   UNL     1      44.928   7.157  11.944  0.00  0.00    +0.000 A 
ATOM      6  C   UNL     1      45.690   8.324  11.952  0.00  0.00    +0.000 A 
ATOM      7  C   UNL     1      47.057   8.272  12.231  0.00  0.00    +0.000 A 
ATOM      8  C   UNL     1      47.684   7.045  12.481  0.00  0.00    +0.000 A 
ATOM      9  C   UNL     1      46.921   5.870  12.412  0.00  0.00    +0.000 A 
BRANCH   8  10
ATOM     10  C   UNL     1      49.137   6.989  12.895  0.00  0.00    +0.000 C 
BRANCH  10  11
ATOM     11  C   UNL     1      49.427   7.886  14.085  0.00  0.00    +0.000 C 
ATOM     12  C   UNL     1      50.781   7.607  14.758  0.00  0.00    +0.000 C 
ATOM     13  O   UNL     1      50.156   7.451  16.052  0.00  0.00    +0.000 OA
ATOM     14  C   UNL     1      48.841   7.488  15.447  0.00  0.00    +0.000 C 
ENDBRANCH  10  11
ENDBRANCH   8  10
ENDBRANCH   1   4
BRANCH   1  15
ATOM     15  C   UNL     1      43.686   4.553  11.080  0.00  0.00    +0.000 C 
BRANCH  15  16
ATOM     16  N   UNL     1      43.709   3.247  10.381  0.00  0.00    +0.000 N 
ATOM     17  H   UNL     1      42.777   2.937  10.111  0.00  0.00    +0.000 HD
BRANCH  16  21
ATOM     18  C   UNL     1      46.620   2.411   7.523  0.00  0.00    +0.000 A 
ATOM     19  C   UNL     1      46.204   3.731   7.654  0.00  0.00    +0.000 A 
ATOM     20  C   UNL     1      45.210   4.030   8.590  0.00  0.00    +0.000 A 
ATOM     21  C   UNL     1      44.634   3.019   9.360  0.00  0.00    +0.000 A 
ATOM     22  C   UNL     1      45.159   1.735   9.166  0.00  0.00    +0.000 A 
ATOM     23  N   UNL     1      46.112   1.399   8.264  0.00  0.00    +0.000 NA
BRANCH  18  25
ATOM     24  N   UNL     1      48.453   1.726   5.822  0.00  0.00    +0.000 NA
ATOM     25  C   UNL     1      47.643   2.056   6.587  0.00  0.00    +0.000 C 
ENDBRANCH  18  25
ENDBRANCH  16  21
ENDBRANCH  15  16
ENDBRANCH   1  15
TORSDOF 7
ENDMDL
MODEL 6
REMARK VINA RESULT:    -6.470      1.235      1.746
REMARK INTER + INTRA:         -10.161
REMARK INTER:                  -9.801
REMARK INTRA:                  -0.360
REMARK UNBOUND:                -1.044
REMARK  Name = 
REMARK  7 active torsions:
REMARK  status: ('A' for Active; 'I' for Inactive)
REMARK    1  A    between atoms: C_2  and  C_3
REMARK    2  A    between atoms: C_6  and  N_7
REMARK    3  A    between atoms: N_7  and  C_8
REMARK    4  A    between atoms: C_8  and  C_9
REMARK    5  A    between atoms: C_9  and  C_12
REMARK    6  A    between atoms: C_16  and  C_17
REMARK    7  A    between atoms: C_17  and  C_18
REMARK                            x       y       z     vdW  Elec       q    Type
REMARK                         _______ _______ _______ _____ _____    ______ ____
ROOT
ATOM      1  C   UNL     1      45.329   5.965  11.732  0.00  0.00    +0.000 C 
ATOM      2  F   UNL     1      45.838   6.332  10.519  0.00  0.00    +0.000 F 
ATOM      3  F   UNL     1      44.323   6.863  11.978  0.00  0.00    +0.000 F 
ENDROOT
BRANCH   1   4
ATOM      4  C   UNL     1      46.379   5.984  12.830  0.00  0.00    +0.000 A 
ATOM      5  C   UNL     1      47.315   7.024  12.891  0.00  0.00    +0.000 A 
ATOM      6  C   UNL     1      48.222   7.094  13.946  0.00  0.00    +0.000 A 
ATOM      7  C   UNL     1      48.189   6.143  14.968  0.00  0.00    +0.000 A 
ATOM      8  C   UNL     1      47.259   5.096  14.934  0.00  0.00    +0.000 A 
ATOM      9  C   UNL     1      46.389   5.001  13.838  0.00  0.00    +0.000 A 
BRANCH   8  10
ATOM     10  C   UNL     1      47.140   4.129  16.090  0.00  0.00    +0.000 C 
BRANCH  10  11
ATOM     11  C   UNL     1      48.369   4.150  16.981  0.00  0.00    +0.000 C 
ATOM     12  C   UNL     1      49.015   2.770  17.182  0.00  0.00    +0.000 C 
ATOM     13  O   UNL     1      48.962   2.904  18.620  0.00  0.00    +0.000 OA
ATOM     14  C   UNL     1      48.158   4.103  18.501  0.00  0.00    +0.000 C 
ENDBRANCH  10  11
ENDBRANCH   8  10
ENDBRANCH   1   4
BRANCH   1  15
ATOM     15  C   UNL     1      44.665   4.562  11.593  0.00  0.00    +0.000 C 
BRANCH  15  16
ATOM     16  N   UNL     1      44.099   4.287  10.252  0.00  0.00    +0.000 N 
ATOM     17  H   UNL     1      43.523   5.055   9.911  0.00  0.00    +0.000 HD
BRANCH  16  21
ATOM     18  C   UNL     1      46.672   2.618   7.435  0.00  0.00    +0.000 A 
ATOM     19  C   UNL     1      46.501   3.997   7.416  0.00  0.00    +0.000 A 
ATOM     20  C   UNL     1      45.623   4.576   8.337  0.00  0.00    +0.000 A 
ATOM     21  C   UNL     1      44.917   3.780   9.240  0.00  0.00    +0.000 A 
ATOM     22  C   UNL     1      45.198   2.409   9.189  0.00  0.00    +0.000 A 
ATOM     23  N   UNL     1      46.032   1.805   8.308  0.00  0.00    +0.000 NA
BRANCH  18  25
ATOM     24  N   UNL     1      48.314   1.500   5.769  0.00  0.00    +0.000 NA
ATOM     25  C   UNL     1      47.568   1.978   6.520  0.00  0.00    +0.000 C 
ENDBRANCH  18  25
ENDBRANCH  16  21
ENDBRANCH  15  16
ENDBRANCH   1  15
TORSDOF 7
ENDMDL
MODEL 7
REMARK VINA RESULT:    -5.673      3.418      5.267
REMARK INTER + INTRA:          -9.039
REMARK INTER:                  -8.238
REMARK INTRA:                  -0.801
REMARK UNBOUND:                -1.044
REMARK  Name = 
REMARK  7 active torsions:
REMARK  status: ('A' for Active; 'I' for Inactive)
REMARK    1  A    between atoms: C_2  and  C_3
REMARK    2  A    between atoms: C_6  and  N_7
REMARK    3  A    between atoms: N_7  and  C_8
REMARK    4  A    between atoms: C_8  and  C_9
REMARK    5  A    between atoms: C_9  and  C_12
REMARK    6  A    between atoms: C_16  and  C_17
REMARK    7  A    between atoms: C_17  and  C_18
REMARK                            x       y       z     vdW  Elec       q    Type
REMARK                         _______ _______ _______ _____ _____    ______ ____
ROOT
ATOM      1  C   UNL     1      48.914   7.972  14.240  0.00  0.00    +0.000 C 
ATOM      2  F   UNL     1      49.634   9.128  14.129  0.00  0.00    +0.000 F 
ATOM      3  F   UNL     1      47.647   8.378  14.568  0.00  0.00    +0.000 F 
ENDROOT
BRANCH   1   4
ATOM      4  C   UNL     1      49.490   7.031  15.285  0.00  0.00    +0.000 A 
ATOM      5  C   UNL     1      50.855   7.077  15.599  0.00  0.00    +0.000 A 
ATOM      6  C   UNL     1      51.370   6.279  16.618  0.00  0.00    +0.000 A 
ATOM      7  C   UNL     1      50.526   5.447  17.357  0.00  0.00    +0.000 A 
ATOM      8  C   UNL     1      49.157   5.387  17.067  0.00  0.00    +0.000 A 
ATOM      9  C   UNL     1      48.658   6.150  16.001  0.00  0.00    +0.000 A 
BRANCH   8  10
ATOM     10  C   UNL     1      48.218   4.577  17.932  0.00  0.00    +0.000 C 
BRANCH  10  11
ATOM     11  C   UNL     1      48.066   3.152  17.431  0.00  0.00    +0.000 C 
ATOM     12  C   UNL     1      49.398   2.401  17.278  0.00  0.00    +0.000 C 
ATOM     13  O   UNL     1      49.099   2.060  15.906  0.00  0.00    +0.000 OA
ATOM     14  C   UNL     1      47.942   2.930  15.917  0.00  0.00    +0.000 C 
ENDBRANCH  10  11
ENDBRANCH   8  10
ENDBRANCH   1   4
BRANCH   1  15
ATOM     15  C   UNL     1      48.830   7.296  12.839  0.00  0.00    +0.000 C 
BRANCH  15  16
ATOM     16  N   UNL     1      47.503   7.402  12.191  0.00  0.00    +0.000 N 
ATOM     17  H   UNL     1      47.548   7.879  11.292  0.00  0.00    +0.000 HD
BRANCH  16  21
ATOM     18  C   UNL     1      44.795   4.250  11.921  0.00  0.00    +0.000 A 
ATOM     19  C   UNL     1      45.555   4.351  13.080  0.00  0.00    +0.000 A 
ATOM     20  C   UNL     1      46.488   5.387  13.182  0.00  0.00    +0.000 A 
ATOM     21  C   UNL     1      46.665   6.286  12.130  0.00  0.00    +0.000 A 
ATOM     22  C   UNL     1      45.819   6.107  11.028  0.00  0.00    +0.000 A 
ATOM     23  N   UNL     1      44.911   5.111  10.884  0.00  0.00    +0.000 NA
BRANCH  18  25
ATOM     24  N   UNL     1      43.061   2.341  11.649  0.00  0.00    +0.000 NA
ATOM     25  C   UNL     1      43.819   3.213  11.774  0.00  0.00    +0.000 C 
ENDBRANCH  18  25
ENDBRANCH  16  21
ENDBRANCH  15  16
ENDBRANCH   1  15
TORSDOF 7
ENDMDL
MODEL 8
REMARK VINA RESULT:    -5.667      4.457      7.326
REMARK INTER + INTRA:          -9.030
REMARK INTER:                  -8.360
REMARK INTRA:                  -0.671
REMARK UNBOUND:                -1.044
REMARK  Name = 
REMARK  7 active torsions:
REMARK  status: ('A' for Active; 'I' for Inactive)
REMARK    1  A    between atoms: C_2  and  C_3
REMARK    2  A    between atoms: C_6  and  N_7
REMARK    3  A    between atoms: N_7  and  C_8
REMARK    4  A    between atoms: C_8  and  C_9
REMARK    5  A    between atoms: C_9  and  C_12
REMARK    6  A    between atoms: C_16  and  C_17
REMARK    7  A    between atoms: C_17  and  C_18
REMARK                            x       y       z     vdW  Elec       q    Type
REMARK                         _______ _______ _______ _____ _____    ______ ____
ROOT
ATOM      1  C   UNL     1      49.230   8.397  11.997  0.00  0.00    +0.000 C 
ATOM      2  F   UNL     1      49.522   9.728  11.891  0.00  0.00    +0.000 F 
ATOM      3  F   UNL     1      49.848   7.815  10.921  0.00  0.00    +0.000 F 
ENDROOT
BRANCH   1   4
ATOM      4  C   UNL     1      47.733   8.133  11.996  0.00  0.00    +0.000 A 
ATOM      5  C   UNL     1      46.844   9.117  12.446  0.00  0.00    +0.000 A 
ATOM      6  C   UNL     1      45.468   8.913  12.364  0.00  0.00    +0.000 A 
ATOM      7  C   UNL     1      44.962   7.738  11.805  0.00  0.00    +0.000 A 
ATOM      8  C   UNL     1      45.830   6.741  11.342  0.00  0.00    +0.000 A 
ATOM      9  C   UNL     1      47.213   6.930  11.483  0.00  0.00    +0.000 A 
BRANCH   8  10
ATOM     10  C   UNL     1      45.295   5.517  10.634  0.00  0.00    +0.000 C 
BRANCH  10  11
ATOM     11  C   UNL     1      44.630   4.547  11.594  0.00  0.00    +0.000 C 
ATOM     12  C   UNL     1      44.476   3.124  11.032  0.00  0.00    +0.000 C 
ATOM     13  O   UNL     1      43.059   3.117  11.314  0.00  0.00    +0.000 OA
ATOM     14  C   UNL     1      43.096   4.525  11.650  0.00  0.00    +0.000 C 
ENDBRANCH  10  11
ENDBRANCH   8  10
ENDBRANCH   1   4
BRANCH   1  15
ATOM     15  C   UNL     1      49.914   7.834  13.278  0.00  0.00    +0.000 C 
BRANCH  15  16
ATOM     16  N   UNL     1      49.103   7.966  14.510  0.00  0.00    +0.000 N 
ATOM     17  H   UNL     1      48.305   8.588  14.383  0.00  0.00    +0.000 HD
BRANCH  16  21
ATOM     18  C   UNL     1      47.768   4.603  16.571  0.00  0.00    +0.000 A 
ATOM     19  C   UNL     1      48.521   5.535  17.275  0.00  0.00    +0.000 A 
ATOM     20  C   UNL     1      49.001   6.659  16.596  0.00  0.00    +0.000 A 
ATOM     21  C   UNL     1      48.745   6.828  15.236  0.00  0.00    +0.000 A 
ATOM     22  C   UNL     1      47.946   5.842  14.641  0.00  0.00    +0.000 A 
ATOM     23  N   UNL     1      47.471   4.733  15.257  0.00  0.00    +0.000 NA
BRANCH  18  25
ATOM     24  N   UNL     1      46.779   2.509  17.739  0.00  0.00    +0.000 NA
ATOM     25  C   UNL     1      47.246   3.440  17.223  0.00  0.00    +0.000 C 
ENDBRANCH  18  25
ENDBRANCH  16  21
ENDBRANCH  15  16
ENDBRANCH   1  15
TORSDOF 7
ENDMDL
MODEL 9
REMARK VINA RESULT:    -5.469      4.448      7.253
REMARK INTER + INTRA:          -8.751
REMARK INTER:                  -8.025
REMARK INTRA:                  -0.726
REMARK UNBOUND:                -1.044
REMARK  Name = 
REMARK  7 active torsions:
REMARK  status: ('A' for Active; 'I' for Inactive)
REMARK    1  A    between atoms: C_2  and  C_3
REMARK    2  A    between atoms: C_6  and  N_7
REMARK    3  A    between atoms: N_7  and  C_8
REMARK    4  A    between atoms: C_8  and  C_9
REMARK    5  A    between atoms: C_9  and  C_12
REMARK    6  A    between atoms: C_16  and  C_17
REMARK    7  A    between atoms: C_17  and  C_18
REMARK                            x       y       z     vdW  Elec       q    Type
REMARK                         _______ _______ _______ _____ _____    ______ ____
ROOT
ATOM      1  C   UNL     1      45.860   6.331  12.406  0.00  0.00    +0.000 C 
ATOM      2  F   UNL     1      45.146   7.168  13.216  0.00  0.00    +0.000 F 
ATOM      3  F   UNL     1      46.136   7.074  11.289  0.00  0.00    +0.000 F 
ENDROOT
BRANCH   1   4
ATOM      4  C   UNL     1      45.091   5.065  12.063  0.00  0.00    +0.000 A 
ATOM      5  C   UNL     1      44.153   4.546  12.963  0.00  0.00    +0.000 A 
ATOM      6  C   UNL     1      43.382   3.438  12.616  0.00  0.00    +0.000 A 
ATOM      7  C   UNL     1      43.518   2.853  11.355  0.00  0.00    +0.000 A 
ATOM      8  C   UNL     1      44.446   3.356  10.434  0.00  0.00    +0.000 A 
ATOM      9  C   UNL     1      45.257   4.435  10.815  0.00  0.00    +0.000 A 
BRANCH   8  10
ATOM     10  C   UNL     1      44.520   2.803   9.030  0.00  0.00    +0.000 C 
BRANCH  10  11
ATOM     11  C   UNL     1      45.953   2.672   8.543  0.00  0.00    +0.000 C 
ATOM     12  C   UNL     1      46.178   3.212   7.121  0.00  0.00    +0.000 C 
ATOM     13  O   UNL     1      46.770   1.966   6.693  0.00  0.00    +0.000 OA
ATOM     14  C   UNL     1      46.389   1.331   7.938  0.00  0.00    +0.000 C 
ENDBRANCH  10  11
ENDBRANCH   8  10
ENDBRANCH   1   4
BRANCH   1  15
ATOM     15  C   UNL     1      47.222   6.010  13.091  0.00  0.00    +0.000 C 
BRANCH  15  16
ATOM     16  N   UNL     1      47.854   7.171  13.761  0.00  0.00    +0.000 N 
ATOM     17  H   UNL     1      47.866   7.073  14.775  0.00  0.00    +0.000 HD
BRANCH  16  21
ATOM     18  C   UNL     1      51.510   8.421  12.209  0.00  0.00    +0.000 A 
ATOM     19  C   UNL     1      51.288   8.606  13.569  0.00  0.00    +0.000 A 
ATOM     20  C   UNL     1      50.058   8.216  14.106  0.00  0.00    +0.000 A 
ATOM     21  C   UNL     1      49.068   7.674  13.287  0.00  0.00    +0.000 A 
ATOM     22  C   UNL     1      49.418   7.503  11.942  0.00  0.00    +0.000 A 
ATOM     23  N   UNL     1      50.592   7.876  11.378  0.00  0.00    +0.000 NA
BRANCH  18  25
ATOM     24  N   UNL     1      53.748   9.100  11.090  0.00  0.00    +0.000 NA
ATOM     25  C   UNL     1      52.758   8.794  11.614  0.00  0.00    +0.000 C 
ENDBRANCH  18  25
ENDBRANCH  16  21
ENDBRANCH  15  16
ENDBRANCH   1  15
TORSDOF 7
ENDMDL
