MODEL 1
REMARK VINA RESULT:    -7.503      0.000      0.000
REMARK INTER + INTRA:          -9.874
REMARK INTER:                  -9.477
REMARK INTRA:                  -0.396
REMARK UNBOUND:                -0.396
REMARK  Name = 
REMARK  5 active torsions:
REMARK  status: ('A' for Active; 'I' for Inactive)
REMARK    1  A    between atoms: N_1  and  C_2
REMARK    2  A    between atoms: C_2  and  C_3
REMARK    3  A    between atoms: C_3  and  C_4
REMARK    4  A    between atoms: C_8  and  C_9
REMARK    5  A    between atoms: C_9  and  N_10
REMARK                            x       y       z     vdW  Elec       q    Type
REMARK                         _______ _______ _______ _____ _____    ______ ____
ROOT
ATOM      1  C   UNL     1      46.854   5.011  13.626  0.00  0.00    +0.000 A 
ATOM      2  C   UNL     1      47.925   5.844  13.286  0.00  0.00    +0.000 A 
ATOM      3  C   UNL     1      47.752   6.858  12.346  0.00  0.00    +0.000 A 
ATOM      4  C   UNL     1      46.518   7.028  11.718  0.00  0.00    +0.000 A 
ATOM      5  C   UNL     1      45.431   6.186  12.026  0.00  0.00    +0.000 A 
ATOM      6  C   UNL     1      45.606   5.200  13.004  0.00  0.00    +0.000 A 
ENDROOT
BRANCH   1   7
ATOM      7  C   UNL     1      47.053   3.863  14.591  0.00  0.00    +0.000 C 
BRANCH   7   8
ATOM      8  C   UNL     1      47.325   4.359  16.019  0.00  0.00    +0.000 C 
BRANCH   8   9
ATOM      9  N   UNL     1      46.759   3.443  17.009  0.00  0.00    +0.000 NA
ATOM     10  H   UNL     1      46.716   2.505  16.616  0.00  0.00    +0.000 HD
ATOM     11  H   UNL     1      45.797   3.709  17.214  0.00  0.00    +0.000 HD
ENDBRANCH   8   9
ENDBRANCH   7   8
ENDBRANCH   1   7
BRANCH   5  12
ATOM     12  C   UNL     1      44.210   6.198  11.150  0.00  0.00    +0.000 C 
BRANCH  12  13
ATOM     13  N   UNL     1      43.709   4.927  10.629  0.00  0.00    +0.000 N 
ATOM     14  C   UNL     1      43.002   4.066  11.444  0.00  0.00    +0.000 A 
ATOM     15  N   UNL     1      43.261   2.814  11.185  0.00  0.00    +0.000 NA
ATOM     16  C   UNL     1      44.131   2.841  10.122  0.00  0.00    +0.000 A 
ATOM     17  C   UNL     1      44.823   1.785   9.517  0.00  0.00    +0.000 A 
ATOM     18  C   UNL     1      45.655   2.061   8.427  0.00  0.00    +0.000 A 
ATOM     19  C   UNL     1      45.744   3.360   7.923  0.00  0.00    +0.000 A 
ATOM     20 CL   UNL     1      46.732   3.656   6.541  0.00  0.00    +0.000 Cl
ATOM     21  C   UNL     1      45.083   4.436   8.528  0.00  0.00    +0.000 A 
ATOM     22  C   UNL     1      44.323   4.147   9.669  0.00  0.00    +0.000 A 
ENDBRANCH  12  13
ENDBRANCH   5  12
TORSDOF 5
ENDMDL
MODEL 2
REMARK VINA RESULT:    -7.296      1.925      2.832
REMARK INTER + INTRA:          -9.612
REMARK INTER:                  -8.974
REMARK INTRA:                  -0.639
REMARK UNBOUND:                -0.396
REMARK  Name = 
REMARK  5 active torsions:
REMARK  status: ('A' for Active; 'I' for Inactive)
REMARK    1  A    between atoms: N_1  and  C_2
REMARK    2  A    between atoms: C_2  and  C_3
REMARK    3  A    between atoms: C_3  and  C_4
REMARK    4  A    between atoms: C_8  and  C_9
REMARK    5  A    between atoms: C_9  and  N_10
REMARK                            x       y       z     vdW  Elec       q    Type
REMARK                         _______ _______ _______ _____ _____    ______ ____
ROOT
ATOM      1  C   UNL     1      47.931   7.111  12.159  0.00  0.00    +0.000 A 
ATOM      2  C   UNL     1      48.161   6.347  13.307  0.00  0.00    +0.000 A 
ATOM      3  C   UNL     1      47.212   5.422  13.735  0.00  0.00    +0.000 A 
ATOM      4  C   UNL     1      46.012   5.275  13.038  0.00  0.00    +0.000 A 
ATOM      5  C   UNL     1      45.746   6.052  11.893  0.00  0.00    +0.000 A 
ATOM      6  C   UNL     1      46.727   6.945  11.448  0.00  0.00    +0.000 A 
ENDROOT
BRANCH   1   7
ATOM      7  C   UNL     1      48.924   8.168  11.729  0.00  0.00    +0.000 C 
BRANCH   7   8
ATOM      8  C   UNL     1      50.351   7.829  12.185  0.00  0.00    +0.000 C 
BRANCH   8   9
ATOM      9  N   UNL     1      51.159   7.344  11.067  0.00  0.00    +0.000 NA
ATOM     10  H   UNL     1      51.815   8.070  10.784  0.00  0.00    +0.000 HD
ATOM     11  H   UNL     1      50.562   7.171  10.260  0.00  0.00    +0.000 HD
ENDBRANCH   8   9
ENDBRANCH   7   8
ENDBRANCH   1   7
BRANCH   5  12
ATOM     12  C   UNL     1      44.355   6.086  11.325  0.00  0.00    +0.000 C 
BRANCH  12  13
ATOM     13  N   UNL     1      43.815   4.871  10.717  0.00  0.00    +0.000 N 
ATOM     14  C   UNL     1      43.080   3.978  11.469  0.00  0.00    +0.000 A 
ATOM     15  N   UNL     1      43.299   2.740  11.124  0.00  0.00    +0.000 NA
ATOM     16  C   UNL     1      44.172   2.814  10.066  0.00  0.00    +0.000 A 
ATOM     17  C   UNL     1      44.833   1.780   9.390  0.00  0.00    +0.000 A 
ATOM     18  C   UNL     1      45.676   2.105   8.322  0.00  0.00    +0.000 A 
ATOM     19  C   UNL     1      45.808   3.432   7.909  0.00  0.00    +0.000 A 
ATOM     20 CL   UNL     1      46.808   3.792   6.552  0.00  0.00    +0.000 Cl
ATOM     21  C   UNL     1      45.179   4.484   8.587  0.00  0.00    +0.000 A 
ATOM     22  C   UNL     1      44.407   4.141   9.705  0.00  0.00    +0.000 A 
ENDBRANCH  12  13
ENDBRANCH   5  12
TORSDOF 5
ENDMDL
MODEL 3
REMARK VINA RESULT:    -7.126      2.948      6.533
REMARK INTER + INTRA:          -9.397
REMARK INTER:                  -9.009
REMARK INTRA:                  -0.388
REMARK UNBOUND:                -0.396
REMARK  Name = 
REMARK  5 active torsions:
REMARK  status: ('A' for Active; 'I' for Inactive)
REMARK    1  A    between atoms: N_1  and  C_2
REMARK    2  A    between atoms: C_2  and  C_3
REMARK    3  A    between atoms: C_3  and  C_4
REMARK    4  A    between atoms: C_8  and  C_9
REMARK    5  A    between atoms: C_9  and  N_10
REMARK                            x       y       z     vdW  Elec       q    Type
REMARK                         _______ _______ _______ _____ _____    ______ ____
ROOT
ATOM      1  C   UNL     1      45.842   3.500   7.945  0.00  0.00    +0.000 A 
ATOM      2  C   UNL     1      45.093   2.378   8.313  0.00  0.00    +0.000 A 
ATOM      3  C   UNL     1      44.330   2.398   9.478  0.00  0.00    +0.000 A 
ATOM      4  C   UNL     1      44.334   3.525  10.301  0.00  0.00    +0.000 A 
ATOM      5  C   UNL     1      45.101   4.658   9.964  0.00  0.00    +0.000 A 
ATOM      6  C   UNL     1      45.828   4.642   8.767  0.00  0.00    +0.000 A 
ENDROOT
BRANCH   1   7
ATOM      7  C   UNL     1      46.729   3.461   6.720  0.00  0.00    +0.000 C 
BRANCH   7   8
ATOM      8  C   UNL     1      47.849   2.419   6.858  0.00  0.00    +0.000 C 
BRANCH   8   9
ATOM      9  N   UNL     1      48.358   2.018   5.547  0.00  0.00    +0.000 NA
ATOM     10  H   UNL     1      49.302   1.649   5.651  0.00  0.00    +0.000 HD
ATOM     11  H   UNL     1      48.438   2.835   4.944  0.00  0.00    +0.000 HD
ENDBRANCH   8   9
ENDBRANCH   7   8
ENDBRANCH   1   7
BRANCH   5  12
ATOM     12  C   UNL     1      45.318   5.739  10.985  0.00  0.00    +0.000 C 
BRANCH  12  13
ATOM     13  N   UNL     1      46.397   5.579  11.957  0.00  0.00    +0.000 N 
ATOM     14  C   UNL     1      46.208   4.820  13.095  0.00  0.00    +0.000 A 
ATOM     15  N   UNL     1      46.828   5.316  14.130  0.00  0.00    +0.000 NA
ATOM     16  C   UNL     1      47.499   6.415  13.652  0.00  0.00    +0.000 A 
ATOM     17  C   UNL     1      48.223   7.386  14.356  0.00  0.00    +0.000 A 
ATOM     18  C   UNL     1      48.836   8.419  13.640  0.00  0.00    +0.000 A 
ATOM     19  C   UNL     1      48.770   8.445  12.246  0.00  0.00    +0.000 A 
ATOM     20 CL   UNL     1      49.586   9.699  11.390  0.00  0.00    +0.000 Cl
ATOM     21  C   UNL     1      48.029   7.501  11.523  0.00  0.00    +0.000 A 
ATOM     22  C   UNL     1      47.354   6.525  12.268  0.00  0.00    +0.000 A 
ENDBRANCH  12  13
ENDBRANCH   5  12
TORSDOF 5
ENDMDL
MODEL 4
REMARK VINA RESULT:    -6.818      2.665      5.957
REMARK INTER + INTRA:          -9.008
REMARK INTER:                  -8.280
REMARK INTRA:                  -0.727
REMARK UNBOUND:                -0.396
REMARK  Name = 
REMARK  5 active torsions:
REMARK  status: ('A' for Active; 'I' for Inactive)
REMARK    1  A    between atoms: N_1  and  C_2
REMARK    2  A    between atoms: C_2  and  C_3
REMARK    3  A    between atoms: C_3  and  C_4
REMARK    4  A    between atoms: C_8  and  C_9
REMARK    5  A    between atoms: C_9  and  N_10
REMARK                            x       y       z     vdW  Elec       q    Type
REMARK                         _______ _______ _______ _____ _____    ______ ____
ROOT
ATOM      1  C   UNL     1      45.557   3.753   8.511  0.00  0.00    +0.000 A 
ATOM      2  C   UNL     1      45.474   2.427   8.946  0.00  0.00    +0.000 A 
ATOM      3  C   UNL     1      44.570   2.074   9.945  0.00  0.00    +0.000 A 
ATOM      4  C   UNL     1      43.766   3.047  10.539  0.00  0.00    +0.000 A 
ATOM      5  C   UNL     1      43.849   4.394  10.135  0.00  0.00    +0.000 A 
ATOM      6  C   UNL     1      44.729   4.728   9.099  0.00  0.00    +0.000 A 
ENDROOT
BRANCH   1   7
ATOM      7  C   UNL     1      46.586   4.157   7.477  0.00  0.00    +0.000 C 
BRANCH   7   8
ATOM      8  C   UNL     1      46.953   2.990   6.551  0.00  0.00    +0.000 C 
BRANCH   8   9
ATOM      9  N   UNL     1      48.393   2.737   6.569  0.00  0.00    +0.000 NA
ATOM     10  H   UNL     1      48.889   3.589   6.315  0.00  0.00    +0.000 HD
ATOM     11  H   UNL     1      48.631   2.046   5.859  0.00  0.00    +0.000 HD
ENDBRANCH   8   9
ENDBRANCH   7   8
ENDBRANCH   1   7
BRANCH   5  12
ATOM     12  C   UNL     1      43.192   5.461  10.965  0.00  0.00    +0.000 C 
BRANCH  12  13
ATOM     13  N   UNL     1      44.040   6.378  11.726  0.00  0.00    +0.000 N 
ATOM     14  C   UNL     1      44.266   7.662  11.274  0.00  0.00    +0.000 A 
ATOM     15  N   UNL     1      45.478   8.071  11.529  0.00  0.00    +0.000 NA
ATOM     16  C   UNL     1      46.063   7.042  12.226  0.00  0.00    +0.000 A 
ATOM     17  C   UNL     1      47.393   6.897  12.641  0.00  0.00    +0.000 A 
ATOM     18  C   UNL     1      47.754   5.751  13.356  0.00  0.00    +0.000 A 
ATOM     19  C   UNL     1      46.790   4.800  13.693  0.00  0.00    +0.000 A 
ATOM     20 CL   UNL     1      47.257   3.427  14.627  0.00  0.00    +0.000 Cl
ATOM     21  C   UNL     1      45.461   4.909  13.266  0.00  0.00    +0.000 A 
ATOM     22  C   UNL     1      45.142   6.024  12.479  0.00  0.00    +0.000 A 
ENDBRANCH  12  13
ENDBRANCH   5  12
TORSDOF 5
ENDMDL
MODEL 5
REMARK VINA RESULT:    -6.592      2.129      3.960
REMARK INTER + INTRA:          -8.723
REMARK INTER:                  -8.126
REMARK INTRA:                  -0.597
REMARK UNBOUND:                -0.396
REMARK  Name = 
REMARK  5 active torsions:
REMARK  status: ('A' for Active; 'I' for Inactive)
REMARK    1  A    between atoms: N_1  and  C_2
REMARK    2  A    between atoms: C_2  and  C_3
REMARK    3  A    between atoms: C_3  and  C_4
REMARK    4  A    between atoms: C_8  and  C_9
REMARK    5  A    between atoms: C_9  and  N_10
REMARK                            x       y       z     vdW  Elec       q    Type
REMARK                         _______ _______ _______ _____ _____    ______ ____
ROOT
ATOM      1  C   UNL     1      45.088   9.346  11.774  0.00  0.00    +0.000 A 
ATOM      2  C   UNL     1      46.383   9.835  11.976  0.00  0.00    +0.000 A 
ATOM      3  C   UNL     1      47.437   8.952  12.196  0.00  0.00    +0.000 A 
ATOM      4  C   UNL     1      47.203   7.578  12.247  0.00  0.00    +0.000 A 
ATOM      5  C   UNL     1      45.903   7.063  12.072  0.00  0.00    +0.000 A 
ATOM      6  C   UNL     1      44.860   7.958  11.807  0.00  0.00    +0.000 A 
ENDROOT
BRANCH   1   7
ATOM      7  C   UNL     1      43.926  10.301  11.607  0.00  0.00    +0.000 C 
BRANCH   7   8
ATOM      8  C   UNL     1      43.013   9.890  10.442  0.00  0.00    +0.000 C 
BRANCH   8   9
ATOM      9  N   UNL     1      41.653   9.625  10.909  0.00  0.00    +0.000 NA
ATOM     10  H   UNL     1      41.131   9.149  10.176  0.00  0.00    +0.000 HD
ATOM     11  H   UNL     1      41.168  10.506  11.076  0.00  0.00    +0.000 HD
ENDBRANCH   8   9
ENDBRANCH   7   8
ENDBRANCH   1   7
BRANCH   5  12
ATOM     12  C   UNL     1      45.621   5.625  12.406  0.00  0.00    +0.000 C 
BRANCH  12  13
ATOM     13  N   UNL     1      44.615   4.908  11.625  0.00  0.00    +0.000 N 
ATOM     14  C   UNL     1      43.632   4.172  12.255  0.00  0.00    +0.000 A 
ATOM     15  N   UNL     1      43.328   3.086  11.600  0.00  0.00    +0.000 NA
ATOM     16  C   UNL     1      44.100   3.127  10.464  0.00  0.00    +0.000 A 
ATOM     17  C   UNL     1      44.263   2.154   9.469  0.00  0.00    +0.000 A 
ATOM     18  C   UNL     1      45.105   2.433   8.387  0.00  0.00    +0.000 A 
ATOM     19  C   UNL     1      45.723   3.679   8.280  0.00  0.00    +0.000 A 
ATOM     20 CL   UNL     1      46.706   4.012   6.903  0.00  0.00    +0.000 Cl
ATOM     21  C   UNL     1      45.596   4.657   9.275  0.00  0.00    +0.000 A 
ATOM     22  C   UNL     1      44.816   4.323  10.389  0.00  0.00    +0.000 A 
ENDBRANCH  12  13
ENDBRANCH   5  12
TORSDOF 5
ENDMDL
MODEL 6
REMARK VINA RESULT:    -6.408      1.183      1.583
REMARK INTER + INTRA:          -8.491
REMARK INTER:                  -8.576
REMARK INTRA:                   0.085
REMARK UNBOUND:                -0.396
REMARK  Name = 
REMARK  5 active torsions:
REMARK  status: ('A' for Active; 'I' for Inactive)
REMARK    1  A    between atoms: N_1  and  C_2
REMARK    2  A    between atoms: C_2  and  C_3
REMARK    3  A    between atoms: C_3  and  C_4
REMARK    4  A    between atoms: C_8  and  C_9
REMARK    5  A    between atoms: C_9  and  N_10
REMARK                            x       y       z     vdW  Elec       q    Type
REMARK                         _______ _______ _______ _____ _____    ______ ____
ROOT
ATOM      1  C   UNL     1      47.557   5.220  14.851  0.00  0.00    +0.000 A 
ATOM      2  C   UNL     1      48.373   6.257  15.316  0.00  0.00    +0.000 A 
ATOM      3  C   UNL     1      48.485   7.439  14.589  0.00  0.00    +0.000 A 
ATOM      4  C   UNL     1      47.809   7.584  13.377  0.00  0.00    +0.000 A 
ATOM      5  C   UNL     1      47.001   6.544  12.876  0.00  0.00    +0.000 A 
ATOM      6  C   UNL     1      46.861   5.379  13.638  0.00  0.00    +0.000 A 
ENDROOT
BRANCH   1   7
ATOM      7  C   UNL     1      47.487   3.907  15.598  0.00  0.00    +0.000 C 
BRANCH   7   8
ATOM      8  C   UNL     1      47.104   4.108  17.072  0.00  0.00    +0.000 C 
BRANCH   8   9
ATOM      9  N   UNL     1      46.695   2.845  17.686  0.00  0.00    +0.000 NA
ATOM     10  H   UNL     1      47.053   2.069  17.131  0.00  0.00    +0.000 HD
ATOM     11  H   UNL     1      45.680   2.765  17.666  0.00  0.00    +0.000 HD
ENDBRANCH   8   9
ENDBRANCH   7   8
ENDBRANCH   1   7
BRANCH   5  12
ATOM     12  C   UNL     1      46.512   6.601  11.455  0.00  0.00    +0.000 C 
BRANCH  12  13
ATOM     13  N   UNL     1      45.282   5.893  11.108  0.00  0.00    +0.000 N 
ATOM     14  C   UNL     1      44.350   5.589  12.081  0.00  0.00    +0.000 A 
ATOM     15  N   UNL     1      43.775   4.437  11.874  0.00  0.00    +0.000 NA
ATOM     16  C   UNL     1      44.303   3.981  10.691  0.00  0.00    +0.000 A 
ATOM     17  C   UNL     1      44.129   2.741  10.063  0.00  0.00    +0.000 A 
ATOM     18  C   UNL     1      44.769   2.510   8.841  0.00  0.00    +0.000 A 
ATOM     19  C   UNL     1      45.521   3.520   8.239  0.00  0.00    +0.000 A 
ATOM     20 CL   UNL     1      46.248   3.221   6.704  0.00  0.00    +0.000 Cl
ATOM     21  C   UNL     1      45.731   4.757   8.861  0.00  0.00    +0.000 A 
ATOM     22  C   UNL     1      45.149   4.935  10.122  0.00  0.00    +0.000 A 
ENDBRANCH  12  13
ENDBRANCH   5  12
TORSDOF 5
ENDMDL
MODEL 7
REMARK VINA RESULT:    -6.373      2.223      3.577
REMARK INTER + INTRA:          -8.446
REMARK INTER:                  -7.980
REMARK INTRA:                  -0.465
REMARK UNBOUND:                -0.396
REMARK  Name = 
REMARK  5 active torsions:
REMARK  status: ('A' for Active; 'I' for Inactive)
REMARK    1  A    between atoms: N_1  and  C_2
REMARK    2  A    between atoms: C_2  and  C_3
REMARK    3  A    between atoms: C_3  and  C_4
REMARK    4  A    between atoms: C_8  and  C_9
REMARK    5  A    between atoms: C_9  and  N_10
REMARK                            x       y       z     vdW  Elec       q    Type
REMARK                         _______ _______ _______ _____ _____    ______ ____
ROOT
ATOM      1  C   UNL     1      44.788   4.751  13.024  0.00  0.00    +0.000 A 
ATOM      2  C   UNL     1      43.654   5.528  13.278  0.00  0.00    +0.000 A 
ATOM      3  C   UNL     1      42.635   5.610  12.332  0.00  0.00    +0.000 A 
ATOM      4  C   UNL     1      42.755   4.943  11.113  0.00  0.00    +0.000 A 
ATOM      5  C   UNL     1      43.900   4.174  10.823  0.00  0.00    +0.000 A 
ATOM      6  C   UNL     1      44.895   4.063  11.801  0.00  0.00    +0.000 A 
ENDROOT
BRANCH   1   7
ATOM      7  C   UNL     1      45.930   4.714  14.016  0.00  0.00    +0.000 C 
BRANCH   7   8
ATOM      8  C   UNL     1      46.939   3.605  13.685  0.00  0.00    +0.000 C 
BRANCH   8   9
ATOM      9  N   UNL     1      47.673   3.189  14.878  0.00  0.00    +0.000 NA
ATOM     10  H   UNL     1      48.541   3.718  14.942  0.00  0.00    +0.000 HD
ATOM     11  H   UNL     1      47.943   2.210  14.794  0.00  0.00    +0.000 HD
ENDBRANCH   8   9
ENDBRANCH   7   8
ENDBRANCH   1   7
BRANCH   5  12
ATOM     12  C   UNL     1      44.141   3.700   9.417  0.00  0.00    +0.000 C 
BRANCH  12  13
ATOM     13  N   UNL     1      45.505   3.727   8.893  0.00  0.00    +0.000 N 
ATOM     14  C   UNL     1      46.045   4.901   8.407  0.00  0.00    +0.000 A 
ATOM     15  N   UNL     1      46.825   4.702   7.381  0.00  0.00    +0.000 NA
ATOM     16  C   UNL     1      46.847   3.339   7.210  0.00  0.00    +0.000 A 
ATOM     17  C   UNL     1      47.428   2.585   6.182  0.00  0.00    +0.000 A 
ATOM     18  C   UNL     1      47.329   1.191   6.231  0.00  0.00    +0.000 A 
ATOM     19  C   UNL     1      46.709   0.568   7.315  0.00  0.00    +0.000 A 
ATOM     20 CL   UNL     1      46.656  -1.155   7.374  0.00  0.00    +0.000 Cl
ATOM     21  C   UNL     1      46.097   1.301   8.340  0.00  0.00    +0.000 A 
ATOM     22  C   UNL     1      46.137   2.696   8.226  0.00  0.00    +0.000 A 
ENDBRANCH  12  13
ENDBRANCH   5  12
TORSDOF 5
ENDMDL
MODEL 8
REMARK VINA RESULT:    -5.601      3.448      6.968
REMARK INTER + INTRA:          -7.471
REMARK INTER:                  -6.900
REMARK INTRA:                  -0.570
REMARK UNBOUND:                -0.396
REMARK  Name = 
REMARK  5 active torsions:
REMARK  status: ('A' for Active; 'I' for Inactive)
REMARK    1  A    between atoms: N_1  and  C_2
REMARK    2  A    between atoms: C_2  and  C_3
REMARK    3  A    between atoms: C_3  and  C_4
REMARK    4  A    between atoms: C_8  and  C_9
REMARK    5  A    between atoms: C_9  and  N_10
REMARK                            x       y       z     vdW  Elec       q    Type
REMARK                         _______ _______ _______ _____ _____    ______ ____
ROOT
ATOM      1  C   UNL     1      44.688   5.424  12.417  0.00  0.00    +0.000 A 
ATOM      2  C   UNL     1      44.232   6.640  11.897  0.00  0.00    +0.000 A 
ATOM      3  C   UNL     1      45.125   7.686  11.677  0.00  0.00    +0.000 A 
ATOM      4  C   UNL     1      46.474   7.537  12.004  0.00  0.00    +0.000 A 
ATOM      5  C   UNL     1      46.952   6.331  12.552  0.00  0.00    +0.000 A 
ATOM      6  C   UNL     1      46.053   5.272  12.725  0.00  0.00    +0.000 A 
ENDROOT
BRANCH   1   7
ATOM      7  C   UNL     1      43.713   4.309  12.724  0.00  0.00    +0.000 C 
BRANCH   7   8
ATOM      8  C   UNL     1      44.156   2.976  12.104  0.00  0.00    +0.000 C 
BRANCH   8   9
ATOM      9  N   UNL     1      43.002   2.186  11.676  0.00  0.00    +0.000 NA
ATOM     10  H   UNL     1      42.736   1.546  12.422  0.00  0.00    +0.000 HD
ATOM     11  H   UNL     1      43.258   1.604  10.880  0.00  0.00    +0.000 HD
ENDBRANCH   8   9
ENDBRANCH   7   8
ENDBRANCH   1   7
BRANCH   5  12
ATOM     12  C   UNL     1      48.329   6.282  13.154  0.00  0.00    +0.000 C 
BRANCH  12  13
ATOM     13  N   UNL     1      48.507   6.734  14.533  0.00  0.00    +0.000 N 
ATOM     14  C   UNL     1      49.370   7.771  14.824  0.00  0.00    +0.000 A 
ATOM     15  N   UNL     1      49.989   7.597  15.959  0.00  0.00    +0.000 NA
ATOM     16  C   UNL     1      49.479   6.427  16.468  0.00  0.00    +0.000 A 
ATOM     17  C   UNL     1      49.876   5.709  17.603  0.00  0.00    +0.000 A 
ATOM     18  C   UNL     1      49.188   4.536  17.931  0.00  0.00    +0.000 A 
ATOM     19  C   UNL     1      48.094   4.125  17.169  0.00  0.00    +0.000 A 
ATOM     20 CL   UNL     1      47.231   2.707  17.635  0.00  0.00    +0.000 Cl
ATOM     21  C   UNL     1      47.696   4.812  16.015  0.00  0.00    +0.000 A 
ATOM     22  C   UNL     1      48.453   5.936  15.659  0.00  0.00    +0.000 A 
ENDBRANCH  12  13
ENDBRANCH   5  12
TORSDOF 5
ENDMDL
MODEL 9
REMARK VINA RESULT:    -5.573      3.433      5.262
REMARK INTER + INTRA:          -7.436
REMARK INTER:                  -6.869
REMARK INTRA:                  -0.567
REMARK UNBOUND:                -0.396
REMARK  Name = 
REMARK  5 active torsions:
REMARK  status: ('A' for Active; 'I' for Inactive)
REMARK    1  A    between atoms: N_1  and  C_2
REMARK    2  A    between atoms: C_2  and  C_3
REMARK    3  A    between atoms: C_3  and  C_4
REMARK    4  A    between atoms: C_8  and  C_9
REMARK    5  A    between atoms: C_9  and  N_10
REMARK                            x       y       z     vdW  Elec       q    Type
REMARK                         _______ _______ _______ _____ _____    ______ ____
ROOT
ATOM      1  C   UNL     1      49.580   4.704  17.331  0.00  0.00    +0.000 A 
ATOM      2  C   UNL     1      50.942   5.011  17.400  0.00  0.00    +0.000 A 
ATOM      3  C   UNL     1      51.438   6.141  16.754  0.00  0.00    +0.000 A 
ATOM      4  C   UNL     1      50.584   6.955  16.010  0.00  0.00    +0.000 A 
ATOM      5  C   UNL     1      49.212   6.652  15.905  0.00  0.00    +0.000 A 
ATOM      6  C   UNL     1      48.718   5.539  16.596  0.00  0.00    +0.000 A 
ENDROOT
BRANCH   1   7
ATOM      7  C   UNL     1      49.046   3.440  17.970  0.00  0.00    +0.000 C 
BRANCH   7   8
ATOM      8  C   UNL     1      47.961   2.779  17.108  0.00  0.00    +0.000 C 
BRANCH   8   9
ATOM      9  N   UNL     1      46.655   2.852  17.760  0.00  0.00    +0.000 NA
ATOM     10  H   UNL     1      45.922   2.823  17.053  0.00  0.00    +0.000 HD
ATOM     11  H   UNL     1      46.556   3.749  18.234  0.00  0.00    +0.000 HD
ENDBRANCH   8   9
ENDBRANCH   7   8
ENDBRANCH   1   7
BRANCH   5  12
ATOM     12  C   UNL     1      48.369   7.365  14.885  0.00  0.00    +0.000 C 
BRANCH  12  13
ATOM     13  N   UNL     1      48.266   6.797  13.542  0.00  0.00    +0.000 N 
ATOM     14  C   UNL     1      48.967   7.353  12.491  0.00  0.00    +0.000 A 
ATOM     15  N   UNL     1      48.299   7.312  11.371  0.00  0.00    +0.000 NA
ATOM     16  C   UNL     1      47.132   6.655  11.677  0.00  0.00    +0.000 A 
ATOM     17  C   UNL     1      46.001   6.442  10.877  0.00  0.00    +0.000 A 
ATOM     18  C   UNL     1      44.925   5.726  11.411  0.00  0.00    +0.000 A 
ATOM     19  C   UNL     1      45.006   5.190  12.697  0.00  0.00    +0.000 A 
ATOM     20 CL   UNL     1      43.685   4.261  13.303  0.00  0.00    +0.000 Cl
ATOM     21  C   UNL     1      46.114   5.413  13.524  0.00  0.00    +0.000 A 
ATOM     22  C   UNL     1      47.143   6.204  12.997  0.00  0.00    +0.000 A 
ENDBRANCH  12  13
ENDBRANCH   5  12
TORSDOF 5
ENDMDL
