MODEL 1
REMARK VINA RESULT:    -8.091      0.000      0.000
REMARK INTER + INTRA:         -11.237
REMARK INTER:                 -10.693
REMARK INTRA:                  -0.544
REMARK UNBOUND:                -0.544
REMARK  Name = 
REMARK  6 active torsions:
REMARK  status: ('A' for Active; 'I' for Inactive)
REMARK    1  A    between atoms: C_2  and  C_4
REMARK    2  A    between atoms: C_8  and  C_9
REMARK    3  A    between atoms: C_9  and  O_10
REMARK    4  A    between atoms: O_10  and  C_11
REMARK    5  A    between atoms: C_15  and  N_16
REMARK    6  A    between atoms: C_19  and  N_20
REMARK                            x       y       z     vdW  Elec       q    Type
REMARK                         _______ _______ _______ _____ _____    ______ ____
ROOT
ATOM      1  C   UNL     1      44.762   4.520  12.128  0.00  0.00    +0.000 A 
ATOM      2  C   UNL     1      45.452   3.507  12.803  0.00  0.00    +0.000 A 
ATOM      3  C   UNL     1      46.567   3.868  13.555  0.00  0.00    +0.000 A 
ATOM      4  C   UNL     1      46.960   5.193  13.569  0.00  0.00    +0.000 A 
ATOM      5  C   UNL     1      46.247   6.151  12.847  0.00  0.00    +0.000 A 
ATOM      6  N   UNL     1      45.152   5.812  12.134  0.00  0.00    +0.000 NA
ENDROOT
BRANCH   5   7
ATOM      7  N   UNL     1      46.715   7.446  12.822  0.00  0.00    +0.000 N 
ATOM      8  C   UNL     1      45.811   8.546  13.093  0.00  0.00    +0.000 C 
ATOM      9  C   UNL     1      46.097   9.641  12.062  0.00  0.00    +0.000 C 
ATOM     10  C   UNL     1      47.580  10.049  12.049  0.00  0.00    +0.000 C 
ATOM     11  C   UNL     1      48.488   8.812  11.927  0.00  0.00    +0.000 C 
ATOM     12  C   UNL     1      48.141   7.721  12.943  0.00  0.00    +0.000 C 
BRANCH  10  13
ATOM     13  N   UNL     1      47.933  10.850  13.228  0.00  0.00    +0.000 NA
ATOM     14  H   UNL     1      48.882  10.638  13.534  0.00  0.00    +0.000 HD
ATOM     15  H   UNL     1      47.324  10.598  14.007  0.00  0.00    +0.000 HD
ENDBRANCH  10  13
ENDBRANCH   5   7
BRANCH   1  16
ATOM     16  O   UNL     1      43.695   4.162  11.319  0.00  0.00    +0.000 OA
BRANCH  16  17
ATOM     17  C   UNL     1      43.922   2.929  10.614  0.00  0.00    +0.000 C 
BRANCH  17  22
ATOM     18  C   UNL     1      46.482   2.255   7.843  0.00  0.00    +0.000 A 
ATOM     19  C   UNL     1      46.661   3.532   7.305  0.00  0.00    +0.000 A 
ATOM     20  C   UNL     1      46.003   4.623   7.870  0.00  0.00    +0.000 A 
ATOM     21  C   UNL     1      45.138   4.436   8.954  0.00  0.00    +0.000 A 
ATOM     22  C   UNL     1      44.927   3.157   9.495  0.00  0.00    +0.000 A 
ATOM     23  C   UNL     1      45.620   2.071   8.935  0.00  0.00    +0.000 A 
BRANCH  18  25
ATOM     24  N   UNL     1      46.737  -0.170   7.721  0.00  0.00    +0.000 N 
ATOM     25  C   UNL     1      47.113   1.055   7.226  0.00  0.00    +0.000 C 
ATOM     26  O   UNL     1      47.920   1.149   6.323  0.00  0.00    +0.000 OA
ATOM     27  H   UNL     1      47.137  -0.978   7.261  0.00  0.00    +0.000 HD
ATOM     28  H   UNL     1      45.925  -0.301   8.299  0.00  0.00    +0.000 HD
ENDBRANCH  18  25
ENDBRANCH  17  22
ENDBRANCH  16  17
ENDBRANCH   1  16
TORSDOF 6
ENDMDL
MODEL 2
REMARK VINA RESULT:    -7.610      2.757      4.263
REMARK INTER + INTRA:         -10.602
REMARK INTER:                  -9.788
REMARK INTRA:                  -0.813
REMARK UNBOUND:                -0.544
REMARK  Name = 
REMARK  6 active torsions:
REMARK  status: ('A' for Active; 'I' for Inactive)
REMARK    1  A    between atoms: C_2  and  C_4
REMARK    2  A    between atoms: C_8  and  C_9
REMARK    3  A    between atoms: C_9  and  O_10
REMARK    4  A    between atoms: O_10  and  C_11
REMARK    5  A    between atoms: C_15  and  N_16
REMARK    6  A    between atoms: C_19  and  N_20
REMARK                            x       y       z     vdW  Elec       q    Type
REMARK                         _______ _______ _______ _____ _____    ______ ____
ROOT
ATOM      1  C   UNL     1      46.189   5.665  12.389  0.00  0.00    +0.000 A 
ATOM      2  C   UNL     1      46.972   6.660  11.791  0.00  0.00    +0.000 A 
ATOM      3  C   UNL     1      48.109   7.089  12.469  0.00  0.00    +0.000 A 
ATOM      4  C   UNL     1      48.391   6.545  13.708  0.00  0.00    +0.000 A 
ATOM      5  C   UNL     1      47.552   5.579  14.265  0.00  0.00    +0.000 A 
ATOM      6  N   UNL     1      46.459   5.142  13.603  0.00  0.00    +0.000 NA
ENDROOT
BRANCH   5   7
ATOM      7  N   UNL     1      47.822   5.119  15.534  0.00  0.00    +0.000 N 
ATOM      8  C   UNL     1      48.535   5.964  16.473  0.00  0.00    +0.000 C 
ATOM      9  C   UNL     1      49.577   5.090  17.177  0.00  0.00    +0.000 C 
ATOM     10  C   UNL     1      48.946   3.845  17.822  0.00  0.00    +0.000 C 
ATOM     11  C   UNL     1      48.067   3.089  16.811  0.00  0.00    +0.000 C 
ATOM     12  C   UNL     1      47.070   4.003  16.093  0.00  0.00    +0.000 C 
BRANCH  10  13
ATOM     13  N   UNL     1      48.186   4.187  19.032  0.00  0.00    +0.000 NA
ATOM     14  H   UNL     1      47.249   4.505  18.788  0.00  0.00    +0.000 HD
ATOM     15  H   UNL     1      48.634   4.970  19.508  0.00  0.00    +0.000 HD
ENDBRANCH  10  13
ENDBRANCH   5   7
BRANCH   1  16
ATOM     16  O   UNL     1      45.017   5.283  11.757  0.00  0.00    +0.000 OA
BRANCH  16  17
ATOM     17  C   UNL     1      45.035   5.551  10.344  0.00  0.00    +0.000 C 
BRANCH  17  22
ATOM     18  C   UNL     1      46.236   2.912   7.837  0.00  0.00    +0.000 A 
ATOM     19  C   UNL     1      45.525   1.783   8.252  0.00  0.00    +0.000 A 
ATOM     20  C   UNL     1      44.615   1.881   9.303  0.00  0.00    +0.000 A 
ATOM     21  C   UNL     1      44.435   3.101   9.963  0.00  0.00    +0.000 A 
ATOM     22  C   UNL     1      45.156   4.243   9.576  0.00  0.00    +0.000 A 
ATOM     23  C   UNL     1      46.048   4.137   8.496  0.00  0.00    +0.000 A 
BRANCH  18  25
ATOM     24  N   UNL     1      47.083   3.637   5.665  0.00  0.00    +0.000 N 
ATOM     25  C   UNL     1      47.266   2.834   6.765  0.00  0.00    +0.000 C 
ATOM     26  O   UNL     1      48.230   2.101   6.856  0.00  0.00    +0.000 OA
ATOM     27  H   UNL     1      47.815   3.610   4.967  0.00  0.00    +0.000 HD
ATOM     28  H   UNL     1      46.436   4.406   5.651  0.00  0.00    +0.000 HD
ENDBRANCH  18  25
ENDBRANCH  17  22
ENDBRANCH  16  17
ENDBRANCH   1  16
TORSDOF 6
ENDMDL
MODEL 3
REMARK VINA RESULT:    -7.441      1.534      2.019
REMARK INTER + INTRA:         -10.378
REMARK INTER:                  -9.553
REMARK INTRA:                  -0.825
REMARK UNBOUND:                -0.544
REMARK  Name = 
REMARK  6 active torsions:
REMARK  status: ('A' for Active; 'I' for Inactive)
REMARK    1  A    between atoms: C_2  and  C_4
REMARK    2  A    between atoms: C_8  and  C_9
REMARK    3  A    between atoms: C_9  and  O_10
REMARK    4  A    between atoms: O_10  and  C_11
REMARK    5  A    between atoms: C_15  and  N_16
REMARK    6  A    between atoms: C_19  and  N_20
REMARK                            x       y       z     vdW  Elec       q    Type
REMARK                         _______ _______ _______ _____ _____    ______ ____
ROOT
ATOM      1  C   UNL     1      45.490   5.461  11.955  0.00  0.00    +0.000 A 
ATOM      2  C   UNL     1      45.624   4.538  12.999  0.00  0.00    +0.000 A 
ATOM      3  C   UNL     1      46.637   4.750  13.929  0.00  0.00    +0.000 A 
ATOM      4  C   UNL     1      47.481   5.831  13.761  0.00  0.00    +0.000 A 
ATOM      5  C   UNL     1      47.315   6.697  12.680  0.00  0.00    +0.000 A 
ATOM      6  N   UNL     1      46.320   6.511  11.785  0.00  0.00    +0.000 NA
ENDROOT
BRANCH   5   7
ATOM      7  N   UNL     1      48.222   7.717  12.502  0.00  0.00    +0.000 N 
ATOM      8  C   UNL     1      47.802   9.095  12.661  0.00  0.00    +0.000 C 
ATOM      9  C   UNL     1      48.411   9.898  11.508  0.00  0.00    +0.000 C 
ATOM     10  C   UNL     1      49.937   9.723  11.426  0.00  0.00    +0.000 C 
ATOM     11  C   UNL     1      50.320   8.233  11.431  0.00  0.00    +0.000 C 
ATOM     12  C   UNL     1      49.655   7.454  12.569  0.00  0.00    +0.000 C 
BRANCH  10  13
ATOM     13  N   UNL     1      50.625  10.449  12.502  0.00  0.00    +0.000 NA
ATOM     14  H   UNL     1      51.593  10.141  12.580  0.00  0.00    +0.000 HD
ATOM     15  H   UNL     1      50.188  10.229  13.397  0.00  0.00    +0.000 HD
ENDBRANCH  10  13
ENDBRANCH   5   7
BRANCH   1  16
ATOM     16  O   UNL     1      44.532   5.220  10.983  0.00  0.00    +0.000 OA
BRANCH  16  17
ATOM     17  C   UNL     1      45.051   5.347   9.647  0.00  0.00    +0.000 C 
BRANCH  17  22
ATOM     18  C   UNL     1      46.509   2.522   7.508  0.00  0.00    +0.000 A 
ATOM     19  C   UNL     1      45.904   1.396   8.073  0.00  0.00    +0.000 A 
ATOM     20  C   UNL     1      44.981   1.548   9.107  0.00  0.00    +0.000 A 
ATOM     21  C   UNL     1      44.684   2.824   9.600  0.00  0.00    +0.000 A 
ATOM     22  C   UNL     1      45.298   3.966   9.060  0.00  0.00    +0.000 A 
ATOM     23  C   UNL     1      46.204   3.800   7.999  0.00  0.00    +0.000 A 
BRANCH  18  25
ATOM     24  N   UNL     1      47.451   3.249   5.377  0.00  0.00    +0.000 N 
ATOM     25  C   UNL     1      47.550   2.397   6.450  0.00  0.00    +0.000 C 
ATOM     26  O   UNL     1      48.449   1.586   6.530  0.00  0.00    +0.000 OA
ATOM     27  H   UNL     1      48.191   3.187   4.690  0.00  0.00    +0.000 HD
ATOM     28  H   UNL     1      46.868   4.068   5.379  0.00  0.00    +0.000 HD
ENDBRANCH  18  25
ENDBRANCH  17  22
ENDBRANCH  16  17
ENDBRANCH   1  16
TORSDOF 6
ENDMDL
MODEL 4
REMARK VINA RESULT:    -7.263      1.438      2.101
REMARK INTER + INTRA:         -10.142
REMARK INTER:                  -9.683
REMARK INTRA:                  -0.459
REMARK UNBOUND:                -0.544
REMARK  Name = 
REMARK  6 active torsions:
REMARK  status: ('A' for Active; 'I' for Inactive)
REMARK    1  A    between atoms: C_2  and  C_4
REMARK    2  A    between atoms: C_8  and  C_9
REMARK    3  A    between atoms: C_9  and  O_10
REMARK    4  A    between atoms: O_10  and  C_11
REMARK    5  A    between atoms: C_15  and  N_16
REMARK    6  A    between atoms: C_19  and  N_20
REMARK                            x       y       z     vdW  Elec       q    Type
REMARK                         _______ _______ _______ _____ _____    ______ ____
ROOT
ATOM      1  C   UNL     1      44.621   4.441  11.954  0.00  0.00    +0.000 A 
ATOM      2  C   UNL     1      43.507   5.280  11.827  0.00  0.00    +0.000 A 
ATOM      3  C   UNL     1      43.701   6.648  11.993  0.00  0.00    +0.000 A 
ATOM      4  C   UNL     1      44.965   7.109  12.311  0.00  0.00    +0.000 A 
ATOM      5  C   UNL     1      46.027   6.217  12.457  0.00  0.00    +0.000 A 
ATOM      6  N   UNL     1      45.852   4.889  12.275  0.00  0.00    +0.000 NA
ENDROOT
BRANCH   5   7
ATOM      7  N   UNL     1      47.253   6.704  12.851  0.00  0.00    +0.000 N 
ATOM      8  C   UNL     1      48.078   5.935  13.762  0.00  0.00    +0.000 C 
ATOM      9  C   UNL     1      48.643   6.906  14.801  0.00  0.00    +0.000 C 
ATOM     10  C   UNL     1      49.381   8.087  14.147  0.00  0.00    +0.000 C 
ATOM     11  C   UNL     1      48.506   8.753  13.071  0.00  0.00    +0.000 C 
ATOM     12  C   UNL     1      47.920   7.745  12.079  0.00  0.00    +0.000 C 
BRANCH  10  13
ATOM     13  N   UNL     1      50.678   7.677  13.595  0.00  0.00    +0.000 NA
ATOM     14  H   UNL     1      50.821   6.676  13.721  0.00  0.00    +0.000 HD
ATOM     15  H   UNL     1      51.430   8.135  14.112  0.00  0.00    +0.000 HD
ENDBRANCH  10  13
ENDBRANCH   5   7
BRANCH   1  16
ATOM     16  O   UNL     1      44.426   3.072  11.862  0.00  0.00    +0.000 OA
BRANCH  16  17
ATOM     17  C   UNL     1      43.819   2.680  10.618  0.00  0.00    +0.000 C 
BRANCH  17  22
ATOM     18  C   UNL     1      46.411   2.110   7.853  0.00  0.00    +0.000 A 
ATOM     19  C   UNL     1      46.450   3.364   7.238  0.00  0.00    +0.000 A 
ATOM     20  C   UNL     1      45.686   4.412   7.746  0.00  0.00    +0.000 A 
ATOM     21  C   UNL     1      44.855   4.202   8.853  0.00  0.00    +0.000 A 
ATOM     22  C   UNL     1      44.785   2.943   9.472  0.00  0.00    +0.000 A 
ATOM     23  C   UNL     1      45.583   1.904   8.967  0.00  0.00    +0.000 A 
BRANCH  18  25
ATOM     24  N   UNL     1      46.736  -0.303   7.678  0.00  0.00    +0.000 N 
ATOM     25  C   UNL     1      47.160   0.947   7.300  0.00  0.00    +0.000 C 
ATOM     26  O   UNL     1      48.099   1.092   6.544  0.00  0.00    +0.000 OA
ATOM     27  H   UNL     1      47.222  -1.085   7.257  0.00  0.00    +0.000 HD
ATOM     28  H   UNL     1      45.844  -0.472   8.111  0.00  0.00    +0.000 HD
ENDBRANCH  18  25
ENDBRANCH  17  22
ENDBRANCH  16  17
ENDBRANCH   1  16
TORSDOF 6
ENDMDL
MODEL 5
REMARK VINA RESULT:    -7.253      4.066      7.832
REMARK INTER + INTRA:         -10.129
REMARK INTER:                  -9.273
REMARK INTRA:                  -0.856
REMARK UNBOUND:                -0.544
REMARK  Name = 
REMARK  6 active torsions:
REMARK  status: ('A' for Active; 'I' for Inactive)
REMARK    1  A    between atoms: C_2  and  C_4
REMARK    2  A    between atoms: C_8  and  C_9
REMARK    3  A    between atoms: C_9  and  O_10
REMARK    4  A    between atoms: O_10  and  C_11
REMARK    5  A    between atoms: C_15  and  N_16
REMARK    6  A    between atoms: C_19  and  N_20
REMARK                            x       y       z     vdW  Elec       q    Type
REMARK                         _______ _______ _______ _____ _____    ______ ____
ROOT
ATOM      1  C   UNL     1      47.743   6.910  14.058  0.00  0.00    +0.000 A 
ATOM      2  C   UNL     1      47.430   8.238  13.745  0.00  0.00    +0.000 A 
ATOM      3  C   UNL     1      46.235   8.485  13.075  0.00  0.00    +0.000 A 
ATOM      4  C   UNL     1      45.437   7.415  12.720  0.00  0.00    +0.000 A 
ATOM      5  C   UNL     1      45.820   6.111  13.033  0.00  0.00    +0.000 A 
ATOM      6  N   UNL     1      46.968   5.864  13.702  0.00  0.00    +0.000 NA
ENDROOT
BRANCH   5   7
ATOM      7  N   UNL     1      45.038   5.066  12.594  0.00  0.00    +0.000 N 
ATOM      8  C   UNL     1      45.642   3.776  12.321  0.00  0.00    +0.000 C 
ATOM      9  C   UNL     1      45.051   3.262  11.005  0.00  0.00    +0.000 C 
ATOM     10  C   UNL     1      43.513   3.231  11.035  0.00  0.00    +0.000 C 
ATOM     11  C   UNL     1      42.946   4.585  11.496  0.00  0.00    +0.000 C 
ATOM     12  C   UNL     1      43.594   5.088  12.789  0.00  0.00    +0.000 C 
BRANCH  10  13
ATOM     13  N   UNL     1      43.010   2.134  11.871  0.00  0.00    +0.000 NA
ATOM     14  H   UNL     1      42.262   1.633  11.393  0.00  0.00    +0.000 HD
ATOM     15  H   UNL     1      42.593   2.514  12.722  0.00  0.00    +0.000 HD
ENDBRANCH  10  13
ENDBRANCH   5   7
BRANCH   1  16
ATOM     16  O   UNL     1      48.963   6.646  14.659  0.00  0.00    +0.000 OA
BRANCH  16  17
ATOM     17  C   UNL     1      49.021   7.102  16.022  0.00  0.00    +0.000 C 
BRANCH  17  22
ATOM     18  C   UNL     1      49.230   3.574  17.505  0.00  0.00    +0.000 A 
ATOM     19  C   UNL     1      48.663   3.763  18.768  0.00  0.00    +0.000 A 
ATOM     20  C   UNL     1      48.160   5.013  19.125  0.00  0.00    +0.000 A 
ATOM     21  C   UNL     1      48.250   6.086  18.231  0.00  0.00    +0.000 A 
ATOM     22  C   UNL     1      48.836   5.923  16.965  0.00  0.00    +0.000 A 
ATOM     23  C   UNL     1      49.312   4.651  16.608  0.00  0.00    +0.000 A 
BRANCH  18  25
ATOM     24  N   UNL     1      50.852   1.795  17.907  0.00  0.00    +0.000 N 
ATOM     25  C   UNL     1      49.840   2.274  17.112  0.00  0.00    +0.000 C 
ATOM     26  O   UNL     1      49.459   1.658  16.137  0.00  0.00    +0.000 OA
ATOM     27  H   UNL     1      51.223   0.887  17.657  0.00  0.00    +0.000 HD
ATOM     28  H   UNL     1      51.039   2.151  18.829  0.00  0.00    +0.000 HD
ENDBRANCH  18  25
ENDBRANCH  17  22
ENDBRANCH  16  17
ENDBRANCH   1  16
TORSDOF 6
ENDMDL
MODEL 6
REMARK VINA RESULT:    -7.196      3.332      5.473
REMARK INTER + INTRA:         -10.054
REMARK INTER:                  -9.282
REMARK INTRA:                  -0.772
REMARK UNBOUND:                -0.544
REMARK  Name = 
REMARK  6 active torsions:
REMARK  status: ('A' for Active; 'I' for Inactive)
REMARK    1  A    between atoms: C_2  and  C_4
REMARK    2  A    between atoms: C_8  and  C_9
REMARK    3  A    between atoms: C_9  and  O_10
REMARK    4  A    between atoms: O_10  and  C_11
REMARK    5  A    between atoms: C_15  and  N_16
REMARK    6  A    between atoms: C_19  and  N_20
REMARK                            x       y       z     vdW  Elec       q    Type
REMARK                         _______ _______ _______ _____ _____    ______ ____
ROOT
ATOM      1  C   UNL     1      47.806   6.778  13.162  0.00  0.00    +0.000 A 
ATOM      2  C   UNL     1      48.301   8.078  13.316  0.00  0.00    +0.000 A 
ATOM      3  C   UNL     1      48.935   8.395  14.514  0.00  0.00    +0.000 A 
ATOM      4  C   UNL     1      49.013   7.432  15.502  0.00  0.00    +0.000 A 
ATOM      5  C   UNL     1      48.470   6.164  15.299  0.00  0.00    +0.000 A 
ATOM      6  N   UNL     1      47.873   5.841  14.131  0.00  0.00    +0.000 NA
ENDROOT
BRANCH   5   7
ATOM      7  N   UNL     1      48.497   5.257  16.334  0.00  0.00    +0.000 N 
ATOM      8  C   UNL     1      49.409   5.455  17.445  0.00  0.00    +0.000 C 
ATOM      9  C   UNL     1      50.044   4.099  17.764  0.00  0.00    +0.000 C 
ATOM     10  C   UNL     1      48.988   3.011  18.018  0.00  0.00    +0.000 C 
ATOM     11  C   UNL     1      47.956   2.971  16.878  0.00  0.00    +0.000 C 
ATOM     12  C   UNL     1      47.377   4.351  16.557  0.00  0.00    +0.000 C 
BRANCH  10  13
ATOM     13  N   UNL     1      48.332   3.185  19.320  0.00  0.00    +0.000 NA
ATOM     14  H   UNL     1      48.706   2.525  20.001  0.00  0.00    +0.000 HD
ATOM     15  H   UNL     1      47.339   2.969  19.235  0.00  0.00    +0.000 HD
ENDBRANCH  10  13
ENDBRANCH   5   7
BRANCH   1  16
ATOM     16  O   UNL     1      47.110   6.473  12.003  0.00  0.00    +0.000 OA
BRANCH  16  17
ATOM     17  C   UNL     1      45.707   6.777  12.102  0.00  0.00    +0.000 C 
BRANCH  17  22
ATOM     18  C   UNL     1      44.274   3.600  10.508  0.00  0.00    +0.000 A 
ATOM     19  C   UNL     1      43.532   3.062  11.564  0.00  0.00    +0.000 A 
ATOM     20  C   UNL     1      43.445   3.749  12.773  0.00  0.00    +0.000 A 
ATOM     21  C   UNL     1      44.124   4.961  12.942  0.00  0.00    +0.000 A 
ATOM     22  C   UNL     1      44.893   5.508  11.901  0.00  0.00    +0.000 A 
ATOM     23  C   UNL     1      44.948   4.819  10.678  0.00  0.00    +0.000 A 
BRANCH  18  25
ATOM     24  N   UNL     1      44.406   3.609   8.071  0.00  0.00    +0.000 N 
ATOM     25  C   UNL     1      44.447   2.865   9.225  0.00  0.00    +0.000 C 
ATOM     26  O   UNL     1      44.624   1.664   9.194  0.00  0.00    +0.000 OA
ATOM     27  H   UNL     1      44.573   3.104   7.210  0.00  0.00    +0.000 HD
ATOM     28  H   UNL     1      44.486   4.611   8.062  0.00  0.00    +0.000 HD
ENDBRANCH  18  25
ENDBRANCH  17  22
ENDBRANCH  16  17
ENDBRANCH   1  16
TORSDOF 6
ENDMDL
MODEL 7
REMARK VINA RESULT:    -7.093      4.014      8.074
REMARK INTER + INTRA:          -9.918
REMARK INTER:                  -9.101
REMARK INTRA:                  -0.816
REMARK UNBOUND:                -0.544
REMARK  Name = 
REMARK  6 active torsions:
REMARK  status: ('A' for Active; 'I' for Inactive)
REMARK    1  A    between atoms: C_2  and  C_4
REMARK    2  A    between atoms: C_8  and  C_9
REMARK    3  A    between atoms: C_9  and  O_10
REMARK    4  A    between atoms: O_10  and  C_11
REMARK    5  A    between atoms: C_15  and  N_16
REMARK    6  A    between atoms: C_19  and  N_20
REMARK                            x       y       z     vdW  Elec       q    Type
REMARK                         _______ _______ _______ _____ _____    ______ ____
ROOT
ATOM      1  C   UNL     1      47.843   6.958  13.709  0.00  0.00    +0.000 A 
ATOM      2  C   UNL     1      47.417   8.283  13.562  0.00  0.00    +0.000 A 
ATOM      3  C   UNL     1      46.120   8.503  13.108  0.00  0.00    +0.000 A 
ATOM      4  C   UNL     1      45.332   7.414  12.789  0.00  0.00    +0.000 A 
ATOM      5  C   UNL     1      45.827   6.117  12.926  0.00  0.00    +0.000 A 
ATOM      6  N   UNL     1      47.077   5.894  13.387  0.00  0.00    +0.000 NA
ENDROOT
BRANCH   5   7
ATOM      7  N   UNL     1      45.041   5.061  12.524  0.00  0.00    +0.000 N 
ATOM      8  C   UNL     1      45.643   3.767  12.270  0.00  0.00    +0.000 C 
ATOM      9  C   UNL     1      45.032   3.221  10.977  0.00  0.00    +0.000 C 
ATOM     10  C   UNL     1      43.495   3.187  11.033  0.00  0.00    +0.000 C 
ATOM     11  C   UNL     1      42.932   4.550  11.472  0.00  0.00    +0.000 C 
ATOM     12  C   UNL     1      43.599   5.085  12.742  0.00  0.00    +0.000 C 
BRANCH  10  13
ATOM     13  N   UNL     1      43.008   2.108  11.902  0.00  0.00    +0.000 NA
ATOM     14  H   UNL     1      43.592   1.278  11.804  0.00  0.00    +0.000 HD
ATOM     15  H   UNL     1      42.071   1.829  11.610  0.00  0.00    +0.000 HD
ENDBRANCH  10  13
ENDBRANCH   5   7
BRANCH   1  16
ATOM     16  O   UNL     1      49.155   6.728  14.090  0.00  0.00    +0.000 OA
BRANCH  16  17
ATOM     17  C   UNL     1      49.486   7.350  15.344  0.00  0.00    +0.000 C 
BRANCH  17  22
ATOM     18  C   UNL     1      49.320   4.382  17.763  0.00  0.00    +0.000 A 
ATOM     19  C   UNL     1      50.669   4.197  18.079  0.00  0.00    +0.000 A 
ATOM     20  C   UNL     1      51.630   5.064  17.560  0.00  0.00    +0.000 A 
ATOM     21  C   UNL     1      51.249   6.098  16.697  0.00  0.00    +0.000 A 
ATOM     22  C   UNL     1      49.901   6.287  16.350  0.00  0.00    +0.000 A 
ATOM     23  C   UNL     1      48.940   5.425  16.904  0.00  0.00    +0.000 A 
BRANCH  18  25
ATOM     24  N   UNL     1      48.338   3.052  19.558  0.00  0.00    +0.000 N 
ATOM     25  C   UNL     1      48.272   3.439  18.242  0.00  0.00    +0.000 C 
ATOM     26  O   UNL     1      47.394   3.032  17.508  0.00  0.00    +0.000 OA
ATOM     27  H   UNL     1      47.592   2.449  19.882  0.00  0.00    +0.000 HD
ATOM     28  H   UNL     1      48.899   3.528  20.242  0.00  0.00    +0.000 HD
ENDBRANCH  18  25
ENDBRANCH  17  22
ENDBRANCH  16  17
ENDBRANCH   1  16
TORSDOF 6
ENDMDL
MODEL 8
REMARK VINA RESULT:    -6.473      4.638      6.023
REMARK INTER + INTRA:          -9.099
REMARK INTER:                  -8.456
REMARK INTRA:                  -0.643
REMARK UNBOUND:                -0.544
REMARK  Name = 
REMARK  6 active torsions:
REMARK  status: ('A' for Active; 'I' for Inactive)
REMARK    1  A    between atoms: C_2  and  C_4
REMARK    2  A    between atoms: C_8  and  C_9
REMARK    3  A    between atoms: C_9  and  O_10
REMARK    4  A    between atoms: O_10  and  C_11
REMARK    5  A    between atoms: C_15  and  N_16
REMARK    6  A    between atoms: C_19  and  N_20
REMARK                            x       y       z     vdW  Elec       q    Type
REMARK                         _______ _______ _______ _____ _____    ______ ____
ROOT
ATOM      1  C   UNL     1      47.608   3.815  16.151  0.00  0.00    +0.000 A 
ATOM      2  C   UNL     1      48.358   2.648  16.339  0.00  0.00    +0.000 A 
ATOM      3  C   UNL     1      49.252   2.613  17.406  0.00  0.00    +0.000 A 
ATOM      4  C   UNL     1      49.385   3.735  18.200  0.00  0.00    +0.000 A 
ATOM      5  C   UNL     1      48.631   4.880  17.941  0.00  0.00    +0.000 A 
ATOM      6  N   UNL     1      47.746   4.915  16.921  0.00  0.00    +0.000 NA
ENDROOT
BRANCH   5   7
ATOM      7  N   UNL     1      48.848   6.004  18.705  0.00  0.00    +0.000 N 
ATOM      8  C   UNL     1      49.998   6.068  19.588  0.00  0.00    +0.000 C 
ATOM      9  C   UNL     1      49.523   6.657  20.919  0.00  0.00    +0.000 C 
ATOM     10  C   UNL     1      48.812   8.008  20.732  0.00  0.00    +0.000 C 
ATOM     11  C   UNL     1      47.714   7.907  19.659  0.00  0.00    +0.000 C 
ATOM     12  C   UNL     1      48.214   7.270  18.359  0.00  0.00    +0.000 C 
BRANCH  10  13
ATOM     13  N   UNL     1      49.762   9.082  20.417  0.00  0.00    +0.000 NA
ATOM     14  H   UNL     1      49.267   9.949  20.208  0.00  0.00    +0.000 HD
ATOM     15  H   UNL     1      50.280   8.844  19.570  0.00  0.00    +0.000 HD
ENDBRANCH  10  13
ENDBRANCH   5   7
BRANCH   1  16
ATOM     16  O   UNL     1      46.770   3.887  15.050  0.00  0.00    +0.000 OA
BRANCH  16  17
ATOM     17  C   UNL     1      47.016   5.050  14.240  0.00  0.00    +0.000 C 
BRANCH  17  22
ATOM     18  C   UNL     1      44.428   4.043  11.599  0.00  0.00    +0.000 A 
ATOM     19  C   UNL     1      43.890   5.282  11.242  0.00  0.00    +0.000 A 
ATOM     20  C   UNL     1      44.397   6.450  11.808  0.00  0.00    +0.000 A 
ATOM     21  C   UNL     1      45.424   6.381  12.757  0.00  0.00    +0.000 A 
ATOM     22  C   UNL     1      45.964   5.144  13.145  0.00  0.00    +0.000 A 
ATOM     23  C   UNL     1      45.463   3.977  12.545  0.00  0.00    +0.000 A 
BRANCH  18  25
ATOM     24  N   UNL     1      44.489   2.227   9.969  0.00  0.00    +0.000 N 
ATOM     25  C   UNL     1      43.869   2.769  11.068  0.00  0.00    +0.000 C 
ATOM     26  O   UNL     1      42.913   2.226  11.584  0.00  0.00    +0.000 OA
ATOM     27  H   UNL     1      44.129   1.337   9.648  0.00  0.00    +0.000 HD
ATOM     28  H   UNL     1      45.399   2.516   9.655  0.00  0.00    +0.000 HD
ENDBRANCH  18  25
ENDBRANCH  17  22
ENDBRANCH  16  17
ENDBRANCH   1  16
TORSDOF 6
ENDMDL
MODEL 9
REMARK VINA RESULT:    -6.201      3.941      5.202
REMARK INTER + INTRA:          -8.739
REMARK INTER:                  -7.938
REMARK INTRA:                  -0.801
REMARK UNBOUND:                -0.544
REMARK  Name = 
REMARK  6 active torsions:
REMARK  status: ('A' for Active; 'I' for Inactive)
REMARK    1  A    between atoms: C_2  and  C_4
REMARK    2  A    between atoms: C_8  and  C_9
REMARK    3  A    between atoms: C_9  and  O_10
REMARK    4  A    between atoms: O_10  and  C_11
REMARK    5  A    between atoms: C_15  and  N_16
REMARK    6  A    between atoms: C_19  and  N_20
REMARK                            x       y       z     vdW  Elec       q    Type
REMARK                         _______ _______ _______ _____ _____    ______ ____
ROOT
ATOM      1  C   UNL     1      47.636   5.551  14.015  0.00  0.00    +0.000 A 
ATOM      2  C   UNL     1      47.114   4.255  14.107  0.00  0.00    +0.000 A 
ATOM      3  C   UNL     1      47.182   3.612  15.340  0.00  0.00    +0.000 A 
ATOM      4  C   UNL     1      47.790   4.262  16.397  0.00  0.00    +0.000 A 
ATOM      5  C   UNL     1      48.320   5.541  16.232  0.00  0.00    +0.000 A 
ATOM      6  N   UNL     1      48.238   6.181  15.044  0.00  0.00    +0.000 NA
ENDROOT
BRANCH   5   7
ATOM      7  N   UNL     1      48.987   6.124  17.286  0.00  0.00    +0.000 N 
ATOM      8  C   UNL     1      50.035   5.393  17.971  0.00  0.00    +0.000 C 
ATOM      9  C   UNL     1      49.837   5.607  19.474  0.00  0.00    +0.000 C 
ATOM     10  C   UNL     1      49.782   7.099  19.843  0.00  0.00    +0.000 C 
ATOM     11  C   UNL     1      48.767   7.846  18.960  0.00  0.00    +0.000 C 
ATOM     12  C   UNL     1      48.967   7.571  17.467  0.00  0.00    +0.000 C 
BRANCH  10  13
ATOM     13  N   UNL     1      51.108   7.725  19.770  0.00  0.00    +0.000 NA
ATOM     14  H   UNL     1      51.597   7.431  18.925  0.00  0.00    +0.000 HD
ATOM     15  H   UNL     1      51.681   7.405  20.551  0.00  0.00    +0.000 HD
ENDBRANCH  10  13
ENDBRANCH   5   7
BRANCH   1  16
ATOM     16  O   UNL     1      47.639   6.171  12.776  0.00  0.00    +0.000 OA
BRANCH  16  17
ATOM     17  C   UNL     1      46.483   7.003  12.568  0.00  0.00    +0.000 C 
BRANCH  17  22
ATOM     18  C   UNL     1      44.603   4.778  10.078  0.00  0.00    +0.000 A 
ATOM     19  C   UNL     1      43.409   4.532  10.762  0.00  0.00    +0.000 A 
ATOM     20  C   UNL     1      43.182   5.128  12.001  0.00  0.00    +0.000 A 
ATOM     21  C   UNL     1      44.162   5.947  12.575  0.00  0.00    +0.000 A 
ATOM     22  C   UNL     1      45.377   6.189  11.914  0.00  0.00    +0.000 A 
ATOM     23  C   UNL     1      45.580   5.606  10.653  0.00  0.00    +0.000 A 
BRANCH  18  25
ATOM     24  N   UNL     1      44.261   2.926   8.525  0.00  0.00    +0.000 N 
ATOM     25  C   UNL     1      44.912   4.107   8.785  0.00  0.00    +0.000 C 
ATOM     26  O   UNL     1      45.698   4.581   7.990  0.00  0.00    +0.000 OA
ATOM     27  H   UNL     1      44.443   2.506   7.623  0.00  0.00    +0.000 HD
ATOM     28  H   UNL     1      43.453   2.621   9.040  0.00  0.00    +0.000 HD
ENDBRANCH  18  25
ENDBRANCH  17  22
ENDBRANCH  16  17
ENDBRANCH   1  16
TORSDOF 6
ENDMDL
