MODEL 1
REMARK VINA RESULT:    -7.793      0.000      0.000
REMARK INTER + INTRA:         -11.424
REMARK INTER:                 -10.755
REMARK INTRA:                  -0.669
REMARK UNBOUND:                -0.669
REMARK  Name = 
REMARK  7 active torsions:
REMARK  status: ('A' for Active; 'I' for Inactive)
REMARK    1  A    between atoms: N_1  and  C_2
REMARK    2  A    between atoms: C_2  and  C_3
REMARK    3  A    between atoms: C_3  and  O_4
REMARK    4  A    between atoms: O_4  and  C_5
REMARK    5  A    between atoms: N_13  and  C_14
REMARK    6  A    between atoms: C_14  and  C_15
REMARK    7  A    between atoms: C_18  and  C_19
REMARK                            x       y       z     vdW  Elec       q    Type
REMARK                         _______ _______ _______ _____ _____    ______ ____
ROOT
ATOM      1  C   UNL     1      46.691   4.762  14.357  0.00  0.00    +0.000 A 
ATOM      2  N   UNL     1      47.711   5.561  13.971  0.00  0.00    +0.000 NA
ATOM      3  C   UNL     1      47.645   6.099  12.740  0.00  0.00    +0.000 A 
ATOM      4  N   UNL     1      46.685   5.946  11.810  0.00  0.00    +0.000 NA
ATOM      5  C   UNL     1      45.695   5.142  12.244  0.00  0.00    +0.000 A 
ATOM      6  C   UNL     1      45.627   4.526  13.485  0.00  0.00    +0.000 A 
ATOM      7  C   UNL     1      44.419   3.779  13.518  0.00  0.00    +0.000 A 
ATOM      8  C   UNL     1      43.786   3.959  12.306  0.00  0.00    +0.000 A 
ATOM      9  N   UNL     1      44.572   4.782  11.533  0.00  0.00    +0.000 N 
ENDROOT
BRANCH   1  10
ATOM     10  O   UNL     1      46.740   4.116  15.576  0.00  0.00    +0.000 OA
BRANCH  10  11
ATOM     11  C   UNL     1      47.700   4.692  16.466  0.00  0.00    +0.000 C 
BRANCH  11  12
ATOM     12  C   UNL     1      47.779   3.824  17.731  0.00  0.00    +0.000 C 
BRANCH  12  13
ATOM     13  N   UNL     1      46.696   2.836  17.800  0.00  0.00    +0.000 NA
ATOM     14  H   UNL     1      46.330   2.802  18.749  0.00  0.00    +0.000 HD
ATOM     15  H   UNL     1      47.097   1.914  17.614  0.00  0.00    +0.000 HD
ENDBRANCH  12  13
ENDBRANCH  11  12
ENDBRANCH  10  11
ENDBRANCH   1  10
BRANCH   9  16
ATOM     16  C   UNL     1      44.284   5.159  10.152  0.00  0.00    +0.000 C 
BRANCH  16  17
ATOM     17  C   UNL     1      45.025   4.288   9.173  0.00  0.00    +0.000 A 
ATOM     18  C   UNL     1      44.846   2.901   9.156  0.00  0.00    +0.000 A 
ATOM     19  C   UNL     1      45.626   2.111   8.319  0.00  0.00    +0.000 A 
ATOM     20  C   UNL     1      46.552   2.740   7.500  0.00  0.00    +0.000 A 
ATOM     21  N   UNL     1      46.712   4.092   7.434  0.00  0.00    +0.000 NA
ATOM     22  C   UNL     1      45.942   4.827   8.272  0.00  0.00    +0.000 A 
BRANCH  20  23
ATOM     23  C   UNL     1      47.487   1.906   6.678  0.00  0.00    +0.000 C 
ATOM     24  N   UNL     1      48.557   2.567   6.143  0.00  0.00    +0.000 N 
ATOM     25  O   UNL     1      47.326   0.703   6.509  0.00  0.00    +0.000 OA
ATOM     26  H   UNL     1      48.688   3.553   6.345  0.00  0.00    +0.000 HD
ATOM     27  H   UNL     1      49.259   2.047   5.639  0.00  0.00    +0.000 HD
ENDBRANCH  20  23
ENDBRANCH  16  17
ENDBRANCH   9  16
TORSDOF 7
ENDMDL
MODEL 2
REMARK VINA RESULT:    -7.737      1.744      2.228
REMARK INTER + INTRA:         -11.347
REMARK INTER:                 -10.478
REMARK INTRA:                  -0.869
REMARK UNBOUND:                -0.669
REMARK  Name = 
REMARK  7 active torsions:
REMARK  status: ('A' for Active; 'I' for Inactive)
REMARK    1  A    between atoms: N_1  and  C_2
REMARK    2  A    between atoms: C_2  and  C_3
REMARK    3  A    between atoms: C_3  and  O_4
REMARK    4  A    between atoms: O_4  and  C_5
REMARK    5  A    between atoms: N_13  and  C_14
REMARK    6  A    between atoms: C_14  and  C_15
REMARK    7  A    between atoms: C_18  and  C_19
REMARK                            x       y       z     vdW  Elec       q    Type
REMARK                         _______ _______ _______ _____ _____    ______ ____
ROOT
ATOM      1  C   UNL     1      47.356   5.968  13.996  0.00  0.00    +0.000 A 
ATOM      2  N   UNL     1      47.555   4.711  14.452  0.00  0.00    +0.000 NA
ATOM      3  C   UNL     1      46.878   3.717  13.848  0.00  0.00    +0.000 A 
ATOM      4  N   UNL     1      46.004   3.800  12.829  0.00  0.00    +0.000 NA
ATOM      5  C   UNL     1      45.842   5.071  12.413  0.00  0.00    +0.000 A 
ATOM      6  C   UNL     1      46.475   6.189  12.936  0.00  0.00    +0.000 A 
ATOM      7  C   UNL     1      46.017   7.314  12.201  0.00  0.00    +0.000 A 
ATOM      8  C   UNL     1      45.124   6.857  11.254  0.00  0.00    +0.000 A 
ATOM      9  N   UNL     1      45.016   5.492  11.395  0.00  0.00    +0.000 N 
ENDROOT
BRANCH   1  10
ATOM     10  O   UNL     1      47.958   7.037  14.627  0.00  0.00    +0.000 OA
BRANCH  10  11
ATOM     11  C   UNL     1      49.377   7.060  14.440  0.00  0.00    +0.000 C 
BRANCH  11  12
ATOM     12  C   UNL     1      50.054   6.988  15.816  0.00  0.00    +0.000 C 
BRANCH  12  13
ATOM     13  N   UNL     1      49.935   5.660  16.430  0.00  0.00    +0.000 NA
ATOM     14  H   UNL     1      50.822   5.407  16.859  0.00  0.00    +0.000 HD
ATOM     15  H   UNL     1      49.772   4.981  15.684  0.00  0.00    +0.000 HD
ENDBRANCH  12  13
ENDBRANCH  11  12
ENDBRANCH  10  11
ENDBRANCH   1  10
BRANCH   9  16
ATOM     16  C   UNL     1      44.115   4.640  10.624  0.00  0.00    +0.000 C 
BRANCH  16  17
ATOM     17  C   UNL     1      44.856   3.861   9.570  0.00  0.00    +0.000 A 
ATOM     18  C   UNL     1      44.836   2.463   9.555  0.00  0.00    +0.000 A 
ATOM     19  C   UNL     1      45.619   1.768   8.638  0.00  0.00    +0.000 A 
ATOM     20  C   UNL     1      46.385   2.500   7.743  0.00  0.00    +0.000 A 
ATOM     21  N   UNL     1      46.382   3.862   7.678  0.00  0.00    +0.000 NA
ATOM     22  C   UNL     1      45.615   4.502   8.593  0.00  0.00    +0.000 A 
BRANCH  20  23
ATOM     23  C   UNL     1      47.327   1.779   6.828  0.00  0.00    +0.000 C 
ATOM     24  N   UNL     1      48.365   2.524   6.339  0.00  0.00    +0.000 N 
ATOM     25  O   UNL     1      47.199   0.594   6.546  0.00  0.00    +0.000 OA
ATOM     26  H   UNL     1      48.470   3.489   6.634  0.00  0.00    +0.000 HD
ATOM     27  H   UNL     1      49.071   2.077   5.775  0.00  0.00    +0.000 HD
ENDBRANCH  20  23
ENDBRANCH  16  17
ENDBRANCH   9  16
TORSDOF 7
ENDMDL
MODEL 3
REMARK VINA RESULT:    -7.489      1.297      1.699
REMARK INTER + INTRA:         -11.003
REMARK INTER:                 -10.247
REMARK INTRA:                  -0.757
REMARK UNBOUND:                -0.669
REMARK  Name = 
REMARK  7 active torsions:
REMARK  status: ('A' for Active; 'I' for Inactive)
REMARK    1  A    between atoms: N_1  and  C_2
REMARK    2  A    between atoms: C_2  and  C_3
REMARK    3  A    between atoms: C_3  and  O_4
REMARK    4  A    between atoms: O_4  and  C_5
REMARK    5  A    between atoms: N_13  and  C_14
REMARK    6  A    between atoms: C_14  and  C_15
REMARK    7  A    between atoms: C_18  and  C_19
REMARK                            x       y       z     vdW  Elec       q    Type
REMARK                         _______ _______ _______ _____ _____    ______ ____
ROOT
ATOM      1  C   UNL     1      47.161   5.190  14.406  0.00  0.00    +0.000 A 
ATOM      2  N   UNL     1      47.327   3.866  14.623  0.00  0.00    +0.000 NA
ATOM      3  C   UNL     1      46.673   3.017  13.810  0.00  0.00    +0.000 A 
ATOM      4  N   UNL     1      45.849   3.307  12.786  0.00  0.00    +0.000 NA
ATOM      5  C   UNL     1      45.718   4.636  12.613  0.00  0.00    +0.000 A 
ATOM      6  C   UNL     1      46.333   5.623  13.368  0.00  0.00    +0.000 A 
ATOM      7  C   UNL     1      45.920   6.876  12.841  0.00  0.00    +0.000 A 
ATOM      8  C   UNL     1      45.069   6.622  11.785  0.00  0.00    +0.000 A 
ATOM      9  N   UNL     1      44.944   5.257  11.658  0.00  0.00    +0.000 N 
ENDROOT
BRANCH   1  10
ATOM     10  O   UNL     1      47.740   6.110  15.256  0.00  0.00    +0.000 OA
BRANCH  10  11
ATOM     11  C   UNL     1      48.596   5.499  16.227  0.00  0.00    +0.000 C 
BRANCH  11  12
ATOM     12  C   UNL     1      47.951   5.650  17.612  0.00  0.00    +0.000 C 
BRANCH  12  13
ATOM     13  N   UNL     1      46.813   4.742  17.802  0.00  0.00    +0.000 NA
ATOM     14  H   UNL     1      46.231   4.752  16.968  0.00  0.00    +0.000 HD
ATOM     15  H   UNL     1      46.236   5.114  18.560  0.00  0.00    +0.000 HD
ENDBRANCH  12  13
ENDBRANCH  11  12
ENDBRANCH  10  11
ENDBRANCH   1  10
BRANCH   9  16
ATOM     16  C   UNL     1      44.075   4.583  10.698  0.00  0.00    +0.000 C 
BRANCH  16  17
ATOM     17  C   UNL     1      44.864   3.961   9.577  0.00  0.00    +0.000 A 
ATOM     18  C   UNL     1      44.916   2.573   9.410  0.00  0.00    +0.000 A 
ATOM     19  C   UNL     1      45.743   2.023   8.435  0.00  0.00    +0.000 A 
ATOM     20  C   UNL     1      46.478   2.885   7.636  0.00  0.00    +0.000 A 
ATOM     21  N   UNL     1      46.404   4.244   7.718  0.00  0.00    +0.000 NA
ATOM     22  C   UNL     1      45.598   4.742   8.686  0.00  0.00    +0.000 A 
BRANCH  20  23
ATOM     23  C   UNL     1      47.463   2.317   6.662  0.00  0.00    +0.000 C 
ATOM     24  N   UNL     1      47.532   2.949   5.451  0.00  0.00    +0.000 N 
ATOM     25  O   UNL     1      48.184   1.363   6.929  0.00  0.00    +0.000 OA
ATOM     26  H   UNL     1      46.958   3.768   5.281  0.00  0.00    +0.000 HD
ATOM     27  H   UNL     1      48.226   2.657   4.779  0.00  0.00    +0.000 HD
ENDBRANCH  20  23
ENDBRANCH  16  17
ENDBRANCH   9  16
TORSDOF 7
ENDMDL
MODEL 4
REMARK VINA RESULT:    -6.369      2.704      7.188
REMARK INTER + INTRA:          -9.459
REMARK INTER:                  -8.812
REMARK INTRA:                  -0.647
REMARK UNBOUND:                -0.669
REMARK  Name = 
REMARK  7 active torsions:
REMARK  status: ('A' for Active; 'I' for Inactive)
REMARK    1  A    between atoms: N_1  and  C_2
REMARK    2  A    between atoms: C_2  and  C_3
REMARK    3  A    between atoms: C_3  and  O_4
REMARK    4  A    between atoms: O_4  and  C_5
REMARK    5  A    between atoms: N_13  and  C_14
REMARK    6  A    between atoms: C_14  and  C_15
REMARK    7  A    between atoms: C_18  and  C_19
REMARK                            x       y       z     vdW  Elec       q    Type
REMARK                         _______ _______ _______ _____ _____    ______ ____
ROOT
ATOM      1  C   UNL     1      44.418   2.965   9.662  0.00  0.00    +0.000 A 
ATOM      2  N   UNL     1      43.667   2.224  10.508  0.00  0.00    +0.000 NA
ATOM      3  C   UNL     1      43.433   2.728  11.733  0.00  0.00    +0.000 A 
ATOM      4  N   UNL     1      43.856   3.895  12.253  0.00  0.00    +0.000 NA
ATOM      5  C   UNL     1      44.598   4.593  11.371  0.00  0.00    +0.000 A 
ATOM      6  C   UNL     1      44.915   4.201  10.079  0.00  0.00    +0.000 A 
ATOM      7  C   UNL     1      45.707   5.233   9.509  0.00  0.00    +0.000 A 
ATOM      8  C   UNL     1      45.852   6.220  10.462  0.00  0.00    +0.000 A 
ATOM      9  N   UNL     1      45.182   5.819  11.595  0.00  0.00    +0.000 N 
ENDROOT
BRANCH   1  10
ATOM     10  O   UNL     1      44.761   2.466   8.422  0.00  0.00    +0.000 OA
BRANCH  10  11
ATOM     11  C   UNL     1      45.980   1.718   8.448  0.00  0.00    +0.000 C 
BRANCH  11  12
ATOM     12  C   UNL     1      46.908   2.256   7.349  0.00  0.00    +0.000 C 
BRANCH  12  13
ATOM     13  N   UNL     1      47.944   1.289   6.967  0.00  0.00    +0.000 NA
ATOM     14  H   UNL     1      48.296   1.519   6.040  0.00  0.00    +0.000 HD
ATOM     15  H   UNL     1      47.503   0.370   6.886  0.00  0.00    +0.000 HD
ENDBRANCH  12  13
ENDBRANCH  11  12
ENDBRANCH  10  11
ENDBRANCH   1  10
BRANCH   9  16
ATOM     16  C   UNL     1      45.153   6.557  12.854  0.00  0.00    +0.000 C 
BRANCH  16  17
ATOM     17  C   UNL     1      46.526   7.027  13.253  0.00  0.00    +0.000 A 
ATOM     18  C   UNL     1      46.875   8.380  13.193  0.00  0.00    +0.000 A 
ATOM     19  C   UNL     1      48.183   8.771  13.460  0.00  0.00    +0.000 A 
ATOM     20  C   UNL     1      49.102   7.792  13.806  0.00  0.00    +0.000 A 
ATOM     21  N   UNL     1      48.790   6.472  13.944  0.00  0.00    +0.000 NA
ATOM     22  C   UNL     1      47.509   6.129  13.665  0.00  0.00    +0.000 A 
BRANCH  20  23
ATOM     23  C   UNL     1      50.541   8.170  13.981  0.00  0.00    +0.000 C 
ATOM     24  N   UNL     1      51.264   7.376  14.828  0.00  0.00    +0.000 N 
ATOM     25  O   UNL     1      51.056   9.112  13.390  0.00  0.00    +0.000 OA
ATOM     26  H   UNL     1      50.820   6.573  15.261  0.00  0.00    +0.000 HD
ATOM     27  H   UNL     1      52.254   7.537  14.933  0.00  0.00    +0.000 HD
ENDBRANCH  20  23
ENDBRANCH  16  17
ENDBRANCH   9  16
TORSDOF 7
ENDMDL
MODEL 5
REMARK VINA RESULT:    -5.855      3.820      6.666
REMARK INTER + INTRA:          -8.750
REMARK INTER:                  -7.876
REMARK INTRA:                  -0.874
REMARK UNBOUND:                -0.669
REMARK  Name = 
REMARK  7 active torsions:
REMARK  status: ('A' for Active; 'I' for Inactive)
REMARK    1  A    between atoms: N_1  and  C_2
REMARK    2  A    between atoms: C_2  and  C_3
REMARK    3  A    between atoms: C_3  and  O_4
REMARK    4  A    between atoms: O_4  and  C_5
REMARK    5  A    between atoms: N_13  and  C_14
REMARK    6  A    between atoms: C_14  and  C_15
REMARK    7  A    between atoms: C_18  and  C_19
REMARK                            x       y       z     vdW  Elec       q    Type
REMARK                         _______ _______ _______ _____ _____    ______ ____
ROOT
ATOM      1  C   UNL     1      45.162   3.952  12.075  0.00  0.00    +0.000 A 
ATOM      2  N   UNL     1      45.887   3.093  12.827  0.00  0.00    +0.000 NA
ATOM      3  C   UNL     1      46.834   3.617  13.627  0.00  0.00    +0.000 A 
ATOM      4  N   UNL     1      47.174   4.909  13.785  0.00  0.00    +0.000 NA
ATOM      5  C   UNL     1      46.424   5.720  13.015  0.00  0.00    +0.000 A 
ATOM      6  C   UNL     1      45.414   5.322  12.151  0.00  0.00    +0.000 A 
ATOM      7  C   UNL     1      44.891   6.496  11.548  0.00  0.00    +0.000 A 
ATOM      8  C   UNL     1      45.589   7.572  12.056  0.00  0.00    +0.000 A 
ATOM      9  N   UNL     1      46.526   7.091  12.941  0.00  0.00    +0.000 N 
ENDROOT
BRANCH   1  10
ATOM     10  O   UNL     1      44.233   3.470  11.175  0.00  0.00    +0.000 OA
BRANCH  10  11
ATOM     11  C   UNL     1      44.835   2.976   9.974  0.00  0.00    +0.000 C 
BRANCH  11  12
ATOM     12  C   UNL     1      44.456   3.910   8.816  0.00  0.00    +0.000 C 
BRANCH  12  13
ATOM     13  N   UNL     1      45.536   4.842   8.471  0.00  0.00    +0.000 NA
ATOM     14  H   UNL     1      45.291   5.776   8.791  0.00  0.00    +0.000 HD
ATOM     15  H   UNL     1      45.594   4.894   7.451  0.00  0.00    +0.000 HD
ENDBRANCH  12  13
ENDBRANCH  11  12
ENDBRANCH  10  11
ENDBRANCH   1  10
BRANCH   9  16
ATOM     16  C   UNL     1      47.513   7.908  13.641  0.00  0.00    +0.000 C 
BRANCH  16  17
ATOM     17  C   UNL     1      48.635   8.325  12.729  0.00  0.00    +0.000 A 
ATOM     18  C   UNL     1      49.461   7.376  12.115  0.00  0.00    +0.000 A 
ATOM     19  C   UNL     1      50.558   7.792  11.368  0.00  0.00    +0.000 A 
ATOM     20  C   UNL     1      50.784   9.154  11.237  0.00  0.00    +0.000 A 
ATOM     21  N   UNL     1      49.967  10.113  11.759  0.00  0.00    +0.000 NA
ATOM     22  C   UNL     1      48.915   9.669  12.489  0.00  0.00    +0.000 A 
BRANCH  20  23
ATOM     23  C   UNL     1      52.023   9.626  10.540  0.00  0.00    +0.000 C 
ATOM     24  N   UNL     1      52.650  10.701  11.108  0.00  0.00    +0.000 N 
ATOM     25  O   UNL     1      52.470   9.078   9.540  0.00  0.00    +0.000 OA
ATOM     26  H   UNL     1      52.282  11.099  11.965  0.00  0.00    +0.000 HD
ATOM     27  H   UNL     1      53.527  11.021  10.726  0.00  0.00    +0.000 HD
ENDBRANCH  20  23
ENDBRANCH  16  17
ENDBRANCH   9  16
TORSDOF 7
ENDMDL
MODEL 6
REMARK VINA RESULT:    -5.630      2.075      7.635
REMARK INTER + INTRA:          -8.438
REMARK INTER:                  -8.243
REMARK INTRA:                  -0.196
REMARK UNBOUND:                -0.669
REMARK  Name = 
REMARK  7 active torsions:
REMARK  status: ('A' for Active; 'I' for Inactive)
REMARK    1  A    between atoms: N_1  and  C_2
REMARK    2  A    between atoms: C_2  and  C_3
REMARK    3  A    between atoms: C_3  and  O_4
REMARK    4  A    between atoms: O_4  and  C_5
REMARK    5  A    between atoms: N_13  and  C_14
REMARK    6  A    between atoms: C_14  and  C_15
REMARK    7  A    between atoms: C_18  and  C_19
REMARK                            x       y       z     vdW  Elec       q    Type
REMARK                         _______ _______ _______ _____ _____    ______ ____
ROOT
ATOM      1  C   UNL     1      45.206   3.331   8.298  0.00  0.00    +0.000 A 
ATOM      2  N   UNL     1      44.584   2.181   8.644  0.00  0.00    +0.000 NA
ATOM      3  C   UNL     1      44.145   2.070   9.911  0.00  0.00    +0.000 A 
ATOM      4  N   UNL     1      44.245   2.964  10.912  0.00  0.00    +0.000 NA
ATOM      5  C   UNL     1      44.872   4.088  10.515  0.00  0.00    +0.000 A 
ATOM      6  C   UNL     1      45.369   4.342   9.246  0.00  0.00    +0.000 A 
ATOM      7  C   UNL     1      45.943   5.641   9.271  0.00  0.00    +0.000 A 
ATOM      8  C   UNL     1      45.781   6.142  10.546  0.00  0.00    +0.000 A 
ATOM      9  N   UNL     1      45.136   5.188  11.299  0.00  0.00    +0.000 N 
ENDROOT
BRANCH   1  10
ATOM     10  O   UNL     1      45.750   3.472   7.037  0.00  0.00    +0.000 OA
BRANCH  10  11
ATOM     11  C   UNL     1      46.312   2.254   6.540  0.00  0.00    +0.000 C 
BRANCH  11  12
ATOM     12  C   UNL     1      47.370   2.597   5.483  0.00  0.00    +0.000 C 
BRANCH  12  13
ATOM     13  N   UNL     1      48.603   1.820   5.651  0.00  0.00    +0.000 NA
ATOM     14  H   UNL     1      48.381   0.827   5.628  0.00  0.00    +0.000 HD
ATOM     15  H   UNL     1      48.971   2.010   6.585  0.00  0.00    +0.000 HD
ENDBRANCH  12  13
ENDBRANCH  11  12
ENDBRANCH  10  11
ENDBRANCH   1  10
BRANCH   9  16
ATOM     16  C   UNL     1      44.840   5.307  12.724  0.00  0.00    +0.000 C 
BRANCH  16  17
ATOM     17  C   UNL     1      46.092   5.501  13.537  0.00  0.00    +0.000 A 
ATOM     18  C   UNL     1      46.525   4.529  14.445  0.00  0.00    +0.000 A 
ATOM     19  C   UNL     1      47.621   4.784  15.262  0.00  0.00    +0.000 A 
ATOM     20  C   UNL     1      48.270   6.002  15.129  0.00  0.00    +0.000 A 
ATOM     21  N   UNL     1      47.925   6.949  14.210  0.00  0.00    +0.000 NA
ATOM     22  C   UNL     1      46.846   6.669  13.440  0.00  0.00    +0.000 A 
BRANCH  20  23
ATOM     23  C   UNL     1      49.376   6.349  16.077  0.00  0.00    +0.000 C 
ATOM     24  N   UNL     1      49.628   7.685  16.232  0.00  0.00    +0.000 N 
ATOM     25  O   UNL     1      50.007   5.502  16.698  0.00  0.00    +0.000 OA
ATOM     26  H   UNL     1      49.053   8.362  15.742  0.00  0.00    +0.000 HD
ATOM     27  H   UNL     1      50.312   7.984  16.909  0.00  0.00    +0.000 HD
ENDBRANCH  20  23
ENDBRANCH  16  17
ENDBRANCH   9  16
TORSDOF 7
ENDMDL
MODEL 7
REMARK VINA RESULT:    -5.454      3.270      8.470
REMARK INTER + INTRA:          -8.195
REMARK INTER:                  -7.533
REMARK INTRA:                  -0.662
REMARK UNBOUND:                -0.669
REMARK  Name = 
REMARK  7 active torsions:
REMARK  status: ('A' for Active; 'I' for Inactive)
REMARK    1  A    between atoms: N_1  and  C_2
REMARK    2  A    between atoms: C_2  and  C_3
REMARK    3  A    between atoms: C_3  and  O_4
REMARK    4  A    between atoms: O_4  and  C_5
REMARK    5  A    between atoms: N_13  and  C_14
REMARK    6  A    between atoms: C_14  and  C_15
REMARK    7  A    between atoms: C_18  and  C_19
REMARK                            x       y       z     vdW  Elec       q    Type
REMARK                         _______ _______ _______ _____ _____    ______ ____
ROOT
ATOM      1  C   UNL     1      44.985   4.609  12.571  0.00  0.00    +0.000 A 
ATOM      2  N   UNL     1      45.570   3.471  13.007  0.00  0.00    +0.000 NA
ATOM      3  C   UNL     1      46.792   3.574  13.560  0.00  0.00    +0.000 A 
ATOM      4  N   UNL     1      47.538   4.679  13.741  0.00  0.00    +0.000 NA
ATOM      5  C   UNL     1      46.911   5.783  13.289  0.00  0.00    +0.000 A 
ATOM      6  C   UNL     1      45.654   5.827  12.705  0.00  0.00    +0.000 A 
ATOM      7  C   UNL     1      45.386   7.185  12.386  0.00  0.00    +0.000 A 
ATOM      8  C   UNL     1      46.479   7.928  12.782  0.00  0.00    +0.000 A 
ATOM      9  N   UNL     1      47.406   7.067  13.323  0.00  0.00    +0.000 N 
ENDROOT
BRANCH   1  10
ATOM     10  O   UNL     1      43.769   4.558  11.921  0.00  0.00    +0.000 OA
BRANCH  10  11
ATOM     11  C   UNL     1      43.552   3.310  11.256  0.00  0.00    +0.000 C 
BRANCH  11  12
ATOM     12  C   UNL     1      44.165   3.390   9.850  0.00  0.00    +0.000 C 
BRANCH  12  13
ATOM     13  N   UNL     1      43.784   4.619   9.142  0.00  0.00    +0.000 NA
ATOM     14  H   UNL     1      44.426   5.367   9.396  0.00  0.00    +0.000 HD
ATOM     15  H   UNL     1      42.862   4.905   9.480  0.00  0.00    +0.000 HD
ENDBRANCH  12  13
ENDBRANCH  11  12
ENDBRANCH  10  11
ENDBRANCH   1  10
BRANCH   9  16
ATOM     16  C   UNL     1      48.731   7.455  13.797  0.00  0.00    +0.000 C 
BRANCH  16  17
ATOM     17  C   UNL     1      48.735   7.717  15.279  0.00  0.00    +0.000 A 
ATOM     18  C   UNL     1      49.062   6.709  16.192  0.00  0.00    +0.000 A 
ATOM     19  C   UNL     1      48.949   6.948  17.558  0.00  0.00    +0.000 A 
ATOM     20  C   UNL     1      48.531   8.204  17.972  0.00  0.00    +0.000 A 
ATOM     21  N   UNL     1      48.269   9.235  17.120  0.00  0.00    +0.000 NA
ATOM     22  C   UNL     1      48.380   8.961  15.798  0.00  0.00    +0.000 A 
BRANCH  20  23
ATOM     23  C   UNL     1      48.286   8.450  19.429  0.00  0.00    +0.000 C 
ATOM     24  N   UNL     1      49.388   8.384  20.236  0.00  0.00    +0.000 N 
ATOM     25  O   UNL     1      47.177   8.716  19.878  0.00  0.00    +0.000 OA
ATOM     26  H   UNL     1      50.299   8.212  19.824  0.00  0.00    +0.000 HD
ATOM     27  H   UNL     1      49.299   8.609  21.215  0.00  0.00    +0.000 HD
ENDBRANCH  20  23
ENDBRANCH  16  17
ENDBRANCH   9  16
TORSDOF 7
ENDMDL
MODEL 8
REMARK VINA RESULT:    -5.309      2.370      3.688
REMARK INTER + INTRA:          -7.996
REMARK INTER:                  -7.215
REMARK INTRA:                  -0.781
REMARK UNBOUND:                -0.669
REMARK  Name = 
REMARK  7 active torsions:
REMARK  status: ('A' for Active; 'I' for Inactive)
REMARK    1  A    between atoms: N_1  and  C_2
REMARK    2  A    between atoms: C_2  and  C_3
REMARK    3  A    between atoms: C_3  and  O_4
REMARK    4  A    between atoms: O_4  and  C_5
REMARK    5  A    between atoms: N_13  and  C_14
REMARK    6  A    between atoms: C_14  and  C_15
REMARK    7  A    between atoms: C_18  and  C_19
REMARK                            x       y       z     vdW  Elec       q    Type
REMARK                         _______ _______ _______ _____ _____    ______ ____
ROOT
ATOM      1  C   UNL     1      49.018   5.537  15.868  0.00  0.00    +0.000 A 
ATOM      2  N   UNL     1      48.515   4.387  16.372  0.00  0.00    +0.000 NA
ATOM      3  C   UNL     1      47.330   3.966  15.893  0.00  0.00    +0.000 A 
ATOM      4  N   UNL     1      46.550   4.546  14.963  0.00  0.00    +0.000 NA
ATOM      5  C   UNL     1      47.096   5.686  14.495  0.00  0.00    +0.000 A 
ATOM      6  C   UNL     1      48.307   6.235  14.891  0.00  0.00    +0.000 A 
ATOM      7  C   UNL     1      48.492   7.428  14.143  0.00  0.00    +0.000 A 
ATOM      8  C   UNL     1      47.396   7.575  13.317  0.00  0.00    +0.000 A 
ATOM      9  N   UNL     1      46.548   6.516  13.543  0.00  0.00    +0.000 N 
ENDROOT
BRANCH   1  10
ATOM     10  O   UNL     1      50.188   6.062  16.376  0.00  0.00    +0.000 OA
BRANCH  10  11
ATOM     11  C   UNL     1      50.493   5.565  17.683  0.00  0.00    +0.000 C 
BRANCH  11  12
ATOM     12  C   UNL     1      51.663   4.578  17.571  0.00  0.00    +0.000 C 
BRANCH  12  13
ATOM     13  N   UNL     1      51.218   3.179  17.568  0.00  0.00    +0.000 NA
ATOM     14  H   UNL     1      52.030   2.566  17.573  0.00  0.00    +0.000 HD
ATOM     15  H   UNL     1      50.732   3.005  16.685  0.00  0.00    +0.000 HD
ENDBRANCH  12  13
ENDBRANCH  11  12
ENDBRANCH  10  11
ENDBRANCH   1  10
BRANCH   9  16
ATOM     16  C   UNL     1      45.242   6.341  12.914  0.00  0.00    +0.000 C 
BRANCH  16  17
ATOM     17  C   UNL     1      45.309   5.385  11.753  0.00  0.00    +0.000 A 
ATOM     18  C   UNL     1      45.680   5.820  10.477  0.00  0.00    +0.000 A 
ATOM     19  C   UNL     1      45.625   4.939   9.401  0.00  0.00    +0.000 A 
ATOM     20  C   UNL     1      45.220   3.635   9.642  0.00  0.00    +0.000 A 
ATOM     21  N   UNL     1      44.917   3.151  10.880  0.00  0.00    +0.000 NA
ATOM     22  C   UNL     1      44.972   4.041  11.900  0.00  0.00    +0.000 A 
BRANCH  20  23
ATOM     23  C   UNL     1      45.037   2.700   8.486  0.00  0.00    +0.000 C 
ATOM     24  N   UNL     1      44.796   1.394   8.811  0.00  0.00    +0.000 N 
ATOM     25  O   UNL     1      45.075   3.075   7.319  0.00  0.00    +0.000 OA
ATOM     26  H   UNL     1      44.721   1.127   9.787  0.00  0.00    +0.000 HD
ATOM     27  H   UNL     1      44.595   0.731   8.078  0.00  0.00    +0.000 HD
ENDBRANCH  20  23
ENDBRANCH  16  17
ENDBRANCH   9  16
TORSDOF 7
ENDMDL
MODEL 9
REMARK VINA RESULT:    -5.277      3.090      8.666
REMARK INTER + INTRA:          -7.951
REMARK INTER:                  -7.363
REMARK INTRA:                  -0.588
REMARK UNBOUND:                -0.669
REMARK  Name = 
REMARK  7 active torsions:
REMARK  status: ('A' for Active; 'I' for Inactive)
REMARK    1  A    between atoms: N_1  and  C_2
REMARK    2  A    between atoms: C_2  and  C_3
REMARK    3  A    between atoms: C_3  and  O_4
REMARK    4  A    between atoms: O_4  and  C_5
REMARK    5  A    between atoms: N_13  and  C_14
REMARK    6  A    between atoms: C_14  and  C_15
REMARK    7  A    between atoms: C_18  and  C_19
REMARK                            x       y       z     vdW  Elec       q    Type
REMARK                         _______ _______ _______ _____ _____    ______ ____
ROOT
ATOM      1  C   UNL     1      45.527   5.282  12.775  0.00  0.00    +0.000 A 
ATOM      2  N   UNL     1      45.735   3.995  13.134  0.00  0.00    +0.000 NA
ATOM      3  C   UNL     1      46.806   3.732  13.905  0.00  0.00    +0.000 A 
ATOM      4  N   UNL     1      47.728   4.591  14.377  0.00  0.00    +0.000 NA
ATOM      5  C   UNL     1      47.475   5.856  13.991  0.00  0.00    +0.000 A 
ATOM      6  C   UNL     1      46.411   6.273  13.205  0.00  0.00    +0.000 A 
ATOM      7  C   UNL     1      46.529   7.680  13.048  0.00  0.00    +0.000 A 
ATOM      8  C   UNL     1      47.655   8.081  13.738  0.00  0.00    +0.000 A 
ATOM      9  N   UNL     1      48.229   6.965  14.301  0.00  0.00    +0.000 N 
ENDROOT
BRANCH   1  10
ATOM     10  O   UNL     1      44.493   5.604  11.919  0.00  0.00    +0.000 OA
BRANCH  10  11
ATOM     11  C   UNL     1      44.530   4.849  10.704  0.00  0.00    +0.000 C 
BRANCH  11  12
ATOM     12  C   UNL     1      45.642   5.415   9.809  0.00  0.00    +0.000 C 
BRANCH  12  13
ATOM     13  N   UNL     1      45.571   4.903   8.435  0.00  0.00    +0.000 NA
ATOM     14  H   UNL     1      46.414   5.172   7.931  0.00  0.00    +0.000 HD
ATOM     15  H   UNL     1      44.794   5.371   7.964  0.00  0.00    +0.000 HD
ENDBRANCH  12  13
ENDBRANCH  11  12
ENDBRANCH  10  11
ENDBRANCH   1  10
BRANCH   9  16
ATOM     16  C   UNL     1      49.479   6.958  15.056  0.00  0.00    +0.000 C 
BRANCH  16  17
ATOM     17  C   UNL     1      49.259   6.562  16.491  0.00  0.00    +0.000 A 
ATOM     18  C   UNL     1      49.926   5.468  17.052  0.00  0.00    +0.000 A 
ATOM     19  C   UNL     1      49.618   5.057  18.345  0.00  0.00    +0.000 A 
ATOM     20  C   UNL     1      48.664   5.773  19.051  0.00  0.00    +0.000 A 
ATOM     21  N   UNL     1      48.040   6.886  18.569  0.00  0.00    +0.000 NA
ATOM     22  C   UNL     1      48.358   7.248  17.303  0.00  0.00    +0.000 A 
BRANCH  20  23
ATOM     23  C   UNL     1      48.228   5.282  20.397  0.00  0.00    +0.000 C 
ATOM     24  N   UNL     1      47.069   5.823  20.880  0.00  0.00    +0.000 N 
ATOM     25  O   UNL     1      48.849   4.432  21.025  0.00  0.00    +0.000 OA
ATOM     26  H   UNL     1      46.552   6.486  20.312  0.00  0.00    +0.000 HD
ATOM     27  H   UNL     1      46.687   5.481  21.749  0.00  0.00    +0.000 HD
ENDBRANCH  20  23
ENDBRANCH  16  17
ENDBRANCH   9  16
TORSDOF 7
ENDMDL
