MODEL 1
REMARK VINA RESULT:    -8.708      0.000      0.000
REMARK INTER + INTRA:         -11.696
REMARK INTER:                 -11.253
REMARK INTRA:                  -0.443
REMARK UNBOUND:                -0.443
REMARK  Name = 
REMARK  5 active torsions:
REMARK  status: ('A' for Active; 'I' for Inactive)
REMARK    1  A    between atoms: C_2  and  C_3
REMARK    2  A    between atoms: C_6  and  N_7
REMARK    3  A    between atoms: N_7  and  C_8
REMARK    4  A    between atoms: C_8  and  C_9
REMARK    5  A    between atoms: C_14  and  C_15
REMARK                            x       y       z     vdW  Elec       q    Type
REMARK                         _______ _______ _______ _____ _____    ______ ____
ROOT
ATOM      1  C   UNL     1      44.186   4.409  11.719  0.00  0.00    +0.000 C 
ATOM      2  C   UNL     1      43.422   3.296  12.418  0.00  0.00    +0.000 C 
ATOM      3  C   UNL     1      43.029   4.706  12.676  0.00  0.00    +0.000 C 
ENDROOT
BRANCH   1   4
ATOM      4  C   UNL     1      45.487   4.999  12.254  0.00  0.00    +0.000 A 
ATOM      5  C   UNL     1      46.046   6.140  11.646  0.00  0.00    +0.000 A 
ATOM      6  C   UNL     1      47.090   6.838  12.245  0.00  0.00    +0.000 A 
ATOM      7  C   UNL     1      47.610   6.387  13.452  0.00  0.00    +0.000 A 
ATOM      8  F   UNL     1      48.572   7.126  14.027  0.00  0.00    +0.000 F 
ATOM      9  C   UNL     1      47.145   5.215  14.069  0.00  0.00    +0.000 A 
ATOM     10  C   UNL     1      46.093   4.529  13.431  0.00  0.00    +0.000 A 
BRANCH   9  11
ATOM     11  C   UNL     1      47.666   4.741  15.365  0.00  0.00    +0.000 A 
ATOM     12  C   UNL     1      47.554   3.401  15.767  0.00  0.00    +0.000 A 
ATOM     13  C   UNL     1      48.013   2.994  17.019  0.00  0.00    +0.000 A 
ATOM     14  C   UNL     1      48.586   3.941  17.848  0.00  0.00    +0.000 A 
ATOM     15  N   UNL     1      48.723   5.239  17.512  0.00  0.00    +0.000 NA
ATOM     16  C   UNL     1      48.263   5.602  16.289  0.00  0.00    +0.000 A 
ENDBRANCH   9  11
ENDBRANCH   1   4
BRANCH   1  17
ATOM     17  N   UNL     1      44.027   4.518  10.262  0.00  0.00    +0.000 N 
ATOM     18  H   UNL     1      43.125   4.799   9.891  0.00  0.00    +0.000 HD
BRANCH  17  22
ATOM     19  C   UNL     1      46.674   2.672   7.506  0.00  0.00    +0.000 A 
ATOM     20  C   UNL     1      45.938   1.883   8.392  0.00  0.00    +0.000 A 
ATOM     21  C   UNL     1      45.061   2.484   9.309  0.00  0.00    +0.000 A 
ATOM     22  C   UNL     1      44.865   3.867   9.331  0.00  0.00    +0.000 A 
ATOM     23  C   UNL     1      45.631   4.650   8.452  0.00  0.00    +0.000 A 
ATOM     24  C   UNL     1      46.523   4.060   7.546  0.00  0.00    +0.000 A 
BRANCH  19  26
ATOM     25  N   UNL     1      48.316   1.568   5.822  0.00  0.00    +0.000 NA
ATOM     26  C   UNL     1      47.580   2.062   6.578  0.00  0.00    +0.000 C 
ENDBRANCH  19  26
ENDBRANCH  17  22
ENDBRANCH   1  17
TORSDOF 5
ENDMDL
MODEL 2
REMARK VINA RESULT:    -8.697      2.236      3.812
REMARK INTER + INTRA:         -11.683
REMARK INTER:                 -10.736
REMARK INTRA:                  -0.947
REMARK UNBOUND:                -0.443
REMARK  Name = 
REMARK  5 active torsions:
REMARK  status: ('A' for Active; 'I' for Inactive)
REMARK    1  A    between atoms: C_2  and  C_3
REMARK    2  A    between atoms: C_6  and  N_7
REMARK    3  A    between atoms: N_7  and  C_8
REMARK    4  A    between atoms: C_8  and  C_9
REMARK    5  A    between atoms: C_14  and  C_15
REMARK                            x       y       z     vdW  Elec       q    Type
REMARK                         _______ _______ _______ _____ _____    ______ ____
ROOT
ATOM      1  C   UNL     1      43.958   4.761  11.469  0.00  0.00    +0.000 C 
ATOM      2  C   UNL     1      43.111   3.610  11.986  0.00  0.00    +0.000 C 
ATOM      3  C   UNL     1      42.667   5.002  12.254  0.00  0.00    +0.000 C 
ENDROOT
BRANCH   1   4
ATOM      4  C   UNL     1      45.158   5.326  12.225  0.00  0.00    +0.000 A 
ATOM      5  C   UNL     1      45.904   4.496  13.084  0.00  0.00    +0.000 A 
ATOM      6  C   UNL     1      47.129   4.906  13.599  0.00  0.00    +0.000 A 
ATOM      7  C   UNL     1      47.615   6.170  13.283  0.00  0.00    +0.000 A 
ATOM      8  F   UNL     1      48.829   6.501  13.749  0.00  0.00    +0.000 F 
ATOM      9  C   UNL     1      46.883   7.070  12.493  0.00  0.00    +0.000 A 
ATOM     10  C   UNL     1      45.642   6.624  11.995  0.00  0.00    +0.000 A 
BRANCH   9  11
ATOM     11  C   UNL     1      47.398   8.402  12.124  0.00  0.00    +0.000 A 
ATOM     12  C   UNL     1      48.703   8.588  11.642  0.00  0.00    +0.000 A 
ATOM     13  C   UNL     1      49.176   9.867  11.348  0.00  0.00    +0.000 A 
ATOM     14  C   UNL     1      48.326  10.940  11.538  0.00  0.00    +0.000 A 
ATOM     15  N   UNL     1      47.064  10.819  11.994  0.00  0.00    +0.000 NA
ATOM     16  C   UNL     1      46.636   9.563  12.273  0.00  0.00    +0.000 A 
ENDBRANCH   9  11
ENDBRANCH   1   4
BRANCH   1  17
ATOM     17  N   UNL     1      44.021   4.947  10.012  0.00  0.00    +0.000 N 
ATOM     18  H   UNL     1      43.232   5.381   9.545  0.00  0.00    +0.000 HD
BRANCH  17  22
ATOM     19  C   UNL     1      46.708   2.812   7.518  0.00  0.00    +0.000 A 
ATOM     20  C   UNL     1      45.781   2.112   8.293  0.00  0.00    +0.000 A 
ATOM     21  C   UNL     1      44.889   2.809   9.124  0.00  0.00    +0.000 A 
ATOM     22  C   UNL     1      44.870   4.206   9.163  0.00  0.00    +0.000 A 
ATOM     23  C   UNL     1      45.824   4.894   8.397  0.00  0.00    +0.000 A 
ATOM     24  C   UNL     1      46.731   4.207   7.580  0.00  0.00    +0.000 A 
BRANCH  19  26
ATOM     25  N   UNL     1      48.378   1.527   5.997  0.00  0.00    +0.000 NA
ATOM     26  C   UNL     1      47.629   2.102   6.680  0.00  0.00    +0.000 C 
ENDBRANCH  19  26
ENDBRANCH  17  22
ENDBRANCH   1  17
TORSDOF 5
ENDMDL
MODEL 3
REMARK VINA RESULT:    -8.576      1.884      2.568
REMARK INTER + INTRA:         -11.526
REMARK INTER:                 -10.648
REMARK INTRA:                  -0.878
REMARK UNBOUND:                -0.443
REMARK  Name = 
REMARK  5 active torsions:
REMARK  status: ('A' for Active; 'I' for Inactive)
REMARK    1  A    between atoms: C_2  and  C_3
REMARK    2  A    between atoms: C_6  and  N_7
REMARK    3  A    between atoms: N_7  and  C_8
REMARK    4  A    between atoms: C_8  and  C_9
REMARK    5  A    between atoms: C_14  and  C_15
REMARK                            x       y       z     vdW  Elec       q    Type
REMARK                         _______ _______ _______ _____ _____    ______ ____
ROOT
ATOM      1  C   UNL     1      44.336   4.349  11.585  0.00  0.00    +0.000 C 
ATOM      2  C   UNL     1      44.591   3.208  12.555  0.00  0.00    +0.000 C 
ATOM      3  C   UNL     1      43.419   4.091  12.782  0.00  0.00    +0.000 C 
ENDROOT
BRANCH   1   4
ATOM      4  C   UNL     1      45.000   5.718  11.705  0.00  0.00    +0.000 A 
ATOM      5  C   UNL     1      44.296   6.878  11.330  0.00  0.00    +0.000 A 
ATOM      6  C   UNL     1      44.775   8.146  11.645  0.00  0.00    +0.000 A 
ATOM      7  C   UNL     1      45.985   8.272  12.318  0.00  0.00    +0.000 A 
ATOM      8  F   UNL     1      46.379   9.509  12.658  0.00  0.00    +0.000 F 
ATOM      9  C   UNL     1      46.768   7.156  12.652  0.00  0.00    +0.000 A 
ATOM     10  C   UNL     1      46.256   5.888  12.311  0.00  0.00    +0.000 A 
BRANCH   9  11
ATOM     11  C   UNL     1      48.038   7.272  13.393  0.00  0.00    +0.000 A 
ATOM     12  C   UNL     1      49.122   8.016  12.901  0.00  0.00    +0.000 A 
ATOM     13  C   UNL     1      50.326   8.066  13.602  0.00  0.00    +0.000 A 
ATOM     14  C   UNL     1      50.421   7.370  14.793  0.00  0.00    +0.000 A 
ATOM     15  N   UNL     1      49.413   6.643  15.313  0.00  0.00    +0.000 NA
ATOM     16  C   UNL     1      48.256   6.613  14.605  0.00  0.00    +0.000 A 
ENDBRANCH   9  11
ENDBRANCH   1   4
BRANCH   1  17
ATOM     17  N   UNL     1      43.936   3.990  10.216  0.00  0.00    +0.000 N 
ATOM     18  H   UNL     1      42.955   3.811  10.029  0.00  0.00    +0.000 HD
BRANCH  17  22
ATOM     19  C   UNL     1      46.717   2.518   7.370  0.00  0.00    +0.000 A 
ATOM     20  C   UNL     1      46.053   1.625   8.213  0.00  0.00    +0.000 A 
ATOM     21  C   UNL     1      45.133   2.102   9.160  0.00  0.00    +0.000 A 
ATOM     22  C   UNL     1      44.822   3.461   9.254  0.00  0.00    +0.000 A 
ATOM     23  C   UNL     1      45.516   4.349   8.417  0.00  0.00    +0.000 A 
ATOM     24  C   UNL     1      46.451   3.884   7.482  0.00  0.00    +0.000 A 
BRANCH  19  26
ATOM     25  N   UNL     1      48.442   1.644   5.635  0.00  0.00    +0.000 NA
ATOM     26  C   UNL     1      47.668   2.035   6.413  0.00  0.00    +0.000 C 
ENDBRANCH  19  26
ENDBRANCH  17  22
ENDBRANCH   1  17
TORSDOF 5
ENDMDL
MODEL 4
REMARK VINA RESULT:    -7.236      2.868      3.866
REMARK INTER + INTRA:          -9.795
REMARK INTER:                  -9.193
REMARK INTRA:                  -0.602
REMARK UNBOUND:                -0.443
REMARK  Name = 
REMARK  5 active torsions:
REMARK  status: ('A' for Active; 'I' for Inactive)
REMARK    1  A    between atoms: C_2  and  C_3
REMARK    2  A    between atoms: C_6  and  N_7
REMARK    3  A    between atoms: N_7  and  C_8
REMARK    4  A    between atoms: C_8  and  C_9
REMARK    5  A    between atoms: C_14  and  C_15
REMARK                            x       y       z     vdW  Elec       q    Type
REMARK                         _______ _______ _______ _____ _____    ______ ____
ROOT
ATOM      1  C   UNL     1      44.704   5.586  11.739  0.00  0.00    +0.000 C 
ATOM      2  C   UNL     1      45.069   4.580  12.818  0.00  0.00    +0.000 C 
ATOM      3  C   UNL     1      43.885   5.454  13.025  0.00  0.00    +0.000 C 
ENDROOT
BRANCH   1   4
ATOM      4  C   UNL     1      45.327   6.976  11.641  0.00  0.00    +0.000 A 
ATOM      5  C   UNL     1      44.502   8.117  11.602  0.00  0.00    +0.000 A 
ATOM      6  C   UNL     1      45.031   9.394  11.752  0.00  0.00    +0.000 A 
ATOM      7  C   UNL     1      46.403   9.552  11.916  0.00  0.00    +0.000 A 
ATOM      8  F   UNL     1      46.863  10.796  12.121  0.00  0.00    +0.000 F 
ATOM      9  C   UNL     1      47.283   8.459  11.889  0.00  0.00    +0.000 A 
ATOM     10  C   UNL     1      46.714   7.180  11.727  0.00  0.00    +0.000 A 
BRANCH   9  11
ATOM     11  C   UNL     1      48.737   8.607  12.091  0.00  0.00    +0.000 A 
ATOM     12  C   UNL     1      49.666   7.768  11.458  0.00  0.00    +0.000 A 
ATOM     13  C   UNL     1      51.031   7.902  11.709  0.00  0.00    +0.000 A 
ATOM     14  C   UNL     1      51.443   8.886  12.589  0.00  0.00    +0.000 A 
ATOM     15  N   UNL     1      50.596   9.722  13.221  0.00  0.00    +0.000 NA
ATOM     16  C   UNL     1      49.275   9.562  12.958  0.00  0.00    +0.000 A 
ENDBRANCH   9  11
ENDBRANCH   1   4
BRANCH   1  17
ATOM     17  N   UNL     1      44.219   5.050  10.458  0.00  0.00    +0.000 N 
ATOM     18  H   UNL     1      43.223   4.897  10.343  0.00  0.00    +0.000 HD
BRANCH  17  22
ATOM     19  C   UNL     1      46.519   2.829   7.670  0.00  0.00    +0.000 A 
ATOM     20  C   UNL     1      46.634   4.219   7.708  0.00  0.00    +0.000 A 
ATOM     21  C   UNL     1      45.876   4.964   8.625  0.00  0.00    +0.000 A 
ATOM     22  C   UNL     1      45.031   4.341   9.548  0.00  0.00    +0.000 A 
ATOM     23  C   UNL     1      44.906   2.944   9.480  0.00  0.00    +0.000 A 
ATOM     24  C   UNL     1      45.645   2.194   8.555  0.00  0.00    +0.000 A 
BRANCH  19  26
ATOM     25  N   UNL     1      47.900   1.449   5.955  0.00  0.00    +0.000 NA
ATOM     26  C   UNL     1      47.281   2.067   6.725  0.00  0.00    +0.000 C 
ENDBRANCH  19  26
ENDBRANCH  17  22
ENDBRANCH   1  17
TORSDOF 5
ENDMDL
MODEL 5
REMARK VINA RESULT:    -6.852      2.848      7.550
REMARK INTER + INTRA:          -9.299
REMARK INTER:                  -9.218
REMARK INTRA:                  -0.081
REMARK UNBOUND:                -0.443
REMARK  Name = 
REMARK  5 active torsions:
REMARK  status: ('A' for Active; 'I' for Inactive)
REMARK    1  A    between atoms: C_2  and  C_3
REMARK    2  A    between atoms: C_6  and  N_7
REMARK    3  A    between atoms: N_7  and  C_8
REMARK    4  A    between atoms: C_8  and  C_9
REMARK    5  A    between atoms: C_14  and  C_15
REMARK                            x       y       z     vdW  Elec       q    Type
REMARK                         _______ _______ _______ _____ _____    ______ ____
ROOT
ATOM      1  C   UNL     1      44.071   5.681  11.199  0.00  0.00    +0.000 C 
ATOM      2  C   UNL     1      42.668   6.243  11.353  0.00  0.00    +0.000 C 
ATOM      3  C   UNL     1      43.316   5.604  12.527  0.00  0.00    +0.000 C 
ENDROOT
BRANCH   1   4
ATOM      4  C   UNL     1      44.361   4.280  10.666  0.00  0.00    +0.000 A 
ATOM      5  C   UNL     1      43.617   3.180  11.136  0.00  0.00    +0.000 A 
ATOM      6  C   UNL     1      43.689   1.941  10.507  0.00  0.00    +0.000 A 
ATOM      7  C   UNL     1      44.529   1.776   9.413  0.00  0.00    +0.000 A 
ATOM      8  F   UNL     1      44.520   0.583   8.798  0.00  0.00    +0.000 F 
ATOM      9  C   UNL     1      45.350   2.814   8.945  0.00  0.00    +0.000 A 
ATOM     10  C   UNL     1      45.258   4.054   9.609  0.00  0.00    +0.000 A 
BRANCH   9  11
ATOM     11  C   UNL     1      46.224   2.664   7.767  0.00  0.00    +0.000 A 
ATOM     12  C   UNL     1      46.192   3.569   6.695  0.00  0.00    +0.000 A 
ATOM     13  C   UNL     1      46.997   3.372   5.573  0.00  0.00    +0.000 A 
ATOM     14  C   UNL     1      47.829   2.268   5.549  0.00  0.00    +0.000 A 
ATOM     15  N   UNL     1      47.904   1.370   6.551  0.00  0.00    +0.000 NA
ATOM     16  C   UNL     1      47.106   1.589   7.625  0.00  0.00    +0.000 A 
ENDBRANCH   9  11
ENDBRANCH   1   4
BRANCH   1  17
ATOM     17  N   UNL     1      45.161   6.645  10.986  0.00  0.00    +0.000 N 
ATOM     18  H   UNL     1      45.416   6.885  10.034  0.00  0.00    +0.000 HD
BRANCH  17  22
ATOM     19  C   UNL     1      48.014   7.591  13.980  0.00  0.00    +0.000 A 
ATOM     20  C   UNL     1      47.973   6.301  13.447  0.00  0.00    +0.000 A 
ATOM     21  C   UNL     1      47.032   5.977  12.458  0.00  0.00    +0.000 A 
ATOM     22  C   UNL     1      46.150   6.935  11.949  0.00  0.00    +0.000 A 
ATOM     23  C   UNL     1      46.186   8.220  12.512  0.00  0.00    +0.000 A 
ATOM     24  C   UNL     1      47.110   8.548  13.513  0.00  0.00    +0.000 A 
BRANCH  19  26
ATOM     25  N   UNL     1      49.740   8.188  15.828  0.00  0.00    +0.000 NA
ATOM     26  C   UNL     1      48.965   7.920  15.000  0.00  0.00    +0.000 C 
ENDBRANCH  19  26
ENDBRANCH  17  22
ENDBRANCH   1  17
TORSDOF 5
ENDMDL
MODEL 6
REMARK VINA RESULT:    -6.693      2.604      7.875
REMARK INTER + INTRA:          -9.093
REMARK INTER:                  -8.177
REMARK INTRA:                  -0.916
REMARK UNBOUND:                -0.443
REMARK  Name = 
REMARK  5 active torsions:
REMARK  status: ('A' for Active; 'I' for Inactive)
REMARK    1  A    between atoms: C_2  and  C_3
REMARK    2  A    between atoms: C_6  and  N_7
REMARK    3  A    between atoms: N_7  and  C_8
REMARK    4  A    between atoms: C_8  and  C_9
REMARK    5  A    between atoms: C_14  and  C_15
REMARK                            x       y       z     vdW  Elec       q    Type
REMARK                         _______ _______ _______ _____ _____    ______ ____
ROOT
ATOM      1  C   UNL     1      48.667   7.972  12.677  0.00  0.00    +0.000 C 
ATOM      2  C   UNL     1      49.814   7.447  11.828  0.00  0.00    +0.000 C 
ATOM      3  C   UNL     1      49.236   8.777  11.507  0.00  0.00    +0.000 C 
ENDROOT
BRANCH   1   4
ATOM      4  C   UNL     1      47.205   7.618  12.422  0.00  0.00    +0.000 A 
ATOM      5  C   UNL     1      46.190   8.540  12.748  0.00  0.00    +0.000 A 
ATOM      6  C   UNL     1      44.881   8.353  12.316  0.00  0.00    +0.000 A 
ATOM      7  C   UNL     1      44.561   7.223  11.573  0.00  0.00    +0.000 A 
ATOM      8  F   UNL     1      43.301   7.114  11.122  0.00  0.00    +0.000 F 
ATOM      9  C   UNL     1      45.512   6.233  11.280  0.00  0.00    +0.000 A 
ATOM     10  C   UNL     1      46.826   6.451  11.739  0.00  0.00    +0.000 A 
BRANCH   9  11
ATOM     11  C   UNL     1      45.194   5.044  10.467  0.00  0.00    +0.000 A 
ATOM     12  C   UNL     1      45.612   4.921   9.133  0.00  0.00    +0.000 A 
ATOM     13  C   UNL     1      45.253   3.806   8.376  0.00  0.00    +0.000 A 
ATOM     14  C   UNL     1      44.485   2.826   8.975  0.00  0.00    +0.000 A 
ATOM     15  N   UNL     1      44.059   2.890  10.253  0.00  0.00    +0.000 NA
ATOM     16  C   UNL     1      44.422   3.989  10.959  0.00  0.00    +0.000 A 
ENDBRANCH   9  11
ENDBRANCH   1   4
BRANCH   1  17
ATOM     17  N   UNL     1      48.970   8.320  14.072  0.00  0.00    +0.000 N 
ATOM     18  H   UNL     1      49.125   9.296  14.306  0.00  0.00    +0.000 HD
BRANCH  17  22
ATOM     19  C   UNL     1      50.580   5.698  16.993  0.00  0.00    +0.000 A 
ATOM     20  C   UNL     1      49.226   5.616  16.663  0.00  0.00    +0.000 A 
ATOM     21  C   UNL     1      48.683   6.481  15.700  0.00  0.00    +0.000 A 
ATOM     22  C   UNL     1      49.480   7.404  15.017  0.00  0.00    +0.000 A 
ATOM     23  C   UNL     1      50.834   7.491  15.377  0.00  0.00    +0.000 A 
ATOM     24  C   UNL     1      51.381   6.646  16.351  0.00  0.00    +0.000 A 
BRANCH  19  26
ATOM     25  N   UNL     1      51.583   4.115  18.794  0.00  0.00    +0.000 NA
ATOM     26  C   UNL     1      51.134   4.826  17.987  0.00  0.00    +0.000 C 
ENDBRANCH  19  26
ENDBRANCH  17  22
ENDBRANCH   1  17
TORSDOF 5
ENDMDL
MODEL 7
REMARK VINA RESULT:    -6.575      3.263      5.886
REMARK INTER + INTRA:          -8.940
REMARK INTER:                  -7.847
REMARK INTRA:                  -1.093
REMARK UNBOUND:                -0.443
REMARK  Name = 
REMARK  5 active torsions:
REMARK  status: ('A' for Active; 'I' for Inactive)
REMARK    1  A    between atoms: C_2  and  C_3
REMARK    2  A    between atoms: C_6  and  N_7
REMARK    3  A    between atoms: N_7  and  C_8
REMARK    4  A    between atoms: C_8  and  C_9
REMARK    5  A    between atoms: C_14  and  C_15
REMARK                            x       y       z     vdW  Elec       q    Type
REMARK                         _______ _______ _______ _____ _____    ______ ____
ROOT
ATOM      1  C   UNL     1      48.991   7.584  15.409  0.00  0.00    +0.000 C 
ATOM      2  C   UNL     1      48.293   8.934  15.389  0.00  0.00    +0.000 C 
ATOM      3  C   UNL     1      49.764   8.892  15.596  0.00  0.00    +0.000 C 
ENDROOT
BRANCH   1   4
ATOM      4  C   UNL     1      49.101   6.714  16.659  0.00  0.00    +0.000 A 
ATOM      5  C   UNL     1      48.219   6.916  17.738  0.00  0.00    +0.000 A 
ATOM      6  C   UNL     1      48.134   6.000  18.781  0.00  0.00    +0.000 A 
ATOM      7  C   UNL     1      48.955   4.878  18.774  0.00  0.00    +0.000 A 
ATOM      8  F   UNL     1      48.795   3.987  19.766  0.00  0.00    +0.000 F 
ATOM      9  C   UNL     1      49.905   4.660  17.765  0.00  0.00    +0.000 A 
ATOM     10  C   UNL     1      49.969   5.612  16.728  0.00  0.00    +0.000 A 
BRANCH   9  11
ATOM     11  C   UNL     1      50.761   3.459  17.727  0.00  0.00    +0.000 A 
ATOM     12  C   UNL     1      52.096   3.482  18.159  0.00  0.00    +0.000 A 
ATOM     13  C   UNL     1      52.894   2.343  18.065  0.00  0.00    +0.000 A 
ATOM     14  C   UNL     1      52.333   1.191  17.543  0.00  0.00    +0.000 A 
ATOM     15  N   UNL     1      51.057   1.111  17.117  0.00  0.00    +0.000 NA
ATOM     16  C   UNL     1      50.310   2.239  17.219  0.00  0.00    +0.000 A 
ENDBRANCH   9  11
ENDBRANCH   1   4
BRANCH   1  17
ATOM     17  N   UNL     1      49.039   6.834  14.146  0.00  0.00    +0.000 N 
ATOM     18  H   UNL     1      49.875   6.900  13.575  0.00  0.00    +0.000 HD
BRANCH  17  22
ATOM     19  C   UNL     1      45.687   5.473  11.930  0.00  0.00    +0.000 A 
ATOM     20  C   UNL     1      45.995   4.876  13.153  0.00  0.00    +0.000 A 
ATOM     21  C   UNL     1      47.103   5.317  13.893  0.00  0.00    +0.000 A 
ATOM     22  C   UNL     1      47.892   6.385  13.457  0.00  0.00    +0.000 A 
ATOM     23  C   UNL     1      47.585   6.959  12.213  0.00  0.00    +0.000 A 
ATOM     24  C   UNL     1      46.492   6.512  11.458  0.00  0.00    +0.000 A 
BRANCH  19  26
ATOM     25  N   UNL     1      43.651   4.645  10.544  0.00  0.00    +0.000 NA
ATOM     26  C   UNL     1      44.564   5.015  11.165  0.00  0.00    +0.000 C 
ENDBRANCH  19  26
ENDBRANCH  17  22
ENDBRANCH   1  17
TORSDOF 5
ENDMDL
MODEL 8
REMARK VINA RESULT:    -6.526      2.895      4.711
REMARK INTER + INTRA:          -8.877
REMARK INTER:                  -8.080
REMARK INTRA:                  -0.797
REMARK UNBOUND:                -0.443
REMARK  Name = 
REMARK  5 active torsions:
REMARK  status: ('A' for Active; 'I' for Inactive)
REMARK    1  A    between atoms: C_2  and  C_3
REMARK    2  A    between atoms: C_6  and  N_7
REMARK    3  A    between atoms: N_7  and  C_8
REMARK    4  A    between atoms: C_8  and  C_9
REMARK    5  A    between atoms: C_14  and  C_15
REMARK                            x       y       z     vdW  Elec       q    Type
REMARK                         _______ _______ _______ _____ _____    ______ ____
ROOT
ATOM      1  C   UNL     1      48.283   8.090  12.569  0.00  0.00    +0.000 C 
ATOM      2  C   UNL     1      49.197   8.844  11.617  0.00  0.00    +0.000 C 
ATOM      3  C   UNL     1      49.326   7.367  11.713  0.00  0.00    +0.000 C 
ENDROOT
BRANCH   1   4
ATOM      4  C   UNL     1      48.586   7.903  14.053  0.00  0.00    +0.000 A 
ATOM      5  C   UNL     1      48.815   9.026  14.872  0.00  0.00    +0.000 A 
ATOM      6  C   UNL     1      48.858   8.910  16.258  0.00  0.00    +0.000 A 
ATOM      7  C   UNL     1      48.699   7.660  16.845  0.00  0.00    +0.000 A 
ATOM      8  F   UNL     1      48.683   7.603  18.186  0.00  0.00    +0.000 F 
ATOM      9  C   UNL     1      48.542   6.495  16.079  0.00  0.00    +0.000 A 
ATOM     10  C   UNL     1      48.511   6.647  14.678  0.00  0.00    +0.000 A 
BRANCH   9  11
ATOM     11  C   UNL     1      48.342   5.166  16.688  0.00  0.00    +0.000 A 
ATOM     12  C   UNL     1      49.394   4.457  17.288  0.00  0.00    +0.000 A 
ATOM     13  C   UNL     1      49.183   3.181  17.812  0.00  0.00    +0.000 A 
ATOM     14  C   UNL     1      47.913   2.641  17.730  0.00  0.00    +0.000 A 
ATOM     15  N   UNL     1      46.867   3.278  17.169  0.00  0.00    +0.000 NA
ATOM     16  C   UNL     1      47.107   4.515  16.666  0.00  0.00    +0.000 A 
ENDBRANCH   9  11
ENDBRANCH   1   4
BRANCH   1  17
ATOM     17  N   UNL     1      46.852   8.052  12.236  0.00  0.00    +0.000 N 
ATOM     18  H   UNL     1      46.286   8.871  12.435  0.00  0.00    +0.000 HD
BRANCH  17  22
ATOM     19  C   UNL     1      44.505   4.546  11.791  0.00  0.00    +0.000 A 
ATOM     20  C   UNL     1      45.270   5.006  10.718  0.00  0.00    +0.000 A 
ATOM     21  C   UNL     1      46.048   6.166  10.853  0.00  0.00    +0.000 A 
ATOM     22  C   UNL     1      46.117   6.860  12.065  0.00  0.00    +0.000 A 
ATOM     23  C   UNL     1      45.324   6.399  13.128  0.00  0.00    +0.000 A 
ATOM     24  C   UNL     1      44.529   5.253  12.995  0.00  0.00    +0.000 A 
BRANCH  19  26
ATOM     25  N   UNL     1      43.044   2.413  11.534  0.00  0.00    +0.000 NA
ATOM     26  C   UNL     1      43.699   3.369  11.650  0.00  0.00    +0.000 C 
ENDBRANCH  19  26
ENDBRANCH  17  22
ENDBRANCH   1  17
TORSDOF 5
ENDMDL
MODEL 9
REMARK VINA RESULT:    -6.077      4.178      6.077
REMARK INTER + INTRA:          -8.296
REMARK INTER:                  -7.340
REMARK INTRA:                  -0.956
REMARK UNBOUND:                -0.443
REMARK  Name = 
REMARK  5 active torsions:
REMARK  status: ('A' for Active; 'I' for Inactive)
REMARK    1  A    between atoms: C_2  and  C_3
REMARK    2  A    between atoms: C_6  and  N_7
REMARK    3  A    between atoms: N_7  and  C_8
REMARK    4  A    between atoms: C_8  and  C_9
REMARK    5  A    between atoms: C_14  and  C_15
REMARK                            x       y       z     vdW  Elec       q    Type
REMARK                         _______ _______ _______ _____ _____    ______ ____
ROOT
ATOM      1  C   UNL     1      47.872   7.619  13.803  0.00  0.00    +0.000 C 
ATOM      2  C   UNL     1      48.505   6.656  14.793  0.00  0.00    +0.000 C 
ATOM      3  C   UNL     1      48.364   8.085  15.175  0.00  0.00    +0.000 C 
ENDROOT
BRANCH   1   4
ATOM      4  C   UNL     1      48.652   8.314  12.691  0.00  0.00    +0.000 A 
ATOM      5  C   UNL     1      48.263   9.594  12.250  0.00  0.00    +0.000 A 
ATOM      6  C   UNL     1      49.081  10.349  11.416  0.00  0.00    +0.000 A 
ATOM      7  C   UNL     1      50.294   9.822  10.987  0.00  0.00    +0.000 A 
ATOM      8  F   UNL     1      51.081  10.609  10.236  0.00  0.00    +0.000 F 
ATOM      9  C   UNL     1      50.702   8.525  11.332  0.00  0.00    +0.000 A 
ATOM     10  C   UNL     1      49.845   7.784  12.172  0.00  0.00    +0.000 A 
BRANCH   9  11
ATOM     11  C   UNL     1      51.999   7.963  10.910  0.00  0.00    +0.000 A 
ATOM     12  C   UNL     1      52.109   7.069   9.834  0.00  0.00    +0.000 A 
ATOM     13  C   UNL     1      53.342   6.518   9.490  0.00  0.00    +0.000 A 
ATOM     14  C   UNL     1      54.452   6.880  10.232  0.00  0.00    +0.000 A 
ATOM     15  N   UNL     1      54.405   7.735  11.272  0.00  0.00    +0.000 NA
ATOM     16  C   UNL     1      53.190   8.251  11.582  0.00  0.00    +0.000 A 
ENDBRANCH   9  11
ENDBRANCH   1   4
BRANCH   1  17
ATOM     17  N   UNL     1      46.441   7.442  13.516  0.00  0.00    +0.000 N 
ATOM     18  H   UNL     1      45.765   7.888  14.129  0.00  0.00    +0.000 HD
BRANCH  17  22
ATOM     19  C   UNL     1      45.018   4.269  11.086  0.00  0.00    +0.000 A 
ATOM     20  C   UNL     1      45.023   4.127  12.475  0.00  0.00    +0.000 A 
ATOM     21  C   UNL     1      45.494   5.170  13.288  0.00  0.00    +0.000 A 
ATOM     22  C   UNL     1      45.921   6.383  12.742  0.00  0.00    +0.000 A 
ATOM     23  C   UNL     1      45.934   6.502  11.343  0.00  0.00    +0.000 A 
ATOM     24  C   UNL     1      45.484   5.459  10.523  0.00  0.00    +0.000 A 
BRANCH  19  26
ATOM     25  N   UNL     1      44.172   2.330   9.578  0.00  0.00    +0.000 NA
ATOM     26  C   UNL     1      44.551   3.200  10.253  0.00  0.00    +0.000 C 
ENDBRANCH  19  26
ENDBRANCH  17  22
ENDBRANCH   1  17
TORSDOF 5
ENDMDL
