MODEL 1
REMARK VINA RESULT:    -8.271      0.000      0.000
REMARK INTER + INTRA:         -12.436
REMARK INTER:                 -11.172
REMARK INTRA:                  -1.264
REMARK UNBOUND:                -1.264
REMARK  Name = 
REMARK  7 active torsions:
REMARK  status: ('A' for Active; 'I' for Inactive)
REMARK    1  A    between atoms: C_1  and  C_2
REMARK    2  A    between atoms: C_2  and  N_3
REMARK    3  A    between atoms: C_2  and  C_13
REMARK    4  A    between atoms: C_4  and  C_6
REMARK    5  A    between atoms: C_16  and  C_17
REMARK    6  A    between atoms: C_17  and  N_18
REMARK    7  A    between atoms: C_19  and  C_21
REMARK                            x       y       z     vdW  Elec       q    Type
REMARK                         _______ _______ _______ _____ _____    ______ ____
ROOT
ATOM      1  C   UNL     1      45.376   6.014  11.624  0.00  0.00    +0.000 C 
ATOM      2  C   UNL     1      46.510   6.223  10.931  0.00  0.00    +0.000 C 
ATOM      3  C   UNL     1      47.647   7.076  11.421  0.00  0.00    +0.000 C 
ATOM      4  C   UNL     1      47.604   7.331  12.938  0.00  0.00    +0.000 C 
ATOM      5  C   UNL     1      46.177   7.770  13.296  0.00  0.00    +0.000 C 
ATOM      6  C   UNL     1      45.141   6.689  12.961  0.00  0.00    +0.000 C 
ENDROOT
BRANCH   1   8
ATOM      7  C   UNL     1      42.921   5.668  11.081  0.00  0.00    +0.000 C 
ATOM      8  C   UNL     1      44.318   5.053  11.114  0.00  0.00    +0.000 C 
BRANCH   8   9
ATOM      9  N   UNL     1      44.725   4.566   9.813  0.00  0.00    +0.000 N 
ATOM     10  C   UNL     1      44.812   3.224   9.545  0.00  0.00    +0.000 C 
ATOM     11  O   UNL     1      44.430   2.381  10.359  0.00  0.00    +0.000 OA
ATOM     12  H   UNL     1      44.921   5.226   9.063  0.00  0.00    +0.000 HD
BRANCH  10  13
ATOM     13  C   UNL     1      45.361   2.809   8.182  0.00  0.00    +0.000 C 
ATOM     14  C   UNL     1      45.812   1.341   8.295  0.00  0.00    +0.000 C 
ATOM     15  C   UNL     1      46.705   0.905   7.148  0.00  0.00    +0.000 C 
ATOM     16  C   UNL     1      47.914   1.815   7.103  0.00  0.00    +0.000 C 
ATOM     17  N   UNL     1      47.519   3.199   6.999  0.00  0.00    +0.000 N 
ATOM     18  C   UNL     1      46.422   3.740   7.606  0.00  0.00    +0.000 C 
ATOM     19  O   UNL     1      46.282   4.966   7.596  0.00  0.00    +0.000 OA
ATOM     20  H   UNL     1      48.201   3.880   6.686  0.00  0.00    +0.000 HD
ENDBRANCH  10  13
ENDBRANCH   8   9
ENDBRANCH   1   8
BRANCH   4  21
ATOM     21  C   UNL     1      48.034   6.098  13.756  0.00  0.00    +0.000 C 
BRANCH  21  22
ATOM     22  N   UNL     1      47.919   6.310  15.184  0.00  0.00    +0.000 N 
ATOM     23  C   UNL     1      49.005   6.491  16.001  0.00  0.00    +0.000 C 
ATOM     24  O   UNL     1      50.156   6.498  15.574  0.00  0.00    +0.000 OA
ATOM     25  H   UNL     1      47.010   6.138  15.602  0.00  0.00    +0.000 HD
BRANCH  23  26
ATOM     26  C   UNL     1      48.714   6.749  17.416  0.00  0.00    +0.000 A 
ATOM     27  C   UNL     1      48.493   8.050  17.846  0.00  0.00    +0.000 A 
ATOM     28  S   UNL     1      48.147   8.171  19.511  0.00  0.00    +0.000 S 
ATOM     29  C   UNL     1      48.323   6.493  19.727  0.00  0.00    +0.000 A 
ATOM     30  N   UNL     1      48.180   5.927  20.958  0.00  0.00    +0.000 NA
ATOM     31  C   UNL     1      48.373   4.647  20.977  0.00  0.00    +0.000 A 
ATOM     32  N   UNL     1      48.682   3.887  19.876  0.00  0.00    +0.000 N 
ATOM     33  C   UNL     1      48.784   4.412  18.616  0.00  0.00    +0.000 A 
ATOM     34  O   UNL     1      48.967   3.686  17.646  0.00  0.00    +0.000 OA
ATOM     35  C   UNL     1      48.614   5.848  18.538  0.00  0.00    +0.000 A 
ATOM     36  H   UNL     1      48.796   2.887  19.956  0.00  0.00    +0.000 HD
ENDBRANCH  23  26
ENDBRANCH  21  22
ENDBRANCH   4  21
TORSDOF 6
ENDMDL
MODEL 2
REMARK VINA RESULT:    -7.976      2.776      8.907
REMARK INTER + INTRA:         -12.038
REMARK INTER:                 -10.478
REMARK INTRA:                  -1.559
REMARK UNBOUND:                -1.264
REMARK  Name = 
REMARK  7 active torsions:
REMARK  status: ('A' for Active; 'I' for Inactive)
REMARK    1  A    between atoms: C_1  and  C_2
REMARK    2  A    between atoms: C_2  and  N_3
REMARK    3  A    between atoms: C_2  and  C_13
REMARK    4  A    between atoms: C_4  and  C_6
REMARK    5  A    between atoms: C_16  and  C_17
REMARK    6  A    between atoms: C_17  and  N_18
REMARK    7  A    between atoms: C_19  and  C_21
REMARK                            x       y       z     vdW  Elec       q    Type
REMARK                         _______ _______ _______ _____ _____    ______ ____
ROOT
ATOM      1  C   UNL     1      48.985   8.318  14.749  0.00  0.00    +0.000 C 
ATOM      2  C   UNL     1      49.059   9.422  13.984  0.00  0.00    +0.000 C 
ATOM      3  C   UNL     1      48.959   9.410  12.484  0.00  0.00    +0.000 C 
ATOM      4  C   UNL     1      48.336   8.119  11.928  0.00  0.00    +0.000 C 
ATOM      5  C   UNL     1      49.039   6.933  12.604  0.00  0.00    +0.000 C 
ATOM      6  C   UNL     1      48.847   6.942  14.126  0.00  0.00    +0.000 C 
ENDROOT
BRANCH   1   8
ATOM      7  C   UNL     1      48.050   9.506  16.788  0.00  0.00    +0.000 C 
ATOM      8  C   UNL     1      48.985   8.418  16.263  0.00  0.00    +0.000 C 
BRANCH   8   9
ATOM      9  N   UNL     1      48.662   7.118  16.813  0.00  0.00    +0.000 N 
ATOM     10  C   UNL     1      49.397   6.568  17.832  0.00  0.00    +0.000 C 
ATOM     11  O   UNL     1      50.283   7.208  18.401  0.00  0.00    +0.000 OA
ATOM     12  H   UNL     1      47.853   6.607  16.465  0.00  0.00    +0.000 HD
BRANCH  10  13
ATOM     13  C   UNL     1      49.051   5.145  18.263  0.00  0.00    +0.000 C 
ATOM     14  C   UNL     1      49.971   4.190  17.479  0.00  0.00    +0.000 C 
ATOM     15  C   UNL     1      49.505   2.747  17.524  0.00  0.00    +0.000 C 
ATOM     16  C   UNL     1      48.096   2.677  16.973  0.00  0.00    +0.000 C 
ATOM     17  N   UNL     1      47.214   3.564  17.690  0.00  0.00    +0.000 N 
ATOM     18  C   UNL     1      47.572   4.788  18.178  0.00  0.00    +0.000 C 
ATOM     19  O   UNL     1      46.693   5.535  18.615  0.00  0.00    +0.000 OA
ATOM     20  H   UNL     1      46.213   3.421  17.619  0.00  0.00    +0.000 HD
ENDBRANCH  10  13
ENDBRANCH   8   9
ENDBRANCH   1   8
BRANCH   4  21
ATOM     21  C   UNL     1      46.810   8.062  12.137  0.00  0.00    +0.000 C 
BRANCH  21  22
ATOM     22  N   UNL     1      46.266   6.739  11.908  0.00  0.00    +0.000 N 
ATOM     23  C   UNL     1      44.948   6.517  11.601  0.00  0.00    +0.000 C 
ATOM     24  O   UNL     1      44.136   7.430  11.489  0.00  0.00    +0.000 OA
ATOM     25  H   UNL     1      46.854   5.950  12.160  0.00  0.00    +0.000 HD
BRANCH  23  26
ATOM     26  C   UNL     1      44.570   5.123  11.344  0.00  0.00    +0.000 A 
ATOM     27  C   UNL     1      43.842   4.422  12.295  0.00  0.00    +0.000 A 
ATOM     28  S   UNL     1      43.466   2.825  11.829  0.00  0.00    +0.000 S 
ATOM     29  C   UNL     1      44.302   2.999  10.357  0.00  0.00    +0.000 A 
ATOM     30  N   UNL     1      44.392   1.962   9.477  0.00  0.00    +0.000 NA
ATOM     31  C   UNL     1      45.083   2.228   8.416  0.00  0.00    +0.000 A 
ATOM     32  N   UNL     1      45.678   3.437   8.154  0.00  0.00    +0.000 N 
ATOM     33  C   UNL     1      45.567   4.516   8.989  0.00  0.00    +0.000 A 
ATOM     34  O   UNL     1      46.032   5.605   8.674  0.00  0.00    +0.000 OA
ATOM     35  C   UNL     1      44.834   4.268  10.213  0.00  0.00    +0.000 A 
ATOM     36  H   UNL     1      46.184   3.587   7.293  0.00  0.00    +0.000 HD
ENDBRANCH  23  26
ENDBRANCH  21  22
ENDBRANCH   4  21
TORSDOF 6
ENDMDL
MODEL 3
REMARK VINA RESULT:    -7.965      3.545      8.081
REMARK INTER + INTRA:         -12.023
REMARK INTER:                  -9.957
REMARK INTRA:                  -2.065
REMARK UNBOUND:                -1.264
REMARK  Name = 
REMARK  7 active torsions:
REMARK  status: ('A' for Active; 'I' for Inactive)
REMARK    1  A    between atoms: C_1  and  C_2
REMARK    2  A    between atoms: C_2  and  N_3
REMARK    3  A    between atoms: C_2  and  C_13
REMARK    4  A    between atoms: C_4  and  C_6
REMARK    5  A    between atoms: C_16  and  C_17
REMARK    6  A    between atoms: C_17  and  N_18
REMARK    7  A    between atoms: C_19  and  C_21
REMARK                            x       y       z     vdW  Elec       q    Type
REMARK                         _______ _______ _______ _____ _____    ______ ____
ROOT
ATOM      1  C   UNL     1      49.195   8.738  16.364  0.00  0.00    +0.000 C 
ATOM      2  C   UNL     1      48.278   9.211  15.500  0.00  0.00    +0.000 C 
ATOM      3  C   UNL     1      48.556   9.477  14.047  0.00  0.00    +0.000 C 
ATOM      4  C   UNL     1      49.817   8.765  13.530  0.00  0.00    +0.000 C 
ATOM      5  C   UNL     1      50.948   9.035  14.532  0.00  0.00    +0.000 C 
ATOM      6  C   UNL     1      50.625   8.486  15.927  0.00  0.00    +0.000 C 
ENDROOT
BRANCH   1   8
ATOM      7  C   UNL     1      47.707   9.286  18.346  0.00  0.00    +0.000 C 
ATOM      8  C   UNL     1      48.813   8.391  17.791  0.00  0.00    +0.000 C 
BRANCH   8   9
ATOM      9  N   UNL     1      48.454   6.990  17.845  0.00  0.00    +0.000 N 
ATOM     10  C   UNL     1      49.227   6.077  18.515  0.00  0.00    +0.000 C 
ATOM     11  O   UNL     1      50.191   6.430  19.198  0.00  0.00    +0.000 OA
ATOM     12  H   UNL     1      47.591   6.671  17.409  0.00  0.00    +0.000 HD
BRANCH  10  13
ATOM     13  C   UNL     1      48.828   4.606  18.417  0.00  0.00    +0.000 C 
ATOM     14  C   UNL     1      49.946   3.877  17.649  0.00  0.00    +0.000 C 
ATOM     15  C   UNL     1      49.528   2.502  17.158  0.00  0.00    +0.000 C 
ATOM     16  C   UNL     1      48.309   2.655  16.275  0.00  0.00    +0.000 C 
ATOM     17  N   UNL     1      47.246   3.339  16.970  0.00  0.00    +0.000 N 
ATOM     18  C   UNL     1      47.430   4.354  17.863  0.00  0.00    +0.000 C 
ATOM     19  O   UNL     1      46.446   4.983  18.260  0.00  0.00    +0.000 OA
ATOM     20  H   UNL     1      46.300   3.266  16.611  0.00  0.00    +0.000 HD
ENDBRANCH  10  13
ENDBRANCH   8   9
ENDBRANCH   1   8
BRANCH   4  21
ATOM     21  C   UNL     1      49.599   7.253  13.323  0.00  0.00    +0.000 C 
BRANCH  21  22
ATOM     22  N   UNL     1      48.295   6.950  12.769  0.00  0.00    +0.000 N 
ATOM     23  C   UNL     1      47.393   6.126  13.391  0.00  0.00    +0.000 C 
ATOM     24  O   UNL     1      47.626   5.595  14.473  0.00  0.00    +0.000 OA
ATOM     25  H   UNL     1      48.132   7.223  11.805  0.00  0.00    +0.000 HD
BRANCH  23  26
ATOM     26  C   UNL     1      46.096   5.967  12.725  0.00  0.00    +0.000 A 
ATOM     27  C   UNL     1      45.426   7.085  12.249  0.00  0.00    +0.000 A 
ATOM     28  S   UNL     1      43.947   6.721  11.483  0.00  0.00    +0.000 S 
ATOM     29  C   UNL     1      44.127   5.060  11.798  0.00  0.00    +0.000 A 
ATOM     30  N   UNL     1      43.169   4.167  11.419  0.00  0.00    +0.000 NA
ATOM     31  C   UNL     1      43.426   2.943  11.752  0.00  0.00    +0.000 A 
ATOM     32  N   UNL     1      44.556   2.535  12.417  0.00  0.00    +0.000 N 
ATOM     33  C   UNL     1      45.562   3.394  12.769  0.00  0.00    +0.000 A 
ATOM     34  O   UNL     1      46.596   2.976  13.275  0.00  0.00    +0.000 OA
ATOM     35  C   UNL     1      45.315   4.785  12.454  0.00  0.00    +0.000 A 
ATOM     36  H   UNL     1      44.706   1.559  12.625  0.00  0.00    +0.000 HD
ENDBRANCH  23  26
ENDBRANCH  21  22
ENDBRANCH   4  21
TORSDOF 6
ENDMDL
MODEL 4
REMARK VINA RESULT:    -7.783      1.762      2.044
REMARK INTER + INTRA:         -11.778
REMARK INTER:                 -10.560
REMARK INTRA:                  -1.218
REMARK UNBOUND:                -1.264
REMARK  Name = 
REMARK  7 active torsions:
REMARK  status: ('A' for Active; 'I' for Inactive)
REMARK    1  A    between atoms: C_1  and  C_2
REMARK    2  A    between atoms: C_2  and  N_3
REMARK    3  A    between atoms: C_2  and  C_13
REMARK    4  A    between atoms: C_4  and  C_6
REMARK    5  A    between atoms: C_16  and  C_17
REMARK    6  A    between atoms: C_17  and  N_18
REMARK    7  A    between atoms: C_19  and  C_21
REMARK                            x       y       z     vdW  Elec       q    Type
REMARK                         _______ _______ _______ _____ _____    ______ ____
ROOT
ATOM      1  C   UNL     1      45.442   6.446  11.361  0.00  0.00    +0.000 C 
ATOM      2  C   UNL     1      46.776   6.267  11.349  0.00  0.00    +0.000 C 
ATOM      3  C   UNL     1      47.767   7.337  11.714  0.00  0.00    +0.000 C 
ATOM      4  C   UNL     1      47.145   8.495  12.512  0.00  0.00    +0.000 C 
ATOM      5  C   UNL     1      45.866   8.929  11.784  0.00  0.00    +0.000 C 
ATOM      6  C   UNL     1      44.837   7.794  11.702  0.00  0.00    +0.000 C 
ENDROOT
BRANCH   1   8
ATOM      7  C   UNL     1      43.028   5.686  11.180  0.00  0.00    +0.000 C 
ATOM      8  C   UNL     1      44.499   5.290  11.087  0.00  0.00    +0.000 C 
BRANCH   8   9
ATOM      9  N   UNL     1      44.826   4.725   9.794  0.00  0.00    +0.000 N 
ATOM     10  C   UNL     1      45.054   3.382   9.636  0.00  0.00    +0.000 C 
ATOM     11  O   UNL     1      44.872   2.587  10.560  0.00  0.00    +0.000 OA
ATOM     12  H   UNL     1      44.855   5.324   8.972  0.00  0.00    +0.000 HD
BRANCH  10  13
ATOM     13  C   UNL     1      45.506   2.900   8.259  0.00  0.00    +0.000 C 
ATOM     14  C   UNL     1      45.874   1.410   8.392  0.00  0.00    +0.000 C 
ATOM     15  C   UNL     1      46.677   0.890   7.213  0.00  0.00    +0.000 C 
ATOM     16  C   UNL     1      47.934   1.724   7.080  0.00  0.00    +0.000 C 
ATOM     17  N   UNL     1      47.617   3.126   6.957  0.00  0.00    +0.000 N 
ATOM     18  C   UNL     1      46.588   3.749   7.603  0.00  0.00    +0.000 C 
ATOM     19  O   UNL     1      46.520   4.980   7.564  0.00  0.00    +0.000 OA
ATOM     20  H   UNL     1      48.320   3.756   6.589  0.00  0.00    +0.000 HD
ENDBRANCH  10  13
ENDBRANCH   8   9
ENDBRANCH   1   8
BRANCH   4  21
ATOM     21  C   UNL     1      46.856   8.113  13.977  0.00  0.00    +0.000 C 
BRANCH  21  22
ATOM     22  N   UNL     1      48.064   7.866  14.737  0.00  0.00    +0.000 N 
ATOM     23  C   UNL     1      48.513   6.605  15.036  0.00  0.00    +0.000 C 
ATOM     24  O   UNL     1      47.924   5.593  14.668  0.00  0.00    +0.000 OA
ATOM     25  H   UNL     1      48.483   8.663  15.206  0.00  0.00    +0.000 HD
BRANCH  23  26
ATOM     26  C   UNL     1      49.784   6.527  15.766  0.00  0.00    +0.000 A 
ATOM     27  C   UNL     1      50.864   7.292  15.348  0.00  0.00    +0.000 A 
ATOM     28  S   UNL     1      52.253   7.100  16.318  0.00  0.00    +0.000 S 
ATOM     29  C   UNL     1      51.475   5.955  17.305  0.00  0.00    +0.000 A 
ATOM     30  N   UNL     1      52.134   5.358  18.338  0.00  0.00    +0.000 NA
ATOM     31  C   UNL     1      51.427   4.485  18.982  0.00  0.00    +0.000 A 
ATOM     32  N   UNL     1      50.123   4.169  18.693  0.00  0.00    +0.000 N 
ATOM     33  C   UNL     1      49.413   4.783  17.697  0.00  0.00    +0.000 A 
ATOM     34  O   UNL     1      48.223   4.541  17.532  0.00  0.00    +0.000 OA
ATOM     35  C   UNL     1      50.163   5.744  16.916  0.00  0.00    +0.000 A 
ATOM     36  H   UNL     1      49.620   3.495  19.252  0.00  0.00    +0.000 HD
ENDBRANCH  23  26
ENDBRANCH  21  22
ENDBRANCH   4  21
TORSDOF 6
ENDMDL
MODEL 5
REMARK VINA RESULT:    -7.685      2.047      2.519
REMARK INTER + INTRA:         -11.645
REMARK INTER:                 -10.599
REMARK INTRA:                  -1.046
REMARK UNBOUND:                -1.264
REMARK  Name = 
REMARK  7 active torsions:
REMARK  status: ('A' for Active; 'I' for Inactive)
REMARK    1  A    between atoms: C_1  and  C_2
REMARK    2  A    between atoms: C_2  and  N_3
REMARK    3  A    between atoms: C_2  and  C_13
REMARK    4  A    between atoms: C_4  and  C_6
REMARK    5  A    between atoms: C_16  and  C_17
REMARK    6  A    between atoms: C_17  and  N_18
REMARK    7  A    between atoms: C_19  and  C_21
REMARK                            x       y       z     vdW  Elec       q    Type
REMARK                         _______ _______ _______ _____ _____    ______ ____
ROOT
ATOM      1  C   UNL     1      45.519   5.683  11.935  0.00  0.00    +0.000 C 
ATOM      2  C   UNL     1      46.819   5.358  11.814  0.00  0.00    +0.000 C 
ATOM      3  C   UNL     1      47.936   6.108  12.486  0.00  0.00    +0.000 C 
ATOM      4  C   UNL     1      47.459   6.988  13.654  0.00  0.00    +0.000 C 
ATOM      5  C   UNL     1      46.251   7.798  13.165  0.00  0.00    +0.000 C 
ATOM      6  C   UNL     1      45.087   6.895  12.738  0.00  0.00    +0.000 C 
ENDROOT
BRANCH   1   8
ATOM      7  C   UNL     1      43.077   5.503  11.269  0.00  0.00    +0.000 C 
ATOM      8  C   UNL     1      44.439   4.815  11.316  0.00  0.00    +0.000 C 
BRANCH   8   9
ATOM      9  N   UNL     1      44.880   4.397  10.002  0.00  0.00    +0.000 N 
ATOM     10  C   UNL     1      44.686   3.115   9.555  0.00  0.00    +0.000 C 
ATOM     11  O   UNL     1      44.024   2.303  10.203  0.00  0.00    +0.000 OA
ATOM     12  H   UNL     1      45.313   5.071   9.374  0.00  0.00    +0.000 HD
BRANCH  10  13
ATOM     13  C   UNL     1      45.289   2.740   8.203  0.00  0.00    +0.000 C 
ATOM     14  C   UNL     1      45.804   1.292   8.316  0.00  0.00    +0.000 C 
ATOM     15  C   UNL     1      46.745   0.909   7.188  0.00  0.00    +0.000 C 
ATOM     16  C   UNL     1      47.911   1.873   7.182  0.00  0.00    +0.000 C 
ATOM     17  N   UNL     1      47.456   3.239   7.080  0.00  0.00    +0.000 N 
ATOM     18  C   UNL     1      46.321   3.723   7.663  0.00  0.00    +0.000 C 
ATOM     19  O   UNL     1      46.124   4.942   7.659  0.00  0.00    +0.000 OA
ATOM     20  H   UNL     1      48.113   3.954   6.791  0.00  0.00    +0.000 HD
ENDBRANCH  10  13
ENDBRANCH   8   9
ENDBRANCH   1   8
BRANCH   4  21
ATOM     21  C   UNL     1      47.112   6.164  14.910  0.00  0.00    +0.000 C 
BRANCH  21  22
ATOM     22  N   UNL     1      48.281   5.840  15.703  0.00  0.00    +0.000 N 
ATOM     23  C   UNL     1      48.282   4.864  16.666  0.00  0.00    +0.000 C 
ATOM     24  O   UNL     1      47.290   4.185  16.915  0.00  0.00    +0.000 OA
ATOM     25  H   UNL     1      49.062   6.486  15.655  0.00  0.00    +0.000 HD
BRANCH  23  26
ATOM     26  C   UNL     1      49.562   4.623  17.341  0.00  0.00    +0.000 A 
ATOM     27  C   UNL     1      50.161   5.645  18.063  0.00  0.00    +0.000 A 
ATOM     28  S   UNL     1      51.629   5.191  18.802  0.00  0.00    +0.000 S 
ATOM     29  C   UNL     1      51.539   3.624  18.148  0.00  0.00    +0.000 A 
ATOM     30  N   UNL     1      52.525   2.712  18.378  0.00  0.00    +0.000 NA
ATOM     31  C   UNL     1      52.338   1.572  17.792  0.00  0.00    +0.000 A 
ATOM     32  N   UNL     1      51.253   1.264  17.011  0.00  0.00    +0.000 N 
ATOM     33  C   UNL     1      50.220   2.137  16.798  0.00  0.00    +0.000 A 
ATOM     34  O   UNL     1      49.224   1.791  16.173  0.00  0.00    +0.000 OA
ATOM     35  C   UNL     1      50.389   3.442  17.399  0.00  0.00    +0.000 A 
ATOM     36  H   UNL     1      51.156   0.347  16.602  0.00  0.00    +0.000 HD
ENDBRANCH  23  26
ENDBRANCH  21  22
ENDBRANCH   4  21
TORSDOF 6
ENDMDL
MODEL 6
REMARK VINA RESULT:    -7.479      4.391      9.940
REMARK INTER + INTRA:         -11.367
REMARK INTER:                  -9.922
REMARK INTRA:                  -1.445
REMARK UNBOUND:                -1.264
REMARK  Name = 
REMARK  7 active torsions:
REMARK  status: ('A' for Active; 'I' for Inactive)
REMARK    1  A    between atoms: C_1  and  C_2
REMARK    2  A    between atoms: C_2  and  N_3
REMARK    3  A    between atoms: C_2  and  C_13
REMARK    4  A    between atoms: C_4  and  C_6
REMARK    5  A    between atoms: C_16  and  C_17
REMARK    6  A    between atoms: C_17  and  N_18
REMARK    7  A    between atoms: C_19  and  C_21
REMARK                            x       y       z     vdW  Elec       q    Type
REMARK                         _______ _______ _______ _____ _____    ______ ____
ROOT
ATOM      1  C   UNL     1      50.578   3.807  18.427  0.00  0.00    +0.000 C 
ATOM      2  C   UNL     1      50.465   2.934  17.409  0.00  0.00    +0.000 C 
ATOM      3  C   UNL     1      49.165   2.600  16.733  0.00  0.00    +0.000 C 
ATOM      4  C   UNL     1      48.060   3.638  16.995  0.00  0.00    +0.000 C 
ATOM      5  C   UNL     1      48.028   3.914  18.504  0.00  0.00    +0.000 C 
ATOM      6  C   UNL     1      49.357   4.487  19.013  0.00  0.00    +0.000 C 
ENDROOT
BRANCH   1   8
ATOM      7  C   UNL     1      51.861   4.793  20.382  0.00  0.00    +0.000 C 
ATOM      8  C   UNL     1      51.939   4.176  18.988  0.00  0.00    +0.000 C 
BRANCH   8   9
ATOM      9  N   UNL     1      52.783   3.001  18.963  0.00  0.00    +0.000 N 
ATOM     10  C   UNL     1      54.024   3.022  18.378  0.00  0.00    +0.000 C 
ATOM     11  O   UNL     1      54.518   4.070  17.959  0.00  0.00    +0.000 OA
ATOM     12  H   UNL     1      52.474   2.144  19.417  0.00  0.00    +0.000 HD
BRANCH  10  13
ATOM     13  C   UNL     1      54.790   1.703  18.300  0.00  0.00    +0.000 C 
ATOM     14  C   UNL     1      54.246   0.927  17.086  0.00  0.00    +0.000 C 
ATOM     15  C   UNL     1      54.643  -0.538  17.093  0.00  0.00    +0.000 C 
ATOM     16  C   UNL     1      54.145  -1.168  18.375  0.00  0.00    +0.000 C 
ATOM     17  N   UNL     1      54.638  -0.458  19.530  0.00  0.00    +0.000 N 
ATOM     18  C   UNL     1      54.813   0.895  19.592  0.00  0.00    +0.000 C 
ATOM     19  O   UNL     1      55.069   1.411  20.683  0.00  0.00    +0.000 OA
ATOM     20  H   UNL     1      54.618  -0.917  20.433  0.00  0.00    +0.000 HD
ENDBRANCH  10  13
ENDBRANCH   8   9
ENDBRANCH   1   8
BRANCH   4  21
ATOM     21  C   UNL     1      48.268   4.936  16.190  0.00  0.00    +0.000 C 
BRANCH  21  22
ATOM     22  N   UNL     1      47.230   5.150  15.202  0.00  0.00    +0.000 N 
ATOM     23  C   UNL     1      47.461   5.768  14.000  0.00  0.00    +0.000 C 
ATOM     24  O   UNL     1      48.572   6.174  13.672  0.00  0.00    +0.000 OA
ATOM     25  H   UNL     1      46.273   4.991  15.499  0.00  0.00    +0.000 HD
BRANCH  23  26
ATOM     26  C   UNL     1      46.316   5.856  13.088  0.00  0.00    +0.000 A 
ATOM     27  C   UNL     1      45.890   7.098  12.638  0.00  0.00    +0.000 A 
ATOM     28  S   UNL     1      44.564   7.021  11.569  0.00  0.00    +0.000 S 
ATOM     29  C   UNL     1      44.482   5.328  11.703  0.00  0.00    +0.000 A 
ATOM     30  N   UNL     1      43.523   4.619  11.043  0.00  0.00    +0.000 NA
ATOM     31  C   UNL     1      43.563   3.344  11.263  0.00  0.00    +0.000 A 
ATOM     32  N   UNL     1      44.480   2.719  12.071  0.00  0.00    +0.000 N 
ATOM     33  C   UNL     1      45.487   3.391  12.709  0.00  0.00    +0.000 A 
ATOM     34  O   UNL     1      46.342   2.785  13.345  0.00  0.00    +0.000 OA
ATOM     35  C   UNL     1      45.473   4.827  12.530  0.00  0.00    +0.000 A 
ATOM     36  H   UNL     1      44.470   1.716  12.181  0.00  0.00    +0.000 HD
ENDBRANCH  23  26
ENDBRANCH  21  22
ENDBRANCH   4  21
TORSDOF 6
ENDMDL
MODEL 7
REMARK VINA RESULT:    -7.478      3.641      9.236
REMARK INTER + INTRA:         -11.366
REMARK INTER:                  -9.695
REMARK INTRA:                  -1.671
REMARK UNBOUND:                -1.264
REMARK  Name = 
REMARK  7 active torsions:
REMARK  status: ('A' for Active; 'I' for Inactive)
REMARK    1  A    between atoms: C_1  and  C_2
REMARK    2  A    between atoms: C_2  and  N_3
REMARK    3  A    between atoms: C_2  and  C_13
REMARK    4  A    between atoms: C_4  and  C_6
REMARK    5  A    between atoms: C_16  and  C_17
REMARK    6  A    between atoms: C_17  and  N_18
REMARK    7  A    between atoms: C_19  and  C_21
REMARK                            x       y       z     vdW  Elec       q    Type
REMARK                         _______ _______ _______ _____ _____    ______ ____
ROOT
ATOM      1  C   UNL     1      50.523   3.323  17.927  0.00  0.00    +0.000 C 
ATOM      2  C   UNL     1      49.950   2.507  17.023  0.00  0.00    +0.000 C 
ATOM      3  C   UNL     1      48.488   2.540  16.672  0.00  0.00    +0.000 C 
ATOM      4  C   UNL     1      47.793   3.847  17.092  0.00  0.00    +0.000 C 
ATOM      5  C   UNL     1      48.183   4.135  18.548  0.00  0.00    +0.000 C 
ATOM      6  C   UNL     1      49.697   4.322  18.714  0.00  0.00    +0.000 C 
ENDROOT
BRANCH   1   8
ATOM      7  C   UNL     1      52.667   1.976  17.765  0.00  0.00    +0.000 C 
ATOM      8  C   UNL     1      52.023   3.306  18.150  0.00  0.00    +0.000 C 
BRANCH   8   9
ATOM      9  N   UNL     1      52.610   4.418  17.433  0.00  0.00    +0.000 N 
ATOM     10  C   UNL     1      53.071   5.531  18.089  0.00  0.00    +0.000 C 
ATOM     11  O   UNL     1      53.116   5.577  19.320  0.00  0.00    +0.000 OA
ATOM     12  H   UNL     1      52.719   4.369  16.422  0.00  0.00    +0.000 HD
BRANCH  10  13
ATOM     13  C   UNL     1      53.565   6.698  17.238  0.00  0.00    +0.000 C 
ATOM     14  C   UNL     1      52.416   7.719  17.147  0.00  0.00    +0.000 C 
ATOM     15  C   UNL     1      52.621   8.747  16.048  0.00  0.00    +0.000 C 
ATOM     16  C   UNL     1      52.772   8.020  14.729  0.00  0.00    +0.000 C 
ATOM     17  N   UNL     1      53.841   7.054  14.788  0.00  0.00    +0.000 N 
ATOM     18  C   UNL     1      54.153   6.306  15.887  0.00  0.00    +0.000 C 
ATOM     19  O   UNL     1      54.968   5.387  15.770  0.00  0.00    +0.000 OA
ATOM     20  H   UNL     1      54.231   6.702  13.921  0.00  0.00    +0.000 HD
ENDBRANCH  10  13
ENDBRANCH   8   9
ENDBRANCH   1   8
BRANCH   4  21
ATOM     21  C   UNL     1      48.152   5.029  16.170  0.00  0.00    +0.000 C 
BRANCH  21  22
ATOM     22  N   UNL     1      47.154   5.258  15.145  0.00  0.00    +0.000 N 
ATOM     23  C   UNL     1      47.439   5.863  13.948  0.00  0.00    +0.000 C 
ATOM     24  O   UNL     1      48.568   6.245  13.657  0.00  0.00    +0.000 OA
ATOM     25  H   UNL     1      46.184   5.120  15.410  0.00  0.00    +0.000 HD
BRANCH  23  26
ATOM     26  C   UNL     1      46.327   5.970  12.997  0.00  0.00    +0.000 A 
ATOM     27  C   UNL     1      45.932   7.218  12.539  0.00  0.00    +0.000 A 
ATOM     28  S   UNL     1      44.644   7.162  11.423  0.00  0.00    +0.000 S 
ATOM     29  C   UNL     1      44.538   5.469  11.545  0.00  0.00    +0.000 A 
ATOM     30  N   UNL     1      43.596   4.775  10.848  0.00  0.00    +0.000 NA
ATOM     31  C   UNL     1      43.613   3.498  11.063  0.00  0.00    +0.000 A 
ATOM     32  N   UNL     1      44.494   2.859  11.899  0.00  0.00    +0.000 N 
ATOM     33  C   UNL     1      45.485   3.516  12.577  0.00  0.00    +0.000 A 
ATOM     34  O   UNL     1      46.310   2.897  13.238  0.00  0.00    +0.000 OA
ATOM     35  C   UNL     1      45.493   4.953  12.404  0.00  0.00    +0.000 A 
ATOM     36  H   UNL     1      44.469   1.855  12.003  0.00  0.00    +0.000 HD
ENDBRANCH  23  26
ENDBRANCH  21  22
ENDBRANCH   4  21
TORSDOF 6
ENDMDL
MODEL 8
REMARK VINA RESULT:    -6.467      3.868      8.702
REMARK INTER + INTRA:         -10.000
REMARK INTER:                  -8.222
REMARK INTRA:                  -1.779
REMARK UNBOUND:                -1.264
REMARK  Name = 
REMARK  7 active torsions:
REMARK  status: ('A' for Active; 'I' for Inactive)
REMARK    1  A    between atoms: C_1  and  C_2
REMARK    2  A    between atoms: C_2  and  N_3
REMARK    3  A    between atoms: C_2  and  C_13
REMARK    4  A    between atoms: C_4  and  C_6
REMARK    5  A    between atoms: C_16  and  C_17
REMARK    6  A    between atoms: C_17  and  N_18
REMARK    7  A    between atoms: C_19  and  C_21
REMARK                            x       y       z     vdW  Elec       q    Type
REMARK                         _______ _______ _______ _____ _____    ______ ____
ROOT
ATOM      1  C   UNL     1      49.937   8.716  18.046  0.00  0.00    +0.000 C 
ATOM      2  C   UNL     1      48.597   8.676  17.936  0.00  0.00    +0.000 C 
ATOM      3  C   UNL     1      47.829   9.320  16.815  0.00  0.00    +0.000 C 
ATOM      4  C   UNL     1      48.701   9.647  15.591  0.00  0.00    +0.000 C 
ATOM      5  C   UNL     1      49.961  10.363  16.095  0.00  0.00    +0.000 C 
ATOM      6  C   UNL     1      50.781   9.484  17.048  0.00  0.00    +0.000 C 
ENDROOT
BRANCH   1   8
ATOM      7  C   UNL     1      50.573   8.644  20.501  0.00  0.00    +0.000 C 
ATOM      8  C   UNL     1      50.651   7.950  19.144  0.00  0.00    +0.000 C 
BRANCH   8   9
ATOM      9  N   UNL     1      50.116   6.606  19.192  0.00  0.00    +0.000 N 
ATOM     10  C   UNL     1      50.566   5.624  18.348  0.00  0.00    +0.000 C 
ATOM     11  O   UNL     1      51.527   5.813  17.599  0.00  0.00    +0.000 OA
ATOM     12  H   UNL     1      49.414   6.365  19.889  0.00  0.00    +0.000 HD
BRANCH  10  13
ATOM     13  C   UNL     1      49.859   4.271  18.397  0.00  0.00    +0.000 C 
ATOM     14  C   UNL     1      50.581   3.340  17.405  0.00  0.00    +0.000 C 
ATOM     15  C   UNL     1      49.781   2.093  17.073  0.00  0.00    +0.000 C 
ATOM     16  C   UNL     1      48.443   2.514  16.506  0.00  0.00    +0.000 C 
ATOM     17  N   UNL     1      47.746   3.391  17.416  0.00  0.00    +0.000 N 
ATOM     18  C   UNL     1      48.348   4.328  18.205  0.00  0.00    +0.000 C 
ATOM     19  O   UNL     1      47.642   5.140  18.808  0.00  0.00    +0.000 OA
ATOM     20  H   UNL     1      46.748   3.524  17.299  0.00  0.00    +0.000 HD
ENDBRANCH  10  13
ENDBRANCH   8   9
ENDBRANCH   1   8
BRANCH   4  21
ATOM     21  C   UNL     1      49.057   8.393  14.769  0.00  0.00    +0.000 C 
BRANCH  21  22
ATOM     22  N   UNL     1      47.885   7.662  14.332  0.00  0.00    +0.000 N 
ATOM     23  C   UNL     1      47.940   6.641  13.419  0.00  0.00    +0.000 C 
ATOM     24  O   UNL     1      48.994   6.266  12.915  0.00  0.00    +0.000 OA
ATOM     25  H   UNL     1      46.982   8.049  14.586  0.00  0.00    +0.000 HD
BRANCH  23  26
ATOM     26  C   UNL     1      46.670   5.967  13.126  0.00  0.00    +0.000 A 
ATOM     27  C   UNL     1      46.494   4.641  13.498  0.00  0.00    +0.000 A 
ATOM     28  S   UNL     1      44.957   4.018  13.103  0.00  0.00    +0.000 S 
ATOM     29  C   UNL     1      44.486   5.485  12.382  0.00  0.00    +0.000 A 
ATOM     30  N   UNL     1      43.258   5.619  11.807  0.00  0.00    +0.000 NA
ATOM     31  C   UNL     1      43.049   6.778  11.270  0.00  0.00    +0.000 A 
ATOM     32  N   UNL     1      43.952   7.812  11.269  0.00  0.00    +0.000 N 
ATOM     33  C   UNL     1      45.174   7.732  11.879  0.00  0.00    +0.000 A 
ATOM     34  O   UNL     1      45.913   8.708  11.939  0.00  0.00    +0.000 OA
ATOM     35  C   UNL     1      45.479   6.444  12.467  0.00  0.00    +0.000 A 
ATOM     36  H   UNL     1      43.716   8.701  10.853  0.00  0.00    +0.000 HD
ENDBRANCH  23  26
ENDBRANCH  21  22
ENDBRANCH   4  21
TORSDOF 6
ENDMDL
MODEL 9
REMARK VINA RESULT:    -6.426      3.259      4.098
REMARK INTER + INTRA:          -9.945
REMARK INTER:                  -8.635
REMARK INTRA:                  -1.310
REMARK UNBOUND:                -1.264
REMARK  Name = 
REMARK  7 active torsions:
REMARK  status: ('A' for Active; 'I' for Inactive)
REMARK    1  A    between atoms: C_1  and  C_2
REMARK    2  A    between atoms: C_2  and  N_3
REMARK    3  A    between atoms: C_2  and  C_13
REMARK    4  A    between atoms: C_4  and  C_6
REMARK    5  A    between atoms: C_16  and  C_17
REMARK    6  A    between atoms: C_17  and  N_18
REMARK    7  A    between atoms: C_19  and  C_21
REMARK                            x       y       z     vdW  Elec       q    Type
REMARK                         _______ _______ _______ _____ _____    ______ ____
ROOT
ATOM      1  C   UNL     1      47.340   8.992  12.347  0.00  0.00    +0.000 C 
ATOM      2  C   UNL     1      48.339   8.095  12.248  0.00  0.00    +0.000 C 
ATOM      3  C   UNL     1      49.793   8.438  12.418  0.00  0.00    +0.000 C 
ATOM      4  C   UNL     1      50.020   9.779  13.136  0.00  0.00    +0.000 C 
ATOM      5  C   UNL     1      49.115  10.824  12.469  0.00  0.00    +0.000 C 
ATOM      6  C   UNL     1      47.629  10.460  12.589  0.00  0.00    +0.000 C 
ENDROOT
BRANCH   1   8
ATOM      7  C   UNL     1      45.005   9.547  11.523  0.00  0.00    +0.000 C 
ATOM      8  C   UNL     1      45.890   8.553  12.271  0.00  0.00    +0.000 C 
BRANCH   8   9
ATOM      9  N   UNL     1      45.838   7.232  11.681  0.00  0.00    +0.000 N 
ATOM     10  C   UNL     1      45.125   6.215  12.262  0.00  0.00    +0.000 C 
ATOM     11  O   UNL     1      44.404   6.414  13.242  0.00  0.00    +0.000 OA
ATOM     12  H   UNL     1      46.308   7.053  10.796  0.00  0.00    +0.000 HD
BRANCH  10  13
ATOM     13  C   UNL     1      45.225   4.829  11.627  0.00  0.00    +0.000 C 
ATOM     14  C   UNL     1      44.061   4.697  10.628  0.00  0.00    +0.000 C 
ATOM     15  C   UNL     1      43.812   3.263  10.194  0.00  0.00    +0.000 C 
ATOM     16  C   UNL     1      43.535   2.427  11.425  0.00  0.00    +0.000 C 
ATOM     17  N   UNL     1      44.610   2.536  12.380  0.00  0.00    +0.000 N 
ATOM     18  C   UNL     1      45.327   3.674  12.616  0.00  0.00    +0.000 C 
ATOM     19  O   UNL     1      46.100   3.702  13.578  0.00  0.00    +0.000 OA
ATOM     20  H   UNL     1      44.693   1.834  13.107  0.00  0.00    +0.000 HD
ENDBRANCH  10  13
ENDBRANCH   8   9
ENDBRANCH   1   8
BRANCH   4  21
ATOM     21  C   UNL     1      49.753   9.690  14.651  0.00  0.00    +0.000 C 
BRANCH  21  22
ATOM     22  N   UNL     1      50.356   8.518  15.254  0.00  0.00    +0.000 N 
ATOM     23  C   UNL     1      49.758   7.808  16.263  0.00  0.00    +0.000 C 
ATOM     24  O   UNL     1      48.660   8.110  16.720  0.00  0.00    +0.000 OA
ATOM     25  H   UNL     1      51.330   8.338  15.033  0.00  0.00    +0.000 HD
BRANCH  23  26
ATOM     26  C   UNL     1      50.475   6.614  16.726  0.00  0.00    +0.000 A 
ATOM     27  C   UNL     1      51.825   6.700  17.034  0.00  0.00    +0.000 A 
ATOM     28  S   UNL     1      52.498   5.230  17.577  0.00  0.00    +0.000 S 
ATOM     29  C   UNL     1      51.019   4.415  17.378  0.00  0.00    +0.000 A 
ATOM     30  N   UNL     1      50.912   3.083  17.647  0.00  0.00    +0.000 NA
ATOM     31  C   UNL     1      49.737   2.591  17.420  0.00  0.00    +0.000 A 
ATOM     32  N   UNL     1      48.663   3.312  16.962  0.00  0.00    +0.000 N 
ATOM     33  C   UNL     1      48.718   4.659  16.728  0.00  0.00    +0.000 A 
ATOM     34  O   UNL     1      47.713   5.284  16.412  0.00  0.00    +0.000 OA
ATOM     35  C   UNL     1      50.019   5.261  16.930  0.00  0.00    +0.000 A 
ATOM     36  H   UNL     1      47.765   2.870  16.829  0.00  0.00    +0.000 HD
ENDBRANCH  23  26
ENDBRANCH  21  22
ENDBRANCH   4  21
TORSDOF 6
ENDMDL
