MODEL 1
REMARK VINA RESULT:    -8.991      0.000      0.000
REMARK INTER + INTRA:         -13.087
REMARK INTER:                 -12.144
REMARK INTRA:                  -0.943
REMARK UNBOUND:                -0.943
REMARK  Name = 
REMARK  7 active torsions:
REMARK  status: ('A' for Active; 'I' for Inactive)
REMARK    1  A    between atoms: C_1  and  C_2
REMARK    2  A    between atoms: C_2  and  N_3
REMARK    3  A    between atoms: C_2  and  C_24
REMARK    4  A    between atoms: N_3  and  C_4
REMARK    5  A    between atoms: C_8  and  C_9
REMARK    6  A    between atoms: C_9  and  N_10
REMARK    7  A    between atoms: C_11  and  C_13
REMARK                            x       y       z     vdW  Elec       q    Type
REMARK                         _______ _______ _______ _____ _____    ______ ____
ROOT
ATOM      1  C   UNL     1      44.529   3.781  11.412  0.00  0.00    +0.000 A 
ATOM      2  C   UNL     1      43.399   3.774  12.227  0.00  0.00    +0.000 A 
ATOM      3  C   UNL     1      43.184   4.825  13.104  0.00  0.00    +0.000 A 
ATOM      4  N   UNL     1      44.029   5.859  13.264  0.00  0.00    +0.000 NA
ATOM      5  C   UNL     1      45.170   5.836  12.533  0.00  0.00    +0.000 A 
ATOM      6  C   UNL     1      45.442   4.826  11.604  0.00  0.00    +0.000 A 
ENDROOT
BRANCH   1   7
ATOM      7  N   UNL     1      44.852   2.736  10.539  0.00  0.00    +0.000 N 
ATOM      8  H   UNL     1      45.813   2.413  10.643  0.00  0.00    +0.000 HD
BRANCH   7  10
ATOM      9  C   UNL     1      44.015   4.213   8.757  0.00  0.00    +0.000 C 
ATOM     10  C   UNL     1      44.478   2.796   9.110  0.00  0.00    +0.000 C 
BRANCH  10  11
ATOM     11  C   UNL     1      45.653   2.330   8.243  0.00  0.00    +0.000 A 
ATOM     12  C   UNL     1      46.319   3.260   7.441  0.00  0.00    +0.000 A 
ATOM     13  C   UNL     1      47.414   2.847   6.683  0.00  0.00    +0.000 A 
ATOM     14  C   UNL     1      47.820   1.521   6.742  0.00  0.00    +0.000 A 
ATOM     15  C   UNL     1      47.108   0.658   7.556  0.00  0.00    +0.000 A 
ATOM     16  N   UNL     1      46.042   1.029   8.299  0.00  0.00    +0.000 NA
ENDBRANCH  10  11
ENDBRANCH   7  10
ENDBRANCH   1   7
BRANCH   5  17
ATOM     17  C   UNL     1      46.148   6.965  12.759  0.00  0.00    +0.000 C 
BRANCH  17  18
ATOM     18  N   UNL     1      46.861   6.823  14.009  0.00  0.00    +0.000 N 
ATOM     19  C   UNL     1      48.161   6.389  14.041  0.00  0.00    +0.000 C 
ATOM     20  O   UNL     1      48.807   6.187  13.015  0.00  0.00    +0.000 OA
ATOM     21  H   UNL     1      46.280   6.719  14.837  0.00  0.00    +0.000 HD
BRANCH  19  22
ATOM     22  C   UNL     1      48.780   6.253  15.365  0.00  0.00    +0.000 A 
ATOM     23  C   UNL     1      49.856   7.064  15.703  0.00  0.00    +0.000 A 
ATOM     24  S   UNL     1      50.426   6.818  17.290  0.00  0.00    +0.000 S 
ATOM     25  C   UNL     1      49.291   5.581  17.565  0.00  0.00    +0.000 A 
ATOM     26  N   UNL     1      49.255   4.915  18.750  0.00  0.00    +0.000 NA
ATOM     27  C   UNL     1      48.367   3.979  18.808  0.00  0.00    +0.000 A 
ATOM     28  N   UNL     1      47.507   3.655  17.790  0.00  0.00    +0.000 N 
ATOM     29  C   UNL     1      47.484   4.323  16.590  0.00  0.00    +0.000 A 
ATOM     30  O   UNL     1      46.670   4.043  15.715  0.00  0.00    +0.000 OA
ATOM     31  C   UNL     1      48.474   5.375  16.466  0.00  0.00    +0.000 A 
ATOM     32  H   UNL     1      46.828   2.916  17.902  0.00  0.00    +0.000 HD
ENDBRANCH  19  22
ENDBRANCH  17  18
ENDBRANCH   5  17
TORSDOF 6
ENDMDL
MODEL 2
REMARK VINA RESULT:    -8.093      2.607      3.886
REMARK INTER + INTRA:         -11.874
REMARK INTER:                 -10.836
REMARK INTRA:                  -1.039
REMARK UNBOUND:                -0.943
REMARK  Name = 
REMARK  7 active torsions:
REMARK  status: ('A' for Active; 'I' for Inactive)
REMARK    1  A    between atoms: C_1  and  C_2
REMARK    2  A    between atoms: C_2  and  N_3
REMARK    3  A    between atoms: C_2  and  C_24
REMARK    4  A    between atoms: N_3  and  C_4
REMARK    5  A    between atoms: C_8  and  C_9
REMARK    6  A    between atoms: C_9  and  N_10
REMARK    7  A    between atoms: C_11  and  C_13
REMARK                            x       y       z     vdW  Elec       q    Type
REMARK                         _______ _______ _______ _____ _____    ______ ____
ROOT
ATOM      1  C   UNL     1      46.459   6.158  12.200  0.00  0.00    +0.000 A 
ATOM      2  C   UNL     1      47.560   7.012  12.153  0.00  0.00    +0.000 A 
ATOM      3  C   UNL     1      48.500   6.970  13.170  0.00  0.00    +0.000 A 
ATOM      4  N   UNL     1      48.406   6.176  14.252  0.00  0.00    +0.000 NA
ATOM      5  C   UNL     1      47.300   5.398  14.347  0.00  0.00    +0.000 A 
ATOM      6  C   UNL     1      46.324   5.362  13.345  0.00  0.00    +0.000 A 
ENDROOT
BRANCH   1   7
ATOM      7  N   UNL     1      45.435   6.173  11.246  0.00  0.00    +0.000 N 
ATOM      8  H   UNL     1      44.891   7.034  11.259  0.00  0.00    +0.000 HD
BRANCH   7  10
ATOM      9  C   UNL     1      43.101   5.469  10.907  0.00  0.00    +0.000 C 
ATOM     10  C   UNL     1      44.551   5.002  11.063  0.00  0.00    +0.000 C 
BRANCH  10  11
ATOM     11  C   UNL     1      45.031   4.169   9.868  0.00  0.00    +0.000 A 
ATOM     12  C   UNL     1      44.778   2.795   9.851  0.00  0.00    +0.000 A 
ATOM     13  C   UNL     1      45.177   2.043   8.748  0.00  0.00    +0.000 A 
ATOM     14  C   UNL     1      45.816   2.673   7.689  0.00  0.00    +0.000 A 
ATOM     15  C   UNL     1      46.036   4.036   7.780  0.00  0.00    +0.000 A 
ATOM     16  N   UNL     1      45.663   4.791   8.838  0.00  0.00    +0.000 NA
ENDBRANCH  10  11
ENDBRANCH   7  10
ENDBRANCH   1   7
BRANCH   5  17
ATOM     17  C   UNL     1      47.165   4.553  15.591  0.00  0.00    +0.000 C 
BRANCH  17  18
ATOM     18  N   UNL     1      48.450   4.243  16.178  0.00  0.00    +0.000 N 
ATOM     19  C   UNL     1      48.729   4.555  17.483  0.00  0.00    +0.000 C 
ATOM     20  O   UNL     1      47.882   5.027  18.237  0.00  0.00    +0.000 OA
ATOM     21  H   UNL     1      49.215   4.119  15.520  0.00  0.00    +0.000 HD
BRANCH  19  22
ATOM     22  C   UNL     1      50.074   4.221  17.968  0.00  0.00    +0.000 A 
ATOM     23  C   UNL     1      50.761   5.133  18.760  0.00  0.00    +0.000 A 
ATOM     24  S   UNL     1      52.284   4.575  19.283  0.00  0.00    +0.000 S 
ATOM     25  C   UNL     1      52.104   3.116  18.427  0.00  0.00    +0.000 A 
ATOM     26  N   UNL     1      53.087   2.176  18.432  0.00  0.00    +0.000 NA
ATOM     27  C   UNL     1      52.831   1.134  17.713  0.00  0.00    +0.000 A 
ATOM     28  N   UNL     1      51.678   0.945  16.995  0.00  0.00    +0.000 N 
ATOM     29  C   UNL     1      50.645   1.850  16.988  0.00  0.00    +0.000 A 
ATOM     30  O   UNL     1      49.605   1.632  16.376  0.00  0.00    +0.000 OA
ATOM     31  C   UNL     1      50.888   3.048  17.769  0.00  0.00    +0.000 A 
ATOM     32  H   UNL     1      51.535   0.102  16.458  0.00  0.00    +0.000 HD
ENDBRANCH  19  22
ENDBRANCH  17  18
ENDBRANCH   5  17
TORSDOF 6
ENDMDL
MODEL 3
REMARK VINA RESULT:    -7.954      1.599      2.506
REMARK INTER + INTRA:         -11.686
REMARK INTER:                 -10.397
REMARK INTRA:                  -1.289
REMARK UNBOUND:                -0.943
REMARK  Name = 
REMARK  7 active torsions:
REMARK  status: ('A' for Active; 'I' for Inactive)
REMARK    1  A    between atoms: C_1  and  C_2
REMARK    2  A    between atoms: C_2  and  N_3
REMARK    3  A    between atoms: C_2  and  C_24
REMARK    4  A    between atoms: N_3  and  C_4
REMARK    5  A    between atoms: C_8  and  C_9
REMARK    6  A    between atoms: C_9  and  N_10
REMARK    7  A    between atoms: C_11  and  C_13
REMARK                            x       y       z     vdW  Elec       q    Type
REMARK                         _______ _______ _______ _____ _____    ______ ____
ROOT
ATOM      1  C   UNL     1      45.183   7.086  11.245  0.00  0.00    +0.000 A 
ATOM      2  C   UNL     1      44.627   8.253  11.768  0.00  0.00    +0.000 A 
ATOM      3  C   UNL     1      45.428   9.130  12.480  0.00  0.00    +0.000 A 
ATOM      4  N   UNL     1      46.729   8.916  12.750  0.00  0.00    +0.000 NA
ATOM      5  C   UNL     1      47.260   7.748  12.313  0.00  0.00    +0.000 A 
ATOM      6  C   UNL     1      46.523   6.827  11.560  0.00  0.00    +0.000 A 
ENDROOT
BRANCH   1   7
ATOM      7  N   UNL     1      44.437   6.119  10.561  0.00  0.00    +0.000 N 
ATOM      8  H   UNL     1      43.462   6.387  10.434  0.00  0.00    +0.000 HD
BRANCH   7  10
ATOM      9  C   UNL     1      43.176   4.171  11.380  0.00  0.00    +0.000 C 
ATOM     10  C   UNL     1      44.541   4.689  10.918  0.00  0.00    +0.000 C 
BRANCH  10  11
ATOM     11  C   UNL     1      45.097   3.895   9.729  0.00  0.00    +0.000 A 
ATOM     12  C   UNL     1      45.671   4.585   8.658  0.00  0.00    +0.000 A 
ATOM     13  C   UNL     1      46.214   3.864   7.596  0.00  0.00    +0.000 A 
ATOM     14  C   UNL     1      46.174   2.477   7.625  0.00  0.00    +0.000 A 
ATOM     15  C   UNL     1      45.587   1.864   8.717  0.00  0.00    +0.000 A 
ATOM     16  N   UNL     1      45.049   2.537   9.760  0.00  0.00    +0.000 NA
ENDBRANCH  10  11
ENDBRANCH   7  10
ENDBRANCH   1   7
BRANCH   5  17
ATOM     17  C   UNL     1      48.703   7.480  12.670  0.00  0.00    +0.000 C 
BRANCH  17  18
ATOM     18  N   UNL     1      48.825   6.673  13.864  0.00  0.00    +0.000 N 
ATOM     19  C   UNL     1      49.056   7.245  15.088  0.00  0.00    +0.000 C 
ATOM     20  O   UNL     1      49.082   8.464  15.245  0.00  0.00    +0.000 OA
ATOM     21  H   UNL     1      49.076   5.699  13.713  0.00  0.00    +0.000 HD
BRANCH  19  22
ATOM     22  C   UNL     1      49.191   6.332  16.229  0.00  0.00    +0.000 A 
ATOM     23  C   UNL     1      50.172   6.571  17.184  0.00  0.00    +0.000 A 
ATOM     24  S   UNL     1      50.164   5.451  18.469  0.00  0.00    +0.000 S 
ATOM     25  C   UNL     1      48.885   4.574  17.769  0.00  0.00    +0.000 A 
ATOM     26  N   UNL     1      48.397   3.453  18.365  0.00  0.00    +0.000 NA
ATOM     27  C   UNL     1      47.452   2.869  17.707  0.00  0.00    +0.000 A 
ATOM     28  N   UNL     1      46.945   3.311  16.511  0.00  0.00    +0.000 N 
ATOM     29  C   UNL     1      47.381   4.456  15.892  0.00  0.00    +0.000 A 
ATOM     30  O   UNL     1      46.875   4.854  14.847  0.00  0.00    +0.000 OA
ATOM     31  C   UNL     1      48.457   5.143  16.581  0.00  0.00    +0.000 A 
ATOM     32  H   UNL     1      46.197   2.813  16.051  0.00  0.00    +0.000 HD
ENDBRANCH  19  22
ENDBRANCH  17  18
ENDBRANCH   5  17
TORSDOF 6
ENDMDL
MODEL 4
REMARK VINA RESULT:    -7.632      1.875      2.792
REMARK INTER + INTRA:         -11.252
REMARK INTER:                 -10.075
REMARK INTRA:                  -1.176
REMARK UNBOUND:                -0.943
REMARK  Name = 
REMARK  7 active torsions:
REMARK  status: ('A' for Active; 'I' for Inactive)
REMARK    1  A    between atoms: C_1  and  C_2
REMARK    2  A    between atoms: C_2  and  N_3
REMARK    3  A    between atoms: C_2  and  C_24
REMARK    4  A    between atoms: N_3  and  C_4
REMARK    5  A    between atoms: C_8  and  C_9
REMARK    6  A    between atoms: C_9  and  N_10
REMARK    7  A    between atoms: C_11  and  C_13
REMARK                            x       y       z     vdW  Elec       q    Type
REMARK                         _______ _______ _______ _____ _____    ______ ____
ROOT
ATOM      1  C   UNL     1      45.347   6.933  11.481  0.00  0.00    +0.000 A 
ATOM      2  C   UNL     1      44.904   8.206  11.836  0.00  0.00    +0.000 A 
ATOM      3  C   UNL     1      45.646   8.961  12.729  0.00  0.00    +0.000 A 
ATOM      4  N   UNL     1      46.771   8.531  13.329  0.00  0.00    +0.000 NA
ATOM      5  C   UNL     1      47.168   7.266  13.051  0.00  0.00    +0.000 A 
ATOM      6  C   UNL     1      46.489   6.454  12.135  0.00  0.00    +0.000 A 
ENDROOT
BRANCH   1   7
ATOM      7  N   UNL     1      44.632   6.081  10.630  0.00  0.00    +0.000 N 
ATOM      8  H   UNL     1      43.716   6.449  10.377  0.00  0.00    +0.000 HD
BRANCH   7  10
ATOM      9  C   UNL     1      43.108   4.245  11.235  0.00  0.00    +0.000 C 
ATOM     10  C   UNL     1      44.553   4.630  10.901  0.00  0.00    +0.000 C 
BRANCH  10  11
ATOM     11  C   UNL     1      45.107   3.846   9.705  0.00  0.00    +0.000 A 
ATOM     12  C   UNL     1      45.686   4.544   8.642  0.00  0.00    +0.000 A 
ATOM     13  C   UNL     1      46.227   3.831   7.574  0.00  0.00    +0.000 A 
ATOM     14  C   UNL     1      46.181   2.444   7.588  0.00  0.00    +0.000 A 
ATOM     15  C   UNL     1      45.589   1.824   8.673  0.00  0.00    +0.000 A 
ATOM     16  N   UNL     1      45.053   2.488   9.722  0.00  0.00    +0.000 NA
ENDBRANCH  10  11
ENDBRANCH   7  10
ENDBRANCH   1   7
BRANCH   5  17
ATOM     17  C   UNL     1      48.396   6.762  13.771  0.00  0.00    +0.000 C 
BRANCH  17  18
ATOM     18  N   UNL     1      48.185   6.666  15.199  0.00  0.00    +0.000 N 
ATOM     19  C   UNL     1      48.920   7.416  16.079  0.00  0.00    +0.000 C 
ATOM     20  O   UNL     1      49.725   8.265  15.699  0.00  0.00    +0.000 OA
ATOM     21  H   UNL     1      47.746   5.807  15.522  0.00  0.00    +0.000 HD
BRANCH  19  22
ATOM     22  C   UNL     1      48.645   7.220  17.507  0.00  0.00    +0.000 A 
ATOM     23  C   UNL     1      48.214   8.294  18.275  0.00  0.00    +0.000 A 
ATOM     24  S   UNL     1      47.889   7.889  19.898  0.00  0.00    +0.000 S 
ATOM     25  C   UNL     1      48.364   6.275  19.648  0.00  0.00    +0.000 A 
ATOM     26  N   UNL     1      48.349   5.375  20.667  0.00  0.00    +0.000 NA
ATOM     27  C   UNL     1      48.768   4.197  20.343  0.00  0.00    +0.000 A 
ATOM     28  N   UNL     1      49.192   3.836  19.090  0.00  0.00    +0.000 N 
ATOM     29  C   UNL     1      49.190   4.701  18.023  0.00  0.00    +0.000 A 
ATOM     30  O   UNL     1      49.529   4.337  16.901  0.00  0.00    +0.000 OA
ATOM     31  C   UNL     1      48.745   6.045  18.336  0.00  0.00    +0.000 A 
ATOM     32  H   UNL     1      49.499   2.893  18.899  0.00  0.00    +0.000 HD
ENDBRANCH  19  22
ENDBRANCH  17  18
ENDBRANCH   5  17
TORSDOF 6
ENDMDL
MODEL 5
REMARK VINA RESULT:    -7.409      2.833      8.247
REMARK INTER + INTRA:         -10.951
REMARK INTER:                  -9.542
REMARK INTRA:                  -1.409
REMARK UNBOUND:                -0.943
REMARK  Name = 
REMARK  7 active torsions:
REMARK  status: ('A' for Active; 'I' for Inactive)
REMARK    1  A    between atoms: C_1  and  C_2
REMARK    2  A    between atoms: C_2  and  N_3
REMARK    3  A    between atoms: C_2  and  C_24
REMARK    4  A    between atoms: N_3  and  C_4
REMARK    5  A    between atoms: C_8  and  C_9
REMARK    6  A    between atoms: C_9  and  N_10
REMARK    7  A    between atoms: C_11  and  C_13
REMARK                            x       y       z     vdW  Elec       q    Type
REMARK                         _______ _______ _______ _____ _____    ______ ____
ROOT
ATOM      1  C   UNL     1      48.897   7.687  15.458  0.00  0.00    +0.000 A 
ATOM      2  C   UNL     1      50.274   7.806  15.282  0.00  0.00    +0.000 A 
ATOM      3  C   UNL     1      50.782   8.028  14.012  0.00  0.00    +0.000 A 
ATOM      4  N   UNL     1      50.030   8.097  12.899  0.00  0.00    +0.000 NA
ATOM      5  C   UNL     1      48.697   7.905  13.048  0.00  0.00    +0.000 A 
ATOM      6  C   UNL     1      48.106   7.707  14.302  0.00  0.00    +0.000 A 
ENDROOT
BRANCH   1   7
ATOM      7  N   UNL     1      48.302   7.407  16.694  0.00  0.00    +0.000 N 
ATOM      8  H   UNL     1      47.840   8.217  17.105  0.00  0.00    +0.000 HD
BRANCH   7  10
ATOM      9  C   UNL     1      48.519   7.040  19.118  0.00  0.00    +0.000 C 
ATOM     10  C   UNL     1      49.029   6.643  17.730  0.00  0.00    +0.000 C 
BRANCH  10  11
ATOM     11  C   UNL     1      48.889   5.139  17.461  0.00  0.00    +0.000 A 
ATOM     12  C   UNL     1      47.615   4.594  17.287  0.00  0.00    +0.000 A 
ATOM     13  C   UNL     1      47.488   3.236  17.003  0.00  0.00    +0.000 A 
ATOM     14  C   UNL     1      48.630   2.453  16.898  0.00  0.00    +0.000 A 
ATOM     15  C   UNL     1      49.857   3.063  17.087  0.00  0.00    +0.000 A 
ATOM     16  N   UNL     1      50.011   4.377  17.367  0.00  0.00    +0.000 NA
ENDBRANCH  10  11
ENDBRANCH   7  10
ENDBRANCH   1   7
BRANCH   5  17
ATOM     17  C   UNL     1      47.860   7.920  11.792  0.00  0.00    +0.000 C 
BRANCH  17  18
ATOM     18  N   UNL     1      47.105   6.697  11.628  0.00  0.00    +0.000 N 
ATOM     19  C   UNL     1      45.746   6.672  11.796  0.00  0.00    +0.000 C 
ATOM     20  O   UNL     1      45.095   7.693  12.004  0.00  0.00    +0.000 OA
ATOM     21  H   UNL     1      47.637   5.836  11.730  0.00  0.00    +0.000 HD
BRANCH  19  22
ATOM     22  C   UNL     1      45.084   5.372  11.633  0.00  0.00    +0.000 A 
ATOM     23  C   UNL     1      44.404   4.812  12.708  0.00  0.00    +0.000 A 
ATOM     24  S   UNL     1      43.648   3.329  12.342  0.00  0.00    +0.000 S 
ATOM     25  C   UNL     1      44.247   3.354  10.750  0.00  0.00    +0.000 A 
ATOM     26  N   UNL     1      43.983   2.336   9.886  0.00  0.00    +0.000 NA
ATOM     27  C   UNL     1      44.529   2.470   8.724  0.00  0.00    +0.000 A 
ATOM     28  N   UNL     1      45.308   3.532   8.344  0.00  0.00    +0.000 N 
ATOM     29  C   UNL     1      45.572   4.598   9.170  0.00  0.00    +0.000 A 
ATOM     30  O   UNL     1      46.232   5.558   8.787  0.00  0.00    +0.000 OA
ATOM     31  C   UNL     1      44.996   4.491  10.496  0.00  0.00    +0.000 A 
ATOM     32  H   UNL     1      45.699   3.581   7.414  0.00  0.00    +0.000 HD
ENDBRANCH  19  22
ENDBRANCH  17  18
ENDBRANCH   5  17
TORSDOF 6
ENDMDL
MODEL 6
REMARK VINA RESULT:    -7.229      3.768      8.723
REMARK INTER + INTRA:         -10.708
REMARK INTER:                  -9.702
REMARK INTRA:                  -1.006
REMARK UNBOUND:                -0.943
REMARK  Name = 
REMARK  7 active torsions:
REMARK  status: ('A' for Active; 'I' for Inactive)
REMARK    1  A    between atoms: C_1  and  C_2
REMARK    2  A    between atoms: C_2  and  N_3
REMARK    3  A    between atoms: C_2  and  C_24
REMARK    4  A    between atoms: N_3  and  C_4
REMARK    5  A    between atoms: C_8  and  C_9
REMARK    6  A    between atoms: C_9  and  N_10
REMARK    7  A    between atoms: C_11  and  C_13
REMARK                            x       y       z     vdW  Elec       q    Type
REMARK                         _______ _______ _______ _____ _____    ______ ____
ROOT
ATOM      1  C   UNL     1      50.544   3.712  18.042  0.00  0.00    +0.000 A 
ATOM      2  C   UNL     1      49.667   2.648  17.838  0.00  0.00    +0.000 A 
ATOM      3  C   UNL     1      48.599   2.802  16.968  0.00  0.00    +0.000 A 
ATOM      4  N   UNL     1      48.312   3.946  16.321  0.00  0.00    +0.000 NA
ATOM      5  C   UNL     1      49.113   5.009  16.572  0.00  0.00    +0.000 A 
ATOM      6  C   UNL     1      50.229   4.923  17.412  0.00  0.00    +0.000 A 
ENDROOT
BRANCH   1   7
ATOM      7  N   UNL     1      51.614   3.662  18.943  0.00  0.00    +0.000 N 
ATOM      8  H   UNL     1      51.422   4.148  19.817  0.00  0.00    +0.000 HD
BRANCH   7  10
ATOM      9  C   UNL     1      53.781   4.617  19.615  0.00  0.00    +0.000 C 
ATOM     10  C   UNL     1      52.997   3.928  18.494  0.00  0.00    +0.000 C 
BRANCH  10  11
ATOM     11  C   UNL     1      53.657   2.622  18.034  0.00  0.00    +0.000 A 
ATOM     12  C   UNL     1      54.763   2.680  17.183  0.00  0.00    +0.000 A 
ATOM     13  C   UNL     1      55.389   1.496  16.798  0.00  0.00    +0.000 A 
ATOM     14  C   UNL     1      54.900   0.284  17.266  0.00  0.00    +0.000 A 
ATOM     15  C   UNL     1      53.798   0.306  18.102  0.00  0.00    +0.000 A 
ATOM     16  N   UNL     1      53.169   1.438  18.491  0.00  0.00    +0.000 NA
ENDBRANCH  10  11
ENDBRANCH   7  10
ENDBRANCH   1   7
BRANCH   5  17
ATOM     17  C   UNL     1      48.754   6.309  15.893  0.00  0.00    +0.000 C 
BRANCH  17  18
ATOM     18  N   UNL     1      47.610   6.167  15.019  0.00  0.00    +0.000 N 
ATOM     19  C   UNL     1      47.743   6.234  13.657  0.00  0.00    +0.000 C 
ATOM     20  O   UNL     1      48.841   6.329  13.112  0.00  0.00    +0.000 OA
ATOM     21  H   UNL     1      46.706   6.363  15.442  0.00  0.00    +0.000 HD
BRANCH  19  22
ATOM     22  C   UNL     1      46.514   6.105  12.865  0.00  0.00    +0.000 A 
ATOM     23  C   UNL     1      45.934   7.240  12.312  0.00  0.00    +0.000 A 
ATOM     24  S   UNL     1      44.544   6.914  11.380  0.00  0.00    +0.000 S 
ATOM     25  C   UNL     1      44.635   5.251  11.728  0.00  0.00    +0.000 A 
ATOM     26  N   UNL     1      43.705   4.384  11.245  0.00  0.00    +0.000 NA
ATOM     27  C   UNL     1      43.877   3.159  11.615  0.00  0.00    +0.000 A 
ATOM     28  N   UNL     1      44.899   2.722  12.418  0.00  0.00    +0.000 N 
ATOM     29  C   UNL     1      45.880   3.555  12.899  0.00  0.00    +0.000 A 
ATOM     30  O   UNL     1      46.810   3.127  13.575  0.00  0.00    +0.000 OA
ATOM     31  C   UNL     1      45.725   4.947  12.526  0.00  0.00    +0.000 A 
ATOM     32  H   UNL     1      44.983   1.746  12.664  0.00  0.00    +0.000 HD
ENDBRANCH  19  22
ENDBRANCH  17  18
ENDBRANCH   5  17
TORSDOF 6
ENDMDL
MODEL 7
REMARK VINA RESULT:    -7.098      3.807      9.371
REMARK INTER + INTRA:         -10.531
REMARK INTER:                  -9.394
REMARK INTRA:                  -1.137
REMARK UNBOUND:                -0.943
REMARK  Name = 
REMARK  7 active torsions:
REMARK  status: ('A' for Active; 'I' for Inactive)
REMARK    1  A    between atoms: C_1  and  C_2
REMARK    2  A    between atoms: C_2  and  N_3
REMARK    3  A    between atoms: C_2  and  C_24
REMARK    4  A    between atoms: N_3  and  C_4
REMARK    5  A    between atoms: C_8  and  C_9
REMARK    6  A    between atoms: C_9  and  N_10
REMARK    7  A    between atoms: C_11  and  C_13
REMARK                            x       y       z     vdW  Elec       q    Type
REMARK                         _______ _______ _______ _____ _____    ______ ____
ROOT
ATOM      1  C   UNL     1      50.357   5.378  17.743  0.00  0.00    +0.000 A 
ATOM      2  C   UNL     1      51.284   4.339  17.814  0.00  0.00    +0.000 A 
ATOM      3  C   UNL     1      50.912   3.065  17.416  0.00  0.00    +0.000 A 
ATOM      4  N   UNL     1      49.677   2.736  16.995  0.00  0.00    +0.000 NA
ATOM      5  C   UNL     1      48.747   3.721  16.996  0.00  0.00    +0.000 A 
ATOM      6  C   UNL     1      49.055   5.039  17.353  0.00  0.00    +0.000 A 
ENDROOT
BRANCH   1   7
ATOM      7  N   UNL     1      50.630   6.681  18.175  0.00  0.00    +0.000 N 
ATOM      8  H   UNL     1      51.585   6.974  17.975  0.00  0.00    +0.000 HD
BRANCH   7  10
ATOM      9  C   UNL     1      51.437   7.655  20.287  0.00  0.00    +0.000 C 
ATOM     10  C   UNL     1      50.217   7.137  19.519  0.00  0.00    +0.000 C 
BRANCH  10  11
ATOM     11  C   UNL     1      49.111   8.192  19.394  0.00  0.00    +0.000 A 
ATOM     12  C   UNL     1      48.148   8.293  20.402  0.00  0.00    +0.000 A 
ATOM     13  C   UNL     1      47.167   9.277  20.310  0.00  0.00    +0.000 A 
ATOM     14  C   UNL     1      47.166  10.138  19.221  0.00  0.00    +0.000 A 
ATOM     15  C   UNL     1      48.148   9.974  18.261  0.00  0.00    +0.000 A 
ATOM     16  N   UNL     1      49.111   9.027  18.321  0.00  0.00    +0.000 NA
ENDBRANCH  10  11
ENDBRANCH   7  10
ENDBRANCH   1   7
BRANCH   5  17
ATOM     17  C   UNL     1      47.346   3.338  16.583  0.00  0.00    +0.000 C 
BRANCH  17  18
ATOM     18  N   UNL     1      46.758   4.313  15.691  0.00  0.00    +0.000 N 
ATOM     19  C   UNL     1      46.739   4.116  14.335  0.00  0.00    +0.000 C 
ATOM     20  O   UNL     1      47.136   3.073  13.821  0.00  0.00    +0.000 OA
ATOM     21  H   UNL     1      46.687   5.258  16.059  0.00  0.00    +0.000 HD
BRANCH  19  22
ATOM     22  C   UNL     1      46.143   5.183  13.521  0.00  0.00    +0.000 A 
ATOM     23  C   UNL     1      46.850   6.361  13.314  0.00  0.00    +0.000 A 
ATOM     24  S   UNL     1      46.044   7.475  12.306  0.00  0.00    +0.000 S 
ATOM     25  C   UNL     1      44.698   6.445  12.153  0.00  0.00    +0.000 A 
ATOM     26  N   UNL     1      43.612   6.817  11.423  0.00  0.00    +0.000 NA
ATOM     27  C   UNL     1      42.651   5.954  11.422  0.00  0.00    +0.000 A 
ATOM     28  N   UNL     1      42.681   4.750  12.079  0.00  0.00    +0.000 N 
ATOM     29  C   UNL     1      43.769   4.319  12.798  0.00  0.00    +0.000 A 
ATOM     30  O   UNL     1      43.787   3.216  13.334  0.00  0.00    +0.000 OA
ATOM     31  C   UNL     1      44.872   5.259  12.845  0.00  0.00    +0.000 A 
ATOM     32  H   UNL     1      41.898   4.115  12.031  0.00  0.00    +0.000 HD
ENDBRANCH  19  22
ENDBRANCH  17  18
ENDBRANCH   5  17
TORSDOF 6
ENDMDL
MODEL 8
REMARK VINA RESULT:    -6.986      3.117      7.912
REMARK INTER + INTRA:         -10.380
REMARK INTER:                  -9.239
REMARK INTRA:                  -1.140
REMARK UNBOUND:                -0.943
REMARK  Name = 
REMARK  7 active torsions:
REMARK  status: ('A' for Active; 'I' for Inactive)
REMARK    1  A    between atoms: C_1  and  C_2
REMARK    2  A    between atoms: C_2  and  N_3
REMARK    3  A    between atoms: C_2  and  C_24
REMARK    4  A    between atoms: N_3  and  C_4
REMARK    5  A    between atoms: C_8  and  C_9
REMARK    6  A    between atoms: C_9  and  N_10
REMARK    7  A    between atoms: C_11  and  C_13
REMARK                            x       y       z     vdW  Elec       q    Type
REMARK                         _______ _______ _______ _____ _____    ______ ____
ROOT
ATOM      1  C   UNL     1      48.554   6.310  15.622  0.00  0.00    +0.000 A 
ATOM      2  C   UNL     1      49.157   7.347  16.332  0.00  0.00    +0.000 A 
ATOM      3  C   UNL     1      49.350   8.573  15.716  0.00  0.00    +0.000 A 
ATOM      4  N   UNL     1      49.029   8.834  14.436  0.00  0.00    +0.000 NA
ATOM      5  C   UNL     1      48.514   7.810  13.713  0.00  0.00    +0.000 A 
ATOM      6  C   UNL     1      48.261   6.553  14.274  0.00  0.00    +0.000 A 
ENDROOT
BRANCH   1   7
ATOM      7  N   UNL     1      48.372   5.026  16.147  0.00  0.00    +0.000 N 
ATOM      8  H   UNL     1      47.457   4.633  15.928  0.00  0.00    +0.000 HD
BRANCH   7  10
ATOM      9  C   UNL     1      47.547   4.128  18.285  0.00  0.00    +0.000 C 
ATOM     10  C   UNL     1      48.751   4.714  17.541  0.00  0.00    +0.000 C 
BRANCH  10  11
ATOM     11  C   UNL     1      49.963   3.775  17.554  0.00  0.00    +0.000 A 
ATOM     12  C   UNL     1      51.186   4.248  18.035  0.00  0.00    +0.000 A 
ATOM     13  C   UNL     1      52.278   3.384  18.086  0.00  0.00    +0.000 A 
ATOM     14  C   UNL     1      52.128   2.072  17.659  0.00  0.00    +0.000 A 
ATOM     15  C   UNL     1      50.887   1.677  17.192  0.00  0.00    +0.000 A 
ATOM     16  N   UNL     1      49.811   2.493  17.128  0.00  0.00    +0.000 NA
ENDBRANCH  10  11
ENDBRANCH   7  10
ENDBRANCH   1   7
BRANCH   5  17
ATOM     17  C   UNL     1      48.212   8.085  12.259  0.00  0.00    +0.000 C 
BRANCH  17  18
ATOM     18  N   UNL     1      47.546   6.969  11.624  0.00  0.00    +0.000 N 
ATOM     19  C   UNL     1      46.183   6.941  11.483  0.00  0.00    +0.000 C 
ATOM     20  O   UNL     1      45.474   7.892  11.806  0.00  0.00    +0.000 OA
ATOM     21  H   UNL     1      48.067   6.096  11.611  0.00  0.00    +0.000 HD
BRANCH  19  22
ATOM     22  C   UNL     1      45.608   5.749  10.849  0.00  0.00    +0.000 A 
ATOM     23  C   UNL     1      45.790   5.542   9.488  0.00  0.00    +0.000 A 
ATOM     24  S   UNL     1      45.106   4.089   8.918  0.00  0.00    +0.000 S 
ATOM     25  C   UNL     1      44.494   3.709  10.459  0.00  0.00    +0.000 A 
ATOM     26  N   UNL     1      43.767   2.577  10.664  0.00  0.00    +0.000 NA
ATOM     27  C   UNL     1      43.337   2.433  11.873  0.00  0.00    +0.000 A 
ATOM     28  N   UNL     1      43.576   3.314  12.897  0.00  0.00    +0.000 N 
ATOM     29  C   UNL     1      44.333   4.449  12.745  0.00  0.00    +0.000 A 
ATOM     30  O   UNL     1      44.570   5.193  13.691  0.00  0.00    +0.000 OA
ATOM     31  C   UNL     1      44.828   4.669  11.400  0.00  0.00    +0.000 A 
ATOM     32  H   UNL     1      43.218   3.138  13.825  0.00  0.00    +0.000 HD
ENDBRANCH  19  22
ENDBRANCH  17  18
ENDBRANCH   5  17
TORSDOF 6
ENDMDL
MODEL 9
REMARK VINA RESULT:    -6.797      3.530      8.219
REMARK INTER + INTRA:         -10.123
REMARK INTER:                  -8.759
REMARK INTRA:                  -1.364
REMARK UNBOUND:                -0.943
REMARK  Name = 
REMARK  7 active torsions:
REMARK  status: ('A' for Active; 'I' for Inactive)
REMARK    1  A    between atoms: C_1  and  C_2
REMARK    2  A    between atoms: C_2  and  N_3
REMARK    3  A    between atoms: C_2  and  C_24
REMARK    4  A    between atoms: N_3  and  C_4
REMARK    5  A    between atoms: C_8  and  C_9
REMARK    6  A    between atoms: C_9  and  N_10
REMARK    7  A    between atoms: C_11  and  C_13
REMARK                            x       y       z     vdW  Elec       q    Type
REMARK                         _______ _______ _______ _____ _____    ______ ____
ROOT
ATOM      1  C   UNL     1      49.849   6.961  17.798  0.00  0.00    +0.000 A 
ATOM      2  C   UNL     1      51.194   6.874  17.441  0.00  0.00    +0.000 A 
ATOM      3  C   UNL     1      51.609   7.377  16.219  0.00  0.00    +0.000 A 
ATOM      4  N   UNL     1      50.782   7.919  15.306  0.00  0.00    +0.000 NA
ATOM      5  C   UNL     1      49.462   7.937  15.609  0.00  0.00    +0.000 A 
ATOM      6  C   UNL     1      48.971   7.477  16.836  0.00  0.00    +0.000 A 
ENDROOT
BRANCH   1   7
ATOM      7  N   UNL     1      49.335   6.430  18.987  0.00  0.00    +0.000 N 
ATOM      8  H   UNL     1      49.370   7.087  19.764  0.00  0.00    +0.000 HD
BRANCH   7  10
ATOM      9  C   UNL     1      49.052   4.776  20.788  0.00  0.00    +0.000 C 
ATOM     10  C   UNL     1      49.710   5.073  19.437  0.00  0.00    +0.000 C 
BRANCH  10  11
ATOM     11  C   UNL     1      49.333   4.045  18.363  0.00  0.00    +0.000 A 
ATOM     12  C   UNL     1      50.329   3.226  17.824  0.00  0.00    +0.000 A 
ATOM     13  C   UNL     1      49.982   2.264  16.878  0.00  0.00    +0.000 A 
ATOM     14  C   UNL     1      48.655   2.138  16.490  0.00  0.00    +0.000 A 
ATOM     15  C   UNL     1      47.726   2.987  17.065  0.00  0.00    +0.000 A 
ATOM     16  N   UNL     1      48.033   3.932  17.982  0.00  0.00    +0.000 NA
ENDBRANCH  10  11
ENDBRANCH   7  10
ENDBRANCH   1   7
BRANCH   5  17
ATOM     17  C   UNL     1      48.528   8.488  14.559  0.00  0.00    +0.000 C 
BRANCH  17  18
ATOM     18  N   UNL     1      47.512   7.531  14.180  0.00  0.00    +0.000 N 
ATOM     19  C   UNL     1      47.782   6.518  13.298  0.00  0.00    +0.000 C 
ATOM     20  O   UNL     1      48.912   6.320  12.857  0.00  0.00    +0.000 OA
ATOM     21  H   UNL     1      46.550   7.836  14.310  0.00  0.00    +0.000 HD
BRANCH  19  22
ATOM     22  C   UNL     1      46.670   5.620  12.962  0.00  0.00    +0.000 A 
ATOM     23  C   UNL     1      46.789   4.259  13.216  0.00  0.00    +0.000 A 
ATOM     24  S   UNL     1      45.395   3.363  12.817  0.00  0.00    +0.000 S 
ATOM     25  C   UNL     1      44.602   4.753  12.240  0.00  0.00    +0.000 A 
ATOM     26  N   UNL     1      43.347   4.677  11.720  0.00  0.00    +0.000 NA
ATOM     27  C   UNL     1      42.881   5.801  11.288  0.00  0.00    +0.000 A 
ATOM     28  N   UNL     1      43.553   6.996  11.338  0.00  0.00    +0.000 N 
ATOM     29  C   UNL     1      44.805   7.126  11.886  0.00  0.00    +0.000 A 
ATOM     30  O   UNL     1      45.362   8.217  11.960  0.00  0.00    +0.000 OA
ATOM     31  C   UNL     1      45.383   5.888  12.371  0.00  0.00    +0.000 A 
ATOM     32  H   UNL     1      43.128   7.844  10.991  0.00  0.00    +0.000 HD
ENDBRANCH  19  22
ENDBRANCH  17  18
ENDBRANCH   5  17
TORSDOF 6
ENDMDL
