MODEL 1
REMARK VINA RESULT:    -7.819      0.000      0.000
REMARK INTER + INTRA:         -12.297
REMARK INTER:                 -11.476
REMARK INTRA:                  -0.821
REMARK UNBOUND:                -0.821
REMARK  Name = 
REMARK  9 active torsions:
REMARK  status: ('A' for Active; 'I' for Inactive)
REMARK    1  A    between atoms: C_1  and  C_2
REMARK    2  A    between atoms: C_2  and  N_3
REMARK    3  A    between atoms: C_2  and  C_19
REMARK    4  A    between atoms: N_3  and  C_4
REMARK    5  A    between atoms: C_4  and  C_5
REMARK    6  A    between atoms: C_8  and  C_9
REMARK    7  A    between atoms: C_9  and  O_10
REMARK    8  A    between atoms: O_10  and  C_11
REMARK    9  A    between atoms: C_11  and  C_12
REMARK                            x       y       z     vdW  Elec       q    Type
REMARK                         _______ _______ _______ _____ _____    ______ ____
ROOT
ATOM      1  C   UNL     1      46.947   4.485  15.147  0.00  0.00    +0.000 C 
ENDROOT
BRANCH   1   2
ATOM      2  C   UNL     1      47.212   4.293  13.638  0.00  0.00    +0.000 C 
ATOM      3  C   UNL     1      46.164   3.408  12.938  0.00  0.00    +0.000 C 
ATOM      4  C   UNL     1      44.812   4.102  12.784  0.00  0.00    +0.000 C 
ATOM      5  C   UNL     1      44.926   5.456  12.065  0.00  0.00    +0.000 C 
ATOM      6  C   UNL     1      45.958   6.347  12.774  0.00  0.00    +0.000 C 
ATOM      7  C   UNL     1      47.316   5.663  12.943  0.00  0.00    +0.000 C 
BRANCH   5   8
ATOM      8  C   UNL     1      45.246   5.297  10.568  0.00  0.00    +0.000 C 
BRANCH   8   9
ATOM      9  O   UNL     1      44.704   4.060  10.089  0.00  0.00    +0.000 OA
BRANCH   9  10
ATOM     10  C   UNL     1      44.534   4.093   8.672  0.00  0.00    +0.000 C 
BRANCH  10  11
ATOM     11  C   UNL     1      45.616   3.277   8.049  0.00  0.00    +0.000 A 
ATOM     12  C   UNL     1      46.559   3.623   7.099  0.00  0.00    +0.000 A 
ATOM     13  C   UNL     1      47.350   2.482   6.832  0.00  0.00    +0.000 A 
ATOM     14  C   UNL     1      46.875   1.464   7.628  0.00  0.00    +0.000 A 
ATOM     15  N   UNL     1      45.832   1.956   8.369  0.00  0.00    +0.000 N 
ATOM     16  H   UNL     1      45.286   1.443   9.050  0.00  0.00    +0.000 HD
ENDBRANCH  10  11
ENDBRANCH   9  10
ENDBRANCH   8   9
ENDBRANCH   5   8
ENDBRANCH   1   2
BRANCH   1  17
ATOM     17  N   UNL     1      48.204   4.550  15.886  0.00  0.00    +0.000 NA
ATOM     18  H   UNL     1      48.875   3.913  15.457  0.00  0.00    +0.000 HD
BRANCH  17  20
ATOM     19  C   UNL     1      47.190   5.100  18.101  0.00  0.00    +0.000 C 
ATOM     20  C   UNL     1      48.082   4.153  17.293  0.00  0.00    +0.000 C 
BRANCH  20  21
ATOM     21  C   UNL     1      49.486   4.125  17.870  0.00  0.00    +0.000 A 
ATOM     22  C   UNL     1      50.024   5.081  18.722  0.00  0.00    +0.000 A 
ATOM     23  S   UNL     1      51.621   4.729  19.213  0.00  0.00    +0.000 S 
ATOM     24  C   UNL     1      51.638   3.283  18.315  0.00  0.00    +0.000 A 
ATOM     25  N   UNL     1      52.723   2.465  18.315  0.00  0.00    +0.000 NA
ATOM     26  C   UNL     1      52.584   1.401  17.595  0.00  0.00    +0.000 A 
ATOM     27  N   UNL     1      51.463   1.088  16.865  0.00  0.00    +0.000 N 
ATOM     28  C   UNL     1      50.342   1.878  16.831  0.00  0.00    +0.000 A 
ATOM     29  O   UNL     1      49.355   1.569  16.174  0.00  0.00    +0.000 OA
ATOM     30  C   UNL     1      50.452   3.082  17.637  0.00  0.00    +0.000 A 
ATOM     31  H   UNL     1      51.425   0.238  16.321  0.00  0.00    +0.000 HD
ENDBRANCH  20  21
ENDBRANCH  17  20
ENDBRANCH   1  17
TORSDOF 8
ENDMDL
MODEL 2
REMARK VINA RESULT:    -7.076      1.348      1.576
REMARK INTER + INTRA:         -11.207
REMARK INTER:                 -10.340
REMARK INTRA:                  -0.867
REMARK UNBOUND:                -0.821
REMARK  Name = 
REMARK  9 active torsions:
REMARK  status: ('A' for Active; 'I' for Inactive)
REMARK    1  A    between atoms: C_1  and  C_2
REMARK    2  A    between atoms: C_2  and  N_3
REMARK    3  A    between atoms: C_2  and  C_19
REMARK    4  A    between atoms: N_3  and  C_4
REMARK    5  A    between atoms: C_4  and  C_5
REMARK    6  A    between atoms: C_8  and  C_9
REMARK    7  A    between atoms: C_9  and  O_10
REMARK    8  A    between atoms: O_10  and  C_11
REMARK    9  A    between atoms: C_11  and  C_12
REMARK                            x       y       z     vdW  Elec       q    Type
REMARK                         _______ _______ _______ _____ _____    ______ ____
ROOT
ATOM      1  C   UNL     1      48.420   6.959  14.843  0.00  0.00    +0.000 C 
ENDROOT
BRANCH   1   2
ATOM      2  C   UNL     1      48.171   6.406  13.423  0.00  0.00    +0.000 C 
ATOM      3  C   UNL     1      47.367   5.092  13.408  0.00  0.00    +0.000 C 
ATOM      4  C   UNL     1      45.897   5.295  13.769  0.00  0.00    +0.000 C 
ATOM      5  C   UNL     1      45.213   6.344  12.878  0.00  0.00    +0.000 C 
ATOM      6  C   UNL     1      46.005   7.661  12.907  0.00  0.00    +0.000 C 
ATOM      7  C   UNL     1      47.482   7.473  12.554  0.00  0.00    +0.000 C 
BRANCH   5   8
ATOM      8  C   UNL     1      45.003   5.839  11.439  0.00  0.00    +0.000 C 
BRANCH   8   9
ATOM      9  O   UNL     1      44.470   4.509  11.469  0.00  0.00    +0.000 OA
BRANCH   9  10
ATOM     10  C   UNL     1      43.767   4.215  10.261  0.00  0.00    +0.000 C 
BRANCH  10  11
ATOM     11  C   UNL     1      44.690   3.485   9.345  0.00  0.00    +0.000 A 
ATOM     12  C   UNL     1      45.377   3.931   8.231  0.00  0.00    +0.000 A 
ATOM     13  C   UNL     1      46.108   2.843   7.703  0.00  0.00    +0.000 A 
ATOM     14  C   UNL     1      45.854   1.755   8.508  0.00  0.00    +0.000 A 
ATOM     15  N   UNL     1      45.003   2.155   9.506  0.00  0.00    +0.000 N 
ATOM     16  H   UNL     1      44.642   1.576  10.254  0.00  0.00    +0.000 HD
ENDBRANCH  10  11
ENDBRANCH   9  10
ENDBRANCH   8   9
ENDBRANCH   5   8
ENDBRANCH   1   2
BRANCH   1  17
ATOM     17  N   UNL     1      49.523   6.251  15.486  0.00  0.00    +0.000 NA
ATOM     18  H   UNL     1      49.842   5.504  14.868  0.00  0.00    +0.000 HD
BRANCH  17  20
ATOM     19  C   UNL     1      48.501   6.599  17.737  0.00  0.00    +0.000 C 
ATOM     20  C   UNL     1      49.156   5.620  16.759  0.00  0.00    +0.000 C 
BRANCH  20  21
ATOM     21  C   UNL     1      50.430   5.047  17.353  0.00  0.00    +0.000 A 
ATOM     22  C   UNL     1      51.419   5.783  17.993  0.00  0.00    +0.000 A 
ATOM     23  S   UNL     1      52.706   4.823  18.577  0.00  0.00    +0.000 S 
ATOM     24  C   UNL     1      51.974   3.396  18.005  0.00  0.00    +0.000 A 
ATOM     25  N   UNL     1      52.552   2.181  18.199  0.00  0.00    +0.000 NA
ATOM     26  C   UNL     1      51.876   1.191  17.718  0.00  0.00    +0.000 A 
ATOM     27  N   UNL     1      50.680   1.307  17.051  0.00  0.00    +0.000 N 
ATOM     28  C   UNL     1      50.055   2.508  16.830  0.00  0.00    +0.000 A 
ATOM     29  O   UNL     1      48.986   2.579  16.235  0.00  0.00    +0.000 OA
ATOM     30  C   UNL     1      50.779   3.650  17.364  0.00  0.00    +0.000 A 
ATOM     31  H   UNL     1      50.206   0.487  16.698  0.00  0.00    +0.000 HD
ENDBRANCH  20  21
ENDBRANCH  17  20
ENDBRANCH   1  17
TORSDOF 8
ENDMDL
MODEL 3
REMARK VINA RESULT:    -6.522      3.329      8.633
REMARK INTER + INTRA:         -10.394
REMARK INTER:                  -9.179
REMARK INTRA:                  -1.214
REMARK UNBOUND:                -0.821
REMARK  Name = 
REMARK  9 active torsions:
REMARK  status: ('A' for Active; 'I' for Inactive)
REMARK    1  A    between atoms: C_1  and  C_2
REMARK    2  A    between atoms: C_2  and  N_3
REMARK    3  A    between atoms: C_2  and  C_19
REMARK    4  A    between atoms: N_3  and  C_4
REMARK    5  A    between atoms: C_4  and  C_5
REMARK    6  A    between atoms: C_8  and  C_9
REMARK    7  A    between atoms: C_9  and  O_10
REMARK    8  A    between atoms: O_10  and  C_11
REMARK    9  A    between atoms: C_11  and  C_12
REMARK                            x       y       z     vdW  Elec       q    Type
REMARK                         _______ _______ _______ _____ _____    ______ ____
ROOT
ATOM      1  C   UNL     1      47.398   8.403  11.901  0.00  0.00    +0.000 C 
ENDROOT
BRANCH   1   2
ATOM      2  C   UNL     1      48.846   8.185  12.393  0.00  0.00    +0.000 C 
ATOM      3  C   UNL     1      49.334   9.273  13.368  0.00  0.00    +0.000 C 
ATOM      4  C   UNL     1      48.673   9.176  14.741  0.00  0.00    +0.000 C 
ATOM      5  C   UNL     1      48.838   7.786  15.375  0.00  0.00    +0.000 C 
ATOM      6  C   UNL     1      48.334   6.700  14.411  0.00  0.00    +0.000 C 
ATOM      7  C   UNL     1      48.982   6.789  13.028  0.00  0.00    +0.000 C 
BRANCH   5   8
ATOM      8  C   UNL     1      50.286   7.519  15.825  0.00  0.00    +0.000 C 
BRANCH   8   9
ATOM      9  O   UNL     1      50.445   6.130  16.137  0.00  0.00    +0.000 OA
BRANCH   9  10
ATOM     10  C   UNL     1      50.033   5.859  17.478  0.00  0.00    +0.000 C 
BRANCH  10  11
ATOM     11  C   UNL     1      49.025   4.760  17.447  0.00  0.00    +0.000 A 
ATOM     12  C   UNL     1      49.202   3.388  17.432  0.00  0.00    +0.000 A 
ATOM     13  C   UNL     1      47.926   2.783  17.387  0.00  0.00    +0.000 A 
ATOM     14  C   UNL     1      46.995   3.798  17.379  0.00  0.00    +0.000 A 
ATOM     15  N   UNL     1      47.668   4.991  17.426  0.00  0.00    +0.000 N 
ATOM     16  H   UNL     1      47.253   5.914  17.438  0.00  0.00    +0.000 HD
ENDBRANCH  10  11
ENDBRANCH   9  10
ENDBRANCH   8   9
ENDBRANCH   5   8
ENDBRANCH   1   2
BRANCH   1  17
ATOM     17  N   UNL     1      46.793   7.135  11.504  0.00  0.00    +0.000 NA
ATOM     18  H   UNL     1      47.283   6.776  10.685  0.00  0.00    +0.000 HD
BRANCH  17  20
ATOM     19  C   UNL     1      44.660   8.377  11.881  0.00  0.00    +0.000 C 
ATOM     20  C   UNL     1      45.377   7.248  11.135  0.00  0.00    +0.000 C 
BRANCH  20  21
ATOM     21  C   UNL     1      44.730   5.910  11.447  0.00  0.00    +0.000 A 
ATOM     22  C   UNL     1      43.996   5.619  12.589  0.00  0.00    +0.000 A 
ATOM     23  S   UNL     1      43.377   4.028  12.609  0.00  0.00    +0.000 S 
ATOM     24  C   UNL     1      44.058   3.684  11.087  0.00  0.00    +0.000 A 
ATOM     25  N   UNL     1      43.885   2.473  10.494  0.00  0.00    +0.000 NA
ATOM     26  C   UNL     1      44.452   2.364   9.339  0.00  0.00    +0.000 A 
ATOM     27  N   UNL     1      45.187   3.352   8.728  0.00  0.00    +0.000 N 
ATOM     28  C   UNL     1      45.393   4.590   9.284  0.00  0.00    +0.000 A 
ATOM     29  O   UNL     1      46.050   5.452   8.712  0.00  0.00    +0.000 OA
ATOM     30  C   UNL     1      44.762   4.759  10.582  0.00  0.00    +0.000 A 
ATOM     31  H   UNL     1      45.607   3.195   7.823  0.00  0.00    +0.000 HD
ENDBRANCH  20  21
ENDBRANCH  17  20
ENDBRANCH   1  17
TORSDOF 8
ENDMDL
MODEL 4
REMARK VINA RESULT:    -6.519      3.844      8.627
REMARK INTER + INTRA:         -10.389
REMARK INTER:                  -8.894
REMARK INTRA:                  -1.495
REMARK UNBOUND:                -0.821
REMARK  Name = 
REMARK  9 active torsions:
REMARK  status: ('A' for Active; 'I' for Inactive)
REMARK    1  A    between atoms: C_1  and  C_2
REMARK    2  A    between atoms: C_2  and  N_3
REMARK    3  A    between atoms: C_2  and  C_19
REMARK    4  A    between atoms: N_3  and  C_4
REMARK    5  A    between atoms: C_4  and  C_5
REMARK    6  A    between atoms: C_8  and  C_9
REMARK    7  A    between atoms: C_9  and  O_10
REMARK    8  A    between atoms: O_10  and  C_11
REMARK    9  A    between atoms: C_11  and  C_12
REMARK                            x       y       z     vdW  Elec       q    Type
REMARK                         _______ _______ _______ _____ _____    ______ ____
ROOT
ATOM      1  C   UNL     1      48.349   7.971  14.317  0.00  0.00    +0.000 C 
ENDROOT
BRANCH   1   2
ATOM      2  C   UNL     1      49.342   6.990  14.979  0.00  0.00    +0.000 C 
ATOM      3  C   UNL     1      50.650   7.658  15.441  0.00  0.00    +0.000 C 
ATOM      4  C   UNL     1      50.456   8.551  16.665  0.00  0.00    +0.000 C 
ATOM      5  C   UNL     1      49.799   7.806  17.838  0.00  0.00    +0.000 C 
ATOM      6  C   UNL     1      48.484   7.154  17.382  0.00  0.00    +0.000 C 
ATOM      7  C   UNL     1      48.660   6.262  16.151  0.00  0.00    +0.000 C 
BRANCH   5   8
ATOM      8  C   UNL     1      50.749   6.779  18.481  0.00  0.00    +0.000 C 
BRANCH   8   9
ATOM      9  O   UNL     1      50.028   5.987  19.433  0.00  0.00    +0.000 OA
BRANCH   9  10
ATOM     10  C   UNL     1      50.489   4.635  19.424  0.00  0.00    +0.000 C 
BRANCH  10  11
ATOM     11  C   UNL     1      49.600   3.841  18.528  0.00  0.00    +0.000 A 
ATOM     12  C   UNL     1      49.906   3.085  17.412  0.00  0.00    +0.000 A 
ATOM     13  C   UNL     1      48.703   2.542  16.908  0.00  0.00    +0.000 A 
ATOM     14  C   UNL     1      47.687   2.976  17.730  0.00  0.00    +0.000 A 
ATOM     15  N   UNL     1      48.240   3.753  18.714  0.00  0.00    +0.000 N 
ATOM     16  H   UNL     1      47.743   4.208  19.469  0.00  0.00    +0.000 HD
ENDBRANCH  10  11
ENDBRANCH   9  10
ENDBRANCH   8   9
ENDBRANCH   5   8
ENDBRANCH   1   2
BRANCH   1  17
ATOM     17  N   UNL     1      47.115   7.284  13.948  0.00  0.00    +0.000 NA
ATOM     18  H   UNL     1      46.864   6.630  14.689  0.00  0.00    +0.000 HD
BRANCH  17  20
ATOM     19  C   UNL     1      48.052   7.209  11.634  0.00  0.00    +0.000 C 
ATOM     20  C   UNL     1      47.224   6.502  12.711  0.00  0.00    +0.000 C 
BRANCH  20  21
ATOM     21  C   UNL     1      45.810   6.255  12.217  0.00  0.00    +0.000 A 
ATOM     22  C   UNL     1      44.985   7.207  11.633  0.00  0.00    +0.000 A 
ATOM     23  S   UNL     1      43.466   6.588  11.158  0.00  0.00    +0.000 S 
ATOM     24  C   UNL     1      43.869   5.027  11.705  0.00  0.00    +0.000 A 
ATOM     25  N   UNL     1      43.001   3.988  11.575  0.00  0.00    +0.000 NA
ATOM     26  C   UNL     1      43.450   2.865  12.027  0.00  0.00    +0.000 A 
ATOM     27  N   UNL     1      44.683   2.688  12.608  0.00  0.00    +0.000 N 
ATOM     28  C   UNL     1      45.595   3.702  12.762  0.00  0.00    +0.000 A 
ATOM     29  O   UNL     1      46.689   3.512  13.280  0.00  0.00    +0.000 OA
ATOM     30  C   UNL     1      45.133   4.984  12.257  0.00  0.00    +0.000 A 
ATOM     31  H   UNL     1      44.969   1.779  12.943  0.00  0.00    +0.000 HD
ENDBRANCH  20  21
ENDBRANCH  17  20
ENDBRANCH   1  17
TORSDOF 8
ENDMDL
MODEL 5
REMARK VINA RESULT:    -6.254      3.203      4.477
REMARK INTER + INTRA:         -10.000
REMARK INTER:                  -8.745
REMARK INTRA:                  -1.255
REMARK UNBOUND:                -0.821
REMARK  Name = 
REMARK  9 active torsions:
REMARK  status: ('A' for Active; 'I' for Inactive)
REMARK    1  A    between atoms: C_1  and  C_2
REMARK    2  A    between atoms: C_2  and  N_3
REMARK    3  A    between atoms: C_2  and  C_19
REMARK    4  A    between atoms: N_3  and  C_4
REMARK    5  A    between atoms: C_4  and  C_5
REMARK    6  A    between atoms: C_8  and  C_9
REMARK    7  A    between atoms: C_9  and  O_10
REMARK    8  A    between atoms: O_10  and  C_11
REMARK    9  A    between atoms: C_11  and  C_12
REMARK                            x       y       z     vdW  Elec       q    Type
REMARK                         _______ _______ _______ _____ _____    ______ ____
ROOT
ATOM      1  C   UNL     1      49.198   7.855  13.544  0.00  0.00    +0.000 C 
ENDROOT
BRANCH   1   2
ATOM      2  C   UNL     1      47.775   7.611  14.092  0.00  0.00    +0.000 C 
ATOM      3  C   UNL     1      46.703   8.499  13.433  0.00  0.00    +0.000 C 
ATOM      4  C   UNL     1      46.402   8.091  11.993  0.00  0.00    +0.000 C 
ATOM      5  C   UNL     1      46.009   6.610  11.871  0.00  0.00    +0.000 C 
ATOM      6  C   UNL     1      47.087   5.722  12.512  0.00  0.00    +0.000 C 
ATOM      7  C   UNL     1      47.406   6.123  13.954  0.00  0.00    +0.000 C 
BRANCH   5   8
ATOM      8  C   UNL     1      44.615   6.327  12.461  0.00  0.00    +0.000 C 
BRANCH   8   9
ATOM      9  O   UNL     1      43.642   6.310  11.409  0.00  0.00    +0.000 OA
BRANCH   9  10
ATOM     10  C   UNL     1      42.975   5.049  11.353  0.00  0.00    +0.000 C 
BRANCH  10  11
ATOM     11  C   UNL     1      43.697   4.177  10.382  0.00  0.00    +0.000 A 
ATOM     12  C   UNL     1      44.131   2.870  10.509  0.00  0.00    +0.000 A 
ATOM     13  C   UNL     1      44.778   2.505   9.307  0.00  0.00    +0.000 A 
ATOM     14  C   UNL     1      44.722   3.596   8.469  0.00  0.00    +0.000 A 
ATOM     15  N   UNL     1      44.057   4.600   9.123  0.00  0.00    +0.000 N 
ATOM     16  H   UNL     1      43.855   5.523   8.759  0.00  0.00    +0.000 HD
ENDBRANCH  10  11
ENDBRANCH   9  10
ENDBRANCH   8   9
ENDBRANCH   5   8
ENDBRANCH   1   2
BRANCH   1  17
ATOM     17  N   UNL     1      50.167   7.007  14.233  0.00  0.00    +0.000 NA
ATOM     18  H   UNL     1      49.714   6.133  14.497  0.00  0.00    +0.000 HD
BRANCH  17  20
ATOM     19  C   UNL     1      52.222   7.732  15.453  0.00  0.00    +0.000 C 
ATOM     20  C   UNL     1      50.697   7.600  15.467  0.00  0.00    +0.000 C 
BRANCH  20  21
ATOM     21  C   UNL     1      50.251   6.710  16.613  0.00  0.00    +0.000 A 
ATOM     22  C   UNL     1      50.798   5.474  16.930  0.00  0.00    +0.000 A 
ATOM     23  S   UNL     1      50.086   4.750  18.303  0.00  0.00    +0.000 S 
ATOM     24  C   UNL     1      49.035   6.071  18.524  0.00  0.00    +0.000 A 
ATOM     25  N   UNL     1      48.154   6.106  19.559  0.00  0.00    +0.000 NA
ATOM     26  C   UNL     1      47.431   7.175  19.601  0.00  0.00    +0.000 A 
ATOM     27  N   UNL     1      47.500   8.207  18.696  0.00  0.00    +0.000 N 
ATOM     28  C   UNL     1      48.371   8.221  17.635  0.00  0.00    +0.000 A 
ATOM     29  O   UNL     1      48.412   9.158  16.847  0.00  0.00    +0.000 OA
ATOM     30  C   UNL     1      49.212   7.039  17.556  0.00  0.00    +0.000 A 
ATOM     31  H   UNL     1      46.900   9.014  18.789  0.00  0.00    +0.000 HD
ENDBRANCH  20  21
ENDBRANCH  17  20
ENDBRANCH   1  17
TORSDOF 8
ENDMDL
MODEL 6
REMARK VINA RESULT:    -6.037      2.617      3.413
REMARK INTER + INTRA:          -9.682
REMARK INTER:                  -8.354
REMARK INTRA:                  -1.328
REMARK UNBOUND:                -0.821
REMARK  Name = 
REMARK  9 active torsions:
REMARK  status: ('A' for Active; 'I' for Inactive)
REMARK    1  A    between atoms: C_1  and  C_2
REMARK    2  A    between atoms: C_2  and  N_3
REMARK    3  A    between atoms: C_2  and  C_19
REMARK    4  A    between atoms: N_3  and  C_4
REMARK    5  A    between atoms: C_4  and  C_5
REMARK    6  A    between atoms: C_8  and  C_9
REMARK    7  A    between atoms: C_9  and  O_10
REMARK    8  A    between atoms: O_10  and  C_11
REMARK    9  A    between atoms: C_11  and  C_12
REMARK                            x       y       z     vdW  Elec       q    Type
REMARK                         _______ _______ _______ _____ _____    ______ ____
ROOT
ATOM      1  C   UNL     1      49.242   7.257  13.339  0.00  0.00    +0.000 C 
ENDROOT
BRANCH   1   2
ATOM      2  C   UNL     1      47.836   7.110  13.961  0.00  0.00    +0.000 C 
ATOM      3  C   UNL     1      46.849   8.204  13.514  0.00  0.00    +0.000 C 
ATOM      4  C   UNL     1      46.407   8.043  12.061  0.00  0.00    +0.000 C 
ATOM      5  C   UNL     1      45.819   6.651  11.778  0.00  0.00    +0.000 C 
ATOM      6  C   UNL     1      46.811   5.559  12.207  0.00  0.00    +0.000 C 
ATOM      7  C   UNL     1      47.270   5.712  13.659  0.00  0.00    +0.000 C 
BRANCH   5   8
ATOM      8  C   UNL     1      44.440   6.457  12.434  0.00  0.00    +0.000 C 
BRANCH   8   9
ATOM      9  O   UNL     1      43.966   5.130  12.175  0.00  0.00    +0.000 OA
BRANCH   9  10
ATOM     10  C   UNL     1      43.267   5.073  10.930  0.00  0.00    +0.000 C 
BRANCH  10  11
ATOM     11  C   UNL     1      43.977   4.115  10.035  0.00  0.00    +0.000 A 
ATOM     12  C   UNL     1      44.535   2.881  10.315  0.00  0.00    +0.000 A 
ATOM     13  C   UNL     1      45.105   2.379   9.123  0.00  0.00    +0.000 A 
ATOM     14  C   UNL     1      44.880   3.315   8.139  0.00  0.00    +0.000 A 
ATOM     15  N   UNL     1      44.188   4.359   8.697  0.00  0.00    +0.000 N 
ATOM     16  H   UNL     1      43.873   5.194   8.220  0.00  0.00    +0.000 HD
ENDBRANCH  10  11
ENDBRANCH   9  10
ENDBRANCH   8   9
ENDBRANCH   5   8
ENDBRANCH   1   2
BRANCH   1  17
ATOM     17  N   UNL     1      50.276   7.052  14.349  0.00  0.00    +0.000 NA
ATOM     18  H   UNL     1      50.259   6.078  14.648  0.00  0.00    +0.000 HD
BRANCH  17  20
ATOM     19  C   UNL     1      50.156   9.372  15.265  0.00  0.00    +0.000 C 
ATOM     20  C   UNL     1      50.093   7.869  15.554  0.00  0.00    +0.000 C 
BRANCH  20  21
ATOM     21  C   UNL     1      51.185   7.470  16.530  0.00  0.00    +0.000 A 
ATOM     22  C   UNL     1      52.284   8.249  16.869  0.00  0.00    +0.000 A 
ATOM     23  S   UNL     1      53.304   7.514  18.025  0.00  0.00    +0.000 S 
ATOM     24  C   UNL     1      52.302   6.141  18.119  0.00  0.00    +0.000 A 
ATOM     25  N   UNL     1      52.591   5.113  18.960  0.00  0.00    +0.000 NA
ATOM     26  C   UNL     1      51.735   4.146  18.927  0.00  0.00    +0.000 A 
ATOM     27  N   UNL     1      50.623   4.109  18.121  0.00  0.00    +0.000 N 
ATOM     28  C   UNL     1      50.286   5.120  17.256  0.00  0.00    +0.000 A 
ATOM     29  O   UNL     1      49.284   5.060  16.553  0.00  0.00    +0.000 OA
ATOM     30  C   UNL     1      51.219   6.233  17.269  0.00  0.00    +0.000 A 
ATOM     31  H   UNL     1      49.996   3.317  18.146  0.00  0.00    +0.000 HD
ENDBRANCH  20  21
ENDBRANCH  17  20
ENDBRANCH   1  17
TORSDOF 8
ENDMDL
MODEL 7
REMARK VINA RESULT:    -5.956      5.133      8.553
REMARK INTER + INTRA:          -9.562
REMARK INTER:                  -8.363
REMARK INTRA:                  -1.199
REMARK UNBOUND:                -0.821
REMARK  Name = 
REMARK  9 active torsions:
REMARK  status: ('A' for Active; 'I' for Inactive)
REMARK    1  A    between atoms: C_1  and  C_2
REMARK    2  A    between atoms: C_2  and  N_3
REMARK    3  A    between atoms: C_2  and  C_19
REMARK    4  A    between atoms: N_3  and  C_4
REMARK    5  A    between atoms: C_4  and  C_5
REMARK    6  A    between atoms: C_8  and  C_9
REMARK    7  A    between atoms: C_9  and  O_10
REMARK    8  A    between atoms: O_10  and  C_11
REMARK    9  A    between atoms: C_11  and  C_12
REMARK                            x       y       z     vdW  Elec       q    Type
REMARK                         _______ _______ _______ _____ _____    ______ ____
ROOT
ATOM      1  C   UNL     1      46.622   7.848  12.700  0.00  0.00    +0.000 C 
ENDROOT
BRANCH   1   2
ATOM      2  C   UNL     1      47.842   8.671  12.234  0.00  0.00    +0.000 C 
ATOM      3  C   UNL     1      48.155   9.874  13.143  0.00  0.00    +0.000 C 
ATOM      4  C   UNL     1      48.738   9.459  14.492  0.00  0.00    +0.000 C 
ATOM      5  C   UNL     1      49.983   8.569  14.345  0.00  0.00    +0.000 C 
ATOM      6  C   UNL     1      49.666   7.358  13.453  0.00  0.00    +0.000 C 
ATOM      7  C   UNL     1      49.074   7.758  12.100  0.00  0.00    +0.000 C 
BRANCH   5   8
ATOM      8  C   UNL     1      51.202   9.354  13.828  0.00  0.00    +0.000 C 
BRANCH   8   9
ATOM      9  O   UNL     1      52.288   8.451  13.587  0.00  0.00    +0.000 OA
BRANCH   9  10
ATOM     10  C   UNL     1      53.150   8.953  12.564  0.00  0.00    +0.000 C 
BRANCH  10  11
ATOM     11  C   UNL     1      53.003   8.087  11.359  0.00  0.00    +0.000 A 
ATOM     12  C   UNL     1      52.182   8.228  10.255  0.00  0.00    +0.000 A 
ATOM     13  C   UNL     1      52.411   7.129   9.397  0.00  0.00    +0.000 A 
ATOM     14  C   UNL     1      53.370   6.341   9.993  0.00  0.00    +0.000 A 
ATOM     15  N   UNL     1      53.731   6.933  11.175  0.00  0.00    +0.000 N 
ATOM     16  H   UNL     1      54.420   6.590  11.832  0.00  0.00    +0.000 HD
ENDBRANCH  10  11
ENDBRANCH   9  10
ENDBRANCH   8   9
ENDBRANCH   5   8
ENDBRANCH   1   2
BRANCH   1  17
ATOM     17  N   UNL     1      46.494   6.626  11.911  0.00  0.00    +0.000 NA
ATOM     18  H   UNL     1      47.318   6.525  11.319  0.00  0.00    +0.000 HD
BRANCH  17  20
ATOM     19  C   UNL     1      44.271   7.653  11.420  0.00  0.00    +0.000 C 
ATOM     20  C   UNL     1      45.329   6.620  11.019  0.00  0.00    +0.000 C 
BRANCH  20  21
ATOM     21  C   UNL     1      44.745   5.219  11.061  0.00  0.00    +0.000 A 
ATOM     22  C   UNL     1      43.973   4.701  12.092  0.00  0.00    +0.000 A 
ATOM     23  S   UNL     1      43.447   3.102  11.807  0.00  0.00    +0.000 S 
ATOM     24  C   UNL     1      44.222   3.057  10.292  0.00  0.00    +0.000 A 
ATOM     25  N   UNL     1      44.149   1.960   9.494  0.00  0.00    +0.000 NA
ATOM     26  C   UNL     1      44.779   2.078   8.373  0.00  0.00    +0.000 A 
ATOM     27  N   UNL     1      45.485   3.190   7.982  0.00  0.00    +0.000 N 
ATOM     28  C   UNL     1      45.590   4.323   8.749  0.00  0.00    +0.000 A 
ATOM     29  O   UNL     1      46.224   5.301   8.372  0.00  0.00    +0.000 OA
ATOM     30  C   UNL     1      44.887   4.236  10.018  0.00  0.00    +0.000 A 
ATOM     31  H   UNL     1      45.958   3.212   7.089  0.00  0.00    +0.000 HD
ENDBRANCH  20  21
ENDBRANCH  17  20
ENDBRANCH   1  17
TORSDOF 8
ENDMDL
MODEL 8
REMARK VINA RESULT:    -5.852      3.647      4.576
REMARK INTER + INTRA:          -9.410
REMARK INTER:                  -8.718
REMARK INTRA:                  -0.692
REMARK UNBOUND:                -0.821
REMARK  Name = 
REMARK  9 active torsions:
REMARK  status: ('A' for Active; 'I' for Inactive)
REMARK    1  A    between atoms: C_1  and  C_2
REMARK    2  A    between atoms: C_2  and  N_3
REMARK    3  A    between atoms: C_2  and  C_19
REMARK    4  A    between atoms: N_3  and  C_4
REMARK    5  A    between atoms: C_4  and  C_5
REMARK    6  A    between atoms: C_8  and  C_9
REMARK    7  A    between atoms: C_9  and  O_10
REMARK    8  A    between atoms: O_10  and  C_11
REMARK    9  A    between atoms: C_11  and  C_12
REMARK                            x       y       z     vdW  Elec       q    Type
REMARK                         _______ _______ _______ _____ _____    ______ ____
ROOT
ATOM      1  C   UNL     1      45.278   7.596  12.544  0.00  0.00    +0.000 C 
ENDROOT
BRANCH   1   2
ATOM      2  C   UNL     1      44.353   6.372  12.724  0.00  0.00    +0.000 C 
ATOM      3  C   UNL     1      43.475   6.078  11.494  0.00  0.00    +0.000 C 
ATOM      4  C   UNL     1      44.273   5.515  10.320  0.00  0.00    +0.000 C 
ATOM      5  C   UNL     1      45.079   4.264  10.705  0.00  0.00    +0.000 C 
ATOM      6  C   UNL     1      45.970   4.561  11.921  0.00  0.00    +0.000 C 
ATOM      7  C   UNL     1      45.186   5.134  13.104  0.00  0.00    +0.000 C 
BRANCH   5   8
ATOM      8  C   UNL     1      44.177   3.040  10.946  0.00  0.00    +0.000 C 
BRANCH   8   9
ATOM      9  O   UNL     1      44.304   2.125   9.851  0.00  0.00    +0.000 OA
BRANCH   9  10
ATOM     10  C   UNL     1      44.476   2.827   8.619  0.00  0.00    +0.000 C 
BRANCH  10  11
ATOM     11  C   UNL     1      45.739   2.355   7.982  0.00  0.00    +0.000 A 
ATOM     12  C   UNL     1      46.648   3.035   7.192  0.00  0.00    +0.000 A 
ATOM     13  C   UNL     1      47.671   2.133   6.826  0.00  0.00    +0.000 A 
ATOM     14  C   UNL     1      47.369   0.920   7.402  0.00  0.00    +0.000 A 
ATOM     15  N   UNL     1      46.203   1.065   8.109  0.00  0.00    +0.000 N 
ATOM     16  H   UNL     1      45.733   0.347   8.645  0.00  0.00    +0.000 HD
ENDBRANCH  10  11
ENDBRANCH   9  10
ENDBRANCH   8   9
ENDBRANCH   5   8
ENDBRANCH   1   2
BRANCH   1  17
ATOM     17  N   UNL     1      46.262   7.660  13.620  0.00  0.00    +0.000 NA
ATOM     18  H   UNL     1      46.001   8.405  14.265  0.00  0.00    +0.000 HD
BRANCH  17  20
ATOM     19  C   UNL     1      47.940   7.319  11.802  0.00  0.00    +0.000 C 
ATOM     20  C   UNL     1      47.622   7.958  13.157  0.00  0.00    +0.000 C 
BRANCH  20  21
ATOM     21  C   UNL     1      48.575   7.445  14.222  0.00  0.00    +0.000 A 
ATOM     22  C   UNL     1      48.273   6.481  15.174  0.00  0.00    +0.000 A 
ATOM     23  S   UNL     1      49.584   6.108  16.202  0.00  0.00    +0.000 S 
ATOM     24  C   UNL     1      50.601   7.212  15.398  0.00  0.00    +0.000 A 
ATOM     25  N   UNL     1      51.899   7.374  15.767  0.00  0.00    +0.000 NA
ATOM     26  C   UNL     1      52.546   8.239  15.059  0.00  0.00    +0.000 A 
ATOM     27  N   UNL     1      52.010   8.965  14.023  0.00  0.00    +0.000 N 
ATOM     28  C   UNL     1      50.707   8.839  13.610  0.00  0.00    +0.000 A 
ATOM     29  O   UNL     1      50.259   9.497  12.679  0.00  0.00    +0.000 OA
ATOM     30  C   UNL     1      49.944   7.867  14.375  0.00  0.00    +0.000 A 
ATOM     31  H   UNL     1      52.576   9.628  13.513  0.00  0.00    +0.000 HD
ENDBRANCH  20  21
ENDBRANCH  17  20
ENDBRANCH   1  17
TORSDOF 8
ENDMDL
MODEL 9
REMARK VINA RESULT:    -5.742      2.810      3.787
REMARK INTER + INTRA:          -9.249
REMARK INTER:                  -9.024
REMARK INTRA:                  -0.225
REMARK UNBOUND:                -0.821
REMARK  Name = 
REMARK  9 active torsions:
REMARK  status: ('A' for Active; 'I' for Inactive)
REMARK    1  A    between atoms: C_1  and  C_2
REMARK    2  A    between atoms: C_2  and  N_3
REMARK    3  A    between atoms: C_2  and  C_19
REMARK    4  A    between atoms: N_3  and  C_4
REMARK    5  A    between atoms: C_4  and  C_5
REMARK    6  A    between atoms: C_8  and  C_9
REMARK    7  A    between atoms: C_9  and  O_10
REMARK    8  A    between atoms: O_10  and  C_11
REMARK    9  A    between atoms: C_11  and  C_12
REMARK                            x       y       z     vdW  Elec       q    Type
REMARK                         _______ _______ _______ _____ _____    ______ ____
ROOT
ATOM      1  C   UNL     1      46.653   7.971  13.564  0.00  0.00    +0.000 C 
ENDROOT
BRANCH   1   2
ATOM      2  C   UNL     1      46.769   7.187  12.239  0.00  0.00    +0.000 C 
ATOM      3  C   UNL     1      46.800   5.660  12.430  0.00  0.00    +0.000 C 
ATOM      4  C   UNL     1      45.445   5.089  12.845  0.00  0.00    +0.000 C 
ATOM      5  C   UNL     1      44.321   5.478  11.871  0.00  0.00    +0.000 C 
ATOM      6  C   UNL     1      44.278   7.004  11.695  0.00  0.00    +0.000 C 
ATOM      7  C   UNL     1      45.630   7.592  11.286  0.00  0.00    +0.000 C 
BRANCH   5   8
ATOM      8  C   UNL     1      44.444   4.752  10.519  0.00  0.00    +0.000 C 
BRANCH   8   9
ATOM      9  O   UNL     1      44.932   3.422  10.729  0.00  0.00    +0.000 OA
BRANCH   9  10
ATOM     10  C   UNL     1      44.460   2.539   9.711  0.00  0.00    +0.000 C 
BRANCH  10  11
ATOM     11  C   UNL     1      45.479   2.489   8.623  0.00  0.00    +0.000 A 
ATOM     12  C   UNL     1      45.896   3.474   7.746  0.00  0.00    +0.000 A 
ATOM     13  C   UNL     1      46.875   2.916   6.894  0.00  0.00    +0.000 A 
ATOM     14  C   UNL     1      47.039   1.602   7.271  0.00  0.00    +0.000 A 
ATOM     15  N   UNL     1      46.198   1.354   8.324  0.00  0.00    +0.000 N 
ATOM     16  H   UNL     1      46.099   0.477   8.819  0.00  0.00    +0.000 HD
ENDBRANCH  10  11
ENDBRANCH   9  10
ENDBRANCH   8   9
ENDBRANCH   5   8
ENDBRANCH   1   2
BRANCH   1  17
ATOM     17  N   UNL     1      47.817   7.725  14.411  0.00  0.00    +0.000 NA
ATOM     18  H   UNL     1      47.536   7.142  15.200  0.00  0.00    +0.000 HD
BRANCH  17  20
ATOM     19  C   UNL     1      49.830   9.200  14.478  0.00  0.00    +0.000 C 
ATOM     20  C   UNL     1      48.404   8.946  14.975  0.00  0.00    +0.000 C 
BRANCH  20  21
ATOM     21  C   UNL     1      48.388   8.790  16.485  0.00  0.00    +0.000 A 
ATOM     22  C   UNL     1      47.822   9.690  17.379  0.00  0.00    +0.000 A 
ATOM     23  S   UNL     1      47.947   9.194  19.008  0.00  0.00    +0.000 S 
ATOM     24  C   UNL     1      48.747   7.757  18.568  0.00  0.00    +0.000 A 
ATOM     25  N   UNL     1      49.125   6.845  19.503  0.00  0.00    +0.000 NA
ATOM     26  C   UNL     1      49.713   5.803  19.017  0.00  0.00    +0.000 A 
ATOM     27  N   UNL     1      49.967   5.594  17.683  0.00  0.00    +0.000 N 
ATOM     28  C   UNL     1      49.606   6.482  16.700  0.00  0.00    +0.000 A 
ATOM     29  O   UNL     1      49.843   6.266  15.518  0.00  0.00    +0.000 OA
ATOM     30  C   UNL     1      48.932   7.667  17.203  0.00  0.00    +0.000 A 
ATOM     31  H   UNL     1      50.435   4.754  17.373  0.00  0.00    +0.000 HD
ENDBRANCH  20  21
ENDBRANCH  17  20
ENDBRANCH   1  17
TORSDOF 8
ENDMDL
