MODEL 1
REMARK VINA RESULT:    -8.146      0.000      0.000
REMARK INTER + INTRA:         -14.128
REMARK INTER:                 -12.431
REMARK INTRA:                  -1.697
REMARK UNBOUND:                -1.697
REMARK  Name = 
REMARK  11 active torsions:
REMARK  status: ('A' for Active; 'I' for Inactive)
REMARK    1  A    between atoms: C_1  and  C_2
REMARK    2  A    between atoms: C_2  and  C_3
REMARK    3  A    between atoms: C_3  and  N_4
REMARK    4  A    between atoms: C_3  and  C_27
REMARK    5  A    between atoms: N_4  and  C_5
REMARK    6  A    between atoms: C_5  and  C_6
REMARK    7  A    between atoms: C_9  and  C_10
REMARK    8  A    between atoms: C_10  and  N_11
REMARK    9  A    between atoms: C_12  and  C_14
REMARK   10  A    between atoms: C_21  and  O_22
REMARK   11  A    between atoms: O_22  and  C_23
REMARK                            x       y       z     vdW  Elec       q    Type
REMARK                         _______ _______ _______ _____ _____    ______ ____
ROOT
ATOM      1  C   UNL     1      44.999   6.465  11.099  0.00  0.00    +0.000 A 
ATOM      2  C   UNL     1      46.371   6.178  11.107  0.00  0.00    +0.000 A 
ATOM      3  C   UNL     1      47.229   6.823  11.997  0.00  0.00    +0.000 A 
ATOM      4  C   UNL     1      46.734   7.775  12.899  0.00  0.00    +0.000 A 
ATOM      5  C   UNL     1      45.372   8.098  12.861  0.00  0.00    +0.000 A 
ATOM      6  C   UNL     1      44.511   7.445  11.976  0.00  0.00    +0.000 A 
ENDROOT
BRANCH   1   7
ATOM      7  C   UNL     1      44.059   5.745  10.158  0.00  0.00    +0.000 C 
BRANCH   7   8
ATOM      8  N   UNL     1      44.797   5.004   9.138  0.00  0.00    +0.000 NA
ATOM      9  H   UNL     1      44.481   5.292   8.216  0.00  0.00    +0.000 HD
BRANCH   8  10
ATOM     10  C   UNL     1      44.702   3.540   9.249  0.00  0.00    +0.000 C 
BRANCH  10  11
ATOM     11  C   UNL     1      45.624   2.849   8.243  0.00  0.00    +0.000 A 
ATOM     12  C   UNL     1      46.191   3.598   7.196  0.00  0.00    +0.000 A 
ATOM     13  C   UNL     1      47.092   3.012   6.302  0.00  0.00    +0.000 A 
ATOM     14  C   UNL     1      47.445   1.671   6.448  0.00  0.00    +0.000 A 
ATOM     15  C   UNL     1      46.899   0.916   7.480  0.00  0.00    +0.000 A 
ATOM     16  C   UNL     1      45.992   1.500   8.366  0.00  0.00    +0.000 A 
ENDBRANCH  10  11
BRANCH  10  18
ATOM     17  C   UNL     1      43.508   2.681  11.378  0.00  0.00    +0.000 C 
ATOM     18  C   UNL     1      44.832   2.988  10.690  0.00  0.00    +0.000 C 
ENDBRANCH  10  18
ENDBRANCH   8  10
ENDBRANCH   7   8
ENDBRANCH   1   7
BRANCH   4  19
ATOM     19  C   UNL     1      47.657   8.477  13.857  0.00  0.00    +0.000 C 
BRANCH  19  20
ATOM     20  N   UNL     1      47.964   7.634  14.983  0.00  0.00    +0.000 N 
ATOM     21  C   UNL     1      49.156   6.969  15.075  0.00  0.00    +0.000 C 
ATOM     22  O   UNL     1      50.047   7.105  14.241  0.00  0.00    +0.000 OA
ATOM     23  H   UNL     1      47.203   7.386  15.601  0.00  0.00    +0.000 HD
BRANCH  21  24
ATOM     24  C   UNL     1      49.340   6.133  16.267  0.00  0.00    +0.000 A 
ATOM     25  C   UNL     1      50.426   6.370  17.100  0.00  0.00    +0.000 A 
ATOM     26  S   UNL     1      50.451   5.374  18.479  0.00  0.00    +0.000 S 
ATOM     27  C   UNL     1      49.047   4.558  17.978  0.00  0.00    +0.000 A 
ATOM     28  N   UNL     1      48.547   3.568  18.734  0.00  0.00    +0.000 NA
ATOM     29  C   UNL     1      47.461   3.011  18.200  0.00  0.00    +0.000 A 
ATOM     30  N   UNL     1      46.870   3.332  17.043  0.00  0.00    +0.000 NA
ATOM     31  C   UNL     1      47.408   4.332  16.316  0.00  0.00    +0.000 A 
ATOM     32  C   UNL     1      48.543   5.024  16.769  0.00  0.00    +0.000 A 
BRANCH  31  33
ATOM     33  O   UNL     1      46.829   4.673  15.111  0.00  0.00    +0.000 OA
ATOM     34  C   UNL     1      47.043   3.720  14.075  0.00  0.00    +0.000 C 
ENDBRANCH  31  33
ENDBRANCH  21  24
ENDBRANCH  19  20
ENDBRANCH   4  19
TORSDOF 9
ENDMDL
MODEL 2
REMARK VINA RESULT:    -7.182      2.268      2.634
REMARK INTER + INTRA:         -12.658
REMARK INTER:                 -11.575
REMARK INTRA:                  -1.083
REMARK UNBOUND:                -1.697
REMARK  Name = 
REMARK  11 active torsions:
REMARK  status: ('A' for Active; 'I' for Inactive)
REMARK    1  A    between atoms: C_1  and  C_2
REMARK    2  A    between atoms: C_2  and  C_3
REMARK    3  A    between atoms: C_3  and  N_4
REMARK    4  A    between atoms: C_3  and  C_27
REMARK    5  A    between atoms: N_4  and  C_5
REMARK    6  A    between atoms: C_5  and  C_6
REMARK    7  A    between atoms: C_9  and  C_10
REMARK    8  A    between atoms: C_10  and  N_11
REMARK    9  A    between atoms: C_12  and  C_14
REMARK   10  A    between atoms: C_21  and  O_22
REMARK   11  A    between atoms: O_22  and  C_23
REMARK                            x       y       z     vdW  Elec       q    Type
REMARK                         _______ _______ _______ _____ _____    ______ ____
ROOT
ATOM      1  C   UNL     1      45.210   6.621  11.598  0.00  0.00    +0.000 A 
ATOM      2  C   UNL     1      44.914   7.952  11.924  0.00  0.00    +0.000 A 
ATOM      3  C   UNL     1      45.813   8.722  12.661  0.00  0.00    +0.000 A 
ATOM      4  C   UNL     1      47.030   8.176  13.093  0.00  0.00    +0.000 A 
ATOM      5  C   UNL     1      47.307   6.833  12.809  0.00  0.00    +0.000 A 
ATOM      6  C   UNL     1      46.410   6.064  12.063  0.00  0.00    +0.000 A 
ENDROOT
BRANCH   1   7
ATOM      7  C   UNL     1      44.253   5.791  10.771  0.00  0.00    +0.000 C 
BRANCH   7   8
ATOM      8  N   UNL     1      44.953   5.092   9.695  0.00  0.00    +0.000 NA
ATOM      9  H   UNL     1      44.740   5.537   8.807  0.00  0.00    +0.000 HD
BRANCH   8  10
ATOM     10  C   UNL     1      44.659   3.654   9.601  0.00  0.00    +0.000 C 
BRANCH  10  11
ATOM     11  C   UNL     1      45.501   2.989   8.511  0.00  0.00    +0.000 A 
ATOM     12  C   UNL     1      46.002   3.767   7.452  0.00  0.00    +0.000 A 
ATOM     13  C   UNL     1      46.832   3.202   6.480  0.00  0.00    +0.000 A 
ATOM     14  C   UNL     1      47.181   1.855   6.558  0.00  0.00    +0.000 A 
ATOM     15  C   UNL     1      46.699   1.071   7.600  0.00  0.00    +0.000 A 
ATOM     16  C   UNL     1      45.862   1.633   8.565  0.00  0.00    +0.000 A 
ENDBRANCH  10  11
BRANCH  10  18
ATOM     17  C   UNL     1      43.318   2.732  11.613  0.00  0.00    +0.000 C 
ATOM     18  C   UNL     1      44.680   2.895  10.952  0.00  0.00    +0.000 C 
ENDBRANCH  10  18
ENDBRANCH   8  10
ENDBRANCH   7   8
ENDBRANCH   1   7
BRANCH   4  19
ATOM     19  C   UNL     1      47.999   9.001  13.894  0.00  0.00    +0.000 C 
BRANCH  19  20
ATOM     20  N   UNL     1      47.674   8.955  15.296  0.00  0.00    +0.000 N 
ATOM     21  C   UNL     1      48.648   8.938  16.256  0.00  0.00    +0.000 C 
ATOM     22  O   UNL     1      49.841   9.027  15.980  0.00  0.00    +0.000 OA
ATOM     23  H   UNL     1      46.720   8.734  15.546  0.00  0.00    +0.000 HD
BRANCH  21  24
ATOM     24  C   UNL     1      48.184   8.881  17.648  0.00  0.00    +0.000 A 
ATOM     25  C   UNL     1      47.730  10.041  18.260  0.00  0.00    +0.000 A 
ATOM     26  S   UNL     1      47.150   9.791  19.840  0.00  0.00    +0.000 S 
ATOM     27  C   UNL     1      47.540   8.138  19.775  0.00  0.00    +0.000 A 
ATOM     28  N   UNL     1      47.294   7.354  20.837  0.00  0.00    +0.000 NA
ATOM     29  C   UNL     1      47.674   6.092  20.644  0.00  0.00    +0.000 A 
ATOM     30  N   UNL     1      48.250   5.577  19.553  0.00  0.00    +0.000 NA
ATOM     31  C   UNL     1      48.481   6.402  18.511  0.00  0.00    +0.000 A 
ATOM     32  C   UNL     1      48.110   7.755  18.567  0.00  0.00    +0.000 A 
BRANCH  31  33
ATOM     33  O   UNL     1      49.089   5.900  17.378  0.00  0.00    +0.000 OA
ATOM     34  C   UNL     1      49.292   4.491  17.406  0.00  0.00    +0.000 C 
ENDBRANCH  31  33
ENDBRANCH  21  24
ENDBRANCH  19  20
ENDBRANCH   4  19
TORSDOF 9
ENDMDL
MODEL 3
REMARK VINA RESULT:    -7.124      2.324      3.032
REMARK INTER + INTRA:         -12.568
REMARK INTER:                 -11.132
REMARK INTRA:                  -1.436
REMARK UNBOUND:                -1.697
REMARK  Name = 
REMARK  11 active torsions:
REMARK  status: ('A' for Active; 'I' for Inactive)
REMARK    1  A    between atoms: C_1  and  C_2
REMARK    2  A    between atoms: C_2  and  C_3
REMARK    3  A    between atoms: C_3  and  N_4
REMARK    4  A    between atoms: C_3  and  C_27
REMARK    5  A    between atoms: N_4  and  C_5
REMARK    6  A    between atoms: C_5  and  C_6
REMARK    7  A    between atoms: C_9  and  C_10
REMARK    8  A    between atoms: C_10  and  N_11
REMARK    9  A    between atoms: C_12  and  C_14
REMARK   10  A    between atoms: C_21  and  O_22
REMARK   11  A    between atoms: O_22  and  C_23
REMARK                            x       y       z     vdW  Elec       q    Type
REMARK                         _______ _______ _______ _____ _____    ______ ____
ROOT
ATOM      1  C   UNL     1      46.945   6.711  12.692  0.00  0.00    +0.000 A 
ATOM      2  C   UNL     1      47.312   8.025  13.016  0.00  0.00    +0.000 A 
ATOM      3  C   UNL     1      47.997   8.302  14.199  0.00  0.00    +0.000 A 
ATOM      4  C   UNL     1      48.329   7.270  15.088  0.00  0.00    +0.000 A 
ATOM      5  C   UNL     1      47.923   5.964  14.788  0.00  0.00    +0.000 A 
ATOM      6  C   UNL     1      47.245   5.684  13.600  0.00  0.00    +0.000 A 
ENDROOT
BRANCH   1   7
ATOM      7  C   UNL     1      46.231   6.401  11.395  0.00  0.00    +0.000 C 
BRANCH   7   8
ATOM      8  N   UNL     1      45.707   5.036  11.395  0.00  0.00    +0.000 NA
ATOM      9  H   UNL     1      46.476   4.378  11.312  0.00  0.00    +0.000 HD
BRANCH   8  10
ATOM     10  C   UNL     1      44.715   4.758  10.345  0.00  0.00    +0.000 C 
BRANCH  10  11
ATOM     11  C   UNL     1      45.290   3.828   9.275  0.00  0.00    +0.000 A 
ATOM     12  C   UNL     1      45.967   4.379   8.172  0.00  0.00    +0.000 A 
ATOM     13  C   UNL     1      46.564   3.554   7.214  0.00  0.00    +0.000 A 
ATOM     14  C   UNL     1      46.499   2.168   7.350  0.00  0.00    +0.000 A 
ATOM     15  C   UNL     1      45.838   1.606   8.435  0.00  0.00    +0.000 A 
ATOM     16  C   UNL     1      45.234   2.430   9.386  0.00  0.00    +0.000 A 
ENDBRANCH  10  11
BRANCH  10  18
ATOM     17  C   UNL     1      42.631   5.330  11.769  0.00  0.00    +0.000 C 
ATOM     18  C   UNL     1      43.323   4.319  10.866  0.00  0.00    +0.000 C 
ENDBRANCH  10  18
ENDBRANCH   8  10
ENDBRANCH   7   8
ENDBRANCH   1   7
BRANCH   4  19
ATOM     19  C   UNL     1      49.063   7.565  16.367  0.00  0.00    +0.000 C 
BRANCH  19  20
ATOM     20  N   UNL     1      50.032   6.538  16.650  0.00  0.00    +0.000 N 
ATOM     21  C   UNL     1      50.333   6.173  17.933  0.00  0.00    +0.000 C 
ATOM     22  O   UNL     1      49.752   6.651  18.903  0.00  0.00    +0.000 OA
ATOM     23  H   UNL     1      50.626   6.237  15.890  0.00  0.00    +0.000 HD
BRANCH  21  24
ATOM     24  C   UNL     1      51.346   5.122  18.085  0.00  0.00    +0.000 A 
ATOM     25  C   UNL     1      52.586   5.446  18.619  0.00  0.00    +0.000 A 
ATOM     26  S   UNL     1      53.615   4.104  18.808  0.00  0.00    +0.000 S 
ATOM     27  C   UNL     1      52.459   3.059  18.131  0.00  0.00    +0.000 A 
ATOM     28  N   UNL     1      52.737   1.752  18.002  0.00  0.00    +0.000 NA
ATOM     29  C   UNL     1      51.745   1.068  17.434  0.00  0.00    +0.000 A 
ATOM     30  N   UNL     1      50.572   1.547  17.004  0.00  0.00    +0.000 NA
ATOM     31  C   UNL     1      50.336   2.866  17.151  0.00  0.00    +0.000 A 
ATOM     32  C   UNL     1      51.287   3.706  17.755  0.00  0.00    +0.000 A 
BRANCH  31  33
ATOM     33  O   UNL     1      49.142   3.389  16.701  0.00  0.00    +0.000 OA
ATOM     34  C   UNL     1      48.046   3.174  17.585  0.00  0.00    +0.000 C 
ENDBRANCH  31  33
ENDBRANCH  21  24
ENDBRANCH  19  20
ENDBRANCH   4  19
TORSDOF 9
ENDMDL
MODEL 4
REMARK VINA RESULT:    -6.866      1.568      2.102
REMARK INTER + INTRA:         -12.175
REMARK INTER:                 -11.002
REMARK INTRA:                  -1.173
REMARK UNBOUND:                -1.697
REMARK  Name = 
REMARK  11 active torsions:
REMARK  status: ('A' for Active; 'I' for Inactive)
REMARK    1  A    between atoms: C_1  and  C_2
REMARK    2  A    between atoms: C_2  and  C_3
REMARK    3  A    between atoms: C_3  and  N_4
REMARK    4  A    between atoms: C_3  and  C_27
REMARK    5  A    between atoms: N_4  and  C_5
REMARK    6  A    between atoms: C_5  and  C_6
REMARK    7  A    between atoms: C_9  and  C_10
REMARK    8  A    between atoms: C_10  and  N_11
REMARK    9  A    between atoms: C_12  and  C_14
REMARK   10  A    between atoms: C_21  and  O_22
REMARK   11  A    between atoms: O_22  and  C_23
REMARK                            x       y       z     vdW  Elec       q    Type
REMARK                         _______ _______ _______ _____ _____    ______ ____
ROOT
ATOM      1  C   UNL     1      45.734   6.694  11.740  0.00  0.00    +0.000 A 
ATOM      2  C   UNL     1      45.343   7.985  12.123  0.00  0.00    +0.000 A 
ATOM      3  C   UNL     1      46.116   8.731  13.011  0.00  0.00    +0.000 A 
ATOM      4  C   UNL     1      47.301   8.200  13.542  0.00  0.00    +0.000 A 
ATOM      5  C   UNL     1      47.670   6.894  13.199  0.00  0.00    +0.000 A 
ATOM      6  C   UNL     1      46.900   6.150  12.301  0.00  0.00    +0.000 A 
ENDROOT
BRANCH   1   7
ATOM      7  C   UNL     1      44.916   5.893  10.752  0.00  0.00    +0.000 C 
BRANCH   7   8
ATOM      8  N   UNL     1      45.538   4.600  10.477  0.00  0.00    +0.000 NA
ATOM      9  H   UNL     1      46.427   4.744  10.008  0.00  0.00    +0.000 HD
BRANCH   8  10
ATOM     10  C   UNL     1      44.714   3.676   9.682  0.00  0.00    +0.000 C 
BRANCH  10  11
ATOM     11  C   UNL     1      45.521   3.062   8.538  0.00  0.00    +0.000 A 
ATOM     12  C   UNL     1      45.935   3.875   7.468  0.00  0.00    +0.000 A 
ATOM     13  C   UNL     1      46.733   3.359   6.443  0.00  0.00    +0.000 A 
ATOM     14  C   UNL     1      47.136   2.025   6.478  0.00  0.00    +0.000 A 
ATOM     15  C   UNL     1      46.741   1.207   7.529  0.00  0.00    +0.000 A 
ATOM     16  C   UNL     1      45.936   1.720   8.548  0.00  0.00    +0.000 A 
ENDBRANCH  10  11
BRANCH  10  18
ATOM     17  C   UNL     1      43.303   3.176  11.794  0.00  0.00    +0.000 C 
ATOM     18  C   UNL     1      43.920   2.635  10.511  0.00  0.00    +0.000 C 
ENDBRANCH  10  18
ENDBRANCH   8  10
ENDBRANCH   7   8
ENDBRANCH   1   7
BRANCH   4  19
ATOM     19  C   UNL     1      48.135   8.999  14.505  0.00  0.00    +0.000 C 
BRANCH  19  20
ATOM     20  N   UNL     1      49.218   8.205  15.025  0.00  0.00    +0.000 N 
ATOM     21  C   UNL     1      49.275   7.849  16.345  0.00  0.00    +0.000 C 
ATOM     22  O   UNL     1      48.381   8.130  17.138  0.00  0.00    +0.000 OA
ATOM     23  H   UNL     1      50.032   8.086  14.438  0.00  0.00    +0.000 HD
BRANCH  21  24
ATOM     24  C   UNL     1      50.437   7.048  16.749  0.00  0.00    +0.000 A 
ATOM     25  C   UNL     1      51.662   7.675  16.934  0.00  0.00    +0.000 A 
ATOM     26  S   UNL     1      52.884   6.625  17.482  0.00  0.00    +0.000 S 
ATOM     27  C   UNL     1      51.830   5.292  17.434  0.00  0.00    +0.000 A 
ATOM     28  N   UNL     1      52.278   4.076  17.785  0.00  0.00    +0.000 NA
ATOM     29  C   UNL     1      51.345   3.132  17.674  0.00  0.00    +0.000 A 
ATOM     30  N   UNL     1      50.082   3.285  17.261  0.00  0.00    +0.000 NA
ATOM     31  C   UNL     1      49.676   4.523  16.916  0.00  0.00    +0.000 A 
ATOM     32  C   UNL     1      50.549   5.620  17.006  0.00  0.00    +0.000 A 
BRANCH  31  33
ATOM     33  O   UNL     1      48.383   4.707  16.472  0.00  0.00    +0.000 OA
ATOM     34  C   UNL     1      47.395   4.564  17.489  0.00  0.00    +0.000 C 
ENDBRANCH  31  33
ENDBRANCH  21  24
ENDBRANCH  19  20
ENDBRANCH   4  19
TORSDOF 9
ENDMDL
MODEL 5
REMARK VINA RESULT:    -6.749      2.671      3.934
REMARK INTER + INTRA:         -11.996
REMARK INTER:                 -10.676
REMARK INTRA:                  -1.321
REMARK UNBOUND:                -1.697
REMARK  Name = 
REMARK  11 active torsions:
REMARK  status: ('A' for Active; 'I' for Inactive)
REMARK    1  A    between atoms: C_1  and  C_2
REMARK    2  A    between atoms: C_2  and  C_3
REMARK    3  A    between atoms: C_3  and  N_4
REMARK    4  A    between atoms: C_3  and  C_27
REMARK    5  A    between atoms: N_4  and  C_5
REMARK    6  A    between atoms: C_5  and  C_6
REMARK    7  A    between atoms: C_9  and  C_10
REMARK    8  A    between atoms: C_10  and  N_11
REMARK    9  A    between atoms: C_12  and  C_14
REMARK   10  A    between atoms: C_21  and  O_22
REMARK   11  A    between atoms: O_22  and  C_23
REMARK                            x       y       z     vdW  Elec       q    Type
REMARK                         _______ _______ _______ _____ _____    ______ ____
ROOT
ATOM      1  C   UNL     1      46.424   5.344  12.248  0.00  0.00    +0.000 A 
ATOM      2  C   UNL     1      46.405   3.990  12.608  0.00  0.00    +0.000 A 
ATOM      3  C   UNL     1      46.760   3.588  13.895  0.00  0.00    +0.000 A 
ATOM      4  C   UNL     1      47.147   4.535  14.854  0.00  0.00    +0.000 A 
ATOM      5  C   UNL     1      47.213   5.884  14.484  0.00  0.00    +0.000 A 
ATOM      6  C   UNL     1      46.848   6.287  13.197  0.00  0.00    +0.000 A 
ENDROOT
BRANCH   1   7
ATOM      7  C   UNL     1      46.009   5.788  10.863  0.00  0.00    +0.000 C 
BRANCH   7   8
ATOM      8  N   UNL     1      44.571   6.040  10.798  0.00  0.00    +0.000 NA
ATOM      9  H   UNL     1      44.240   6.354  11.706  0.00  0.00    +0.000 HD
BRANCH   8  10
ATOM     10  C   UNL     1      43.763   4.893  10.357  0.00  0.00    +0.000 C 
BRANCH  10  11
ATOM     11  C   UNL     1      44.569   3.967   9.446  0.00  0.00    +0.000 A 
ATOM     12  C   UNL     1      45.331   4.518   8.399  0.00  0.00    +0.000 A 
ATOM     13  C   UNL     1      46.134   3.705   7.594  0.00  0.00    +0.000 A 
ATOM     14  C   UNL     1      46.192   2.332   7.828  0.00  0.00    +0.000 A 
ATOM     15  C   UNL     1      45.450   1.770   8.860  0.00  0.00    +0.000 A 
ATOM     16  C   UNL     1      44.642   2.581   9.658  0.00  0.00    +0.000 A 
ENDBRANCH  10  11
BRANCH  10  18
ATOM     17  C   UNL     1      42.839   4.952  12.774  0.00  0.00    +0.000 C 
ATOM     18  C   UNL     1      43.015   4.149  11.493  0.00  0.00    +0.000 C 
ENDBRANCH  10  18
ENDBRANCH   8  10
ENDBRANCH   7   8
ENDBRANCH   1   7
BRANCH   4  19
ATOM     19  C   UNL     1      47.537   4.107  16.242  0.00  0.00    +0.000 C 
BRANCH  19  20
ATOM     20  N   UNL     1      47.321   5.173  17.186  0.00  0.00    +0.000 N 
ATOM     21  C   UNL     1      48.359   5.744  17.870  0.00  0.00    +0.000 C 
ATOM     22  O   UNL     1      49.528   5.426  17.670  0.00  0.00    +0.000 OA
ATOM     23  H   UNL     1      46.370   5.351  17.478  0.00  0.00    +0.000 HD
BRANCH  21  24
ATOM     24  C   UNL     1      48.004   6.813  18.810  0.00  0.00    +0.000 A 
ATOM     25  C   UNL     1      47.689   6.485  20.123  0.00  0.00    +0.000 A 
ATOM     26  S   UNL     1      47.383   7.840  21.105  0.00  0.00    +0.000 S 
ATOM     27  C   UNL     1      47.605   8.901  19.796  0.00  0.00    +0.000 A 
ATOM     28  N   UNL     1      47.470  10.224  19.982  0.00  0.00    +0.000 NA
ATOM     29  C   UNL     1      47.650  10.922  18.861  0.00  0.00    +0.000 A 
ATOM     30  N   UNL     1      47.929  10.443  17.644  0.00  0.00    +0.000 NA
ATOM     31  C   UNL     1      48.053   9.108  17.503  0.00  0.00    +0.000 A 
ATOM     32  C   UNL     1      47.911   8.251  18.607  0.00  0.00    +0.000 A 
BRANCH  31  33
ATOM     33  O   UNL     1      48.325   8.586  16.256  0.00  0.00    +0.000 OA
ATOM     34  C   UNL     1      49.696   8.666  15.881  0.00  0.00    +0.000 C 
ENDBRANCH  31  33
ENDBRANCH  21  24
ENDBRANCH  19  20
ENDBRANCH   4  19
TORSDOF 9
ENDMDL
MODEL 6
REMARK VINA RESULT:    -6.703      1.842      2.944
REMARK INTER + INTRA:         -11.927
REMARK INTER:                 -10.807
REMARK INTRA:                  -1.120
REMARK UNBOUND:                -1.697
REMARK  Name = 
REMARK  11 active torsions:
REMARK  status: ('A' for Active; 'I' for Inactive)
REMARK    1  A    between atoms: C_1  and  C_2
REMARK    2  A    between atoms: C_2  and  C_3
REMARK    3  A    between atoms: C_3  and  N_4
REMARK    4  A    between atoms: C_3  and  C_27
REMARK    5  A    between atoms: N_4  and  C_5
REMARK    6  A    between atoms: C_5  and  C_6
REMARK    7  A    between atoms: C_9  and  C_10
REMARK    8  A    between atoms: C_10  and  N_11
REMARK    9  A    between atoms: C_12  and  C_14
REMARK   10  A    between atoms: C_21  and  O_22
REMARK   11  A    between atoms: O_22  and  C_23
REMARK                            x       y       z     vdW  Elec       q    Type
REMARK                         _______ _______ _______ _____ _____    ______ ____
ROOT
ATOM      1  C   UNL     1      45.490   6.538  11.641  0.00  0.00    +0.000 A 
ATOM      2  C   UNL     1      45.664   7.926  11.731  0.00  0.00    +0.000 A 
ATOM      3  C   UNL     1      46.568   8.474  12.641  0.00  0.00    +0.000 A 
ATOM      4  C   UNL     1      47.318   7.644  13.486  0.00  0.00    +0.000 A 
ATOM      5  C   UNL     1      47.113   6.260  13.430  0.00  0.00    +0.000 A 
ATOM      6  C   UNL     1      46.214   5.710  12.513  0.00  0.00    +0.000 A 
ENDROOT
BRANCH   1   7
ATOM      7  C   UNL     1      44.535   5.937  10.634  0.00  0.00    +0.000 C 
BRANCH   7   8
ATOM      8  N   UNL     1      45.250   5.148   9.633  0.00  0.00    +0.000 NA
ATOM      9  H   UNL     1      45.198   5.617   8.733  0.00  0.00    +0.000 HD
BRANCH   8  10
ATOM     10  C   UNL     1      44.778   3.763   9.487  0.00  0.00    +0.000 C 
BRANCH  10  11
ATOM     11  C   UNL     1      45.560   3.024   8.400  0.00  0.00    +0.000 A 
ATOM     12  C   UNL     1      46.023   3.734   7.277  0.00  0.00    +0.000 A 
ATOM     13  C   UNL     1      46.800   3.104   6.302  0.00  0.00    +0.000 A 
ATOM     14  C   UNL     1      47.133   1.757   6.439  0.00  0.00    +0.000 A 
ATOM     15  C   UNL     1      46.688   1.040   7.543  0.00  0.00    +0.000 A 
ATOM     16  C   UNL     1      45.904   1.668   8.512  0.00  0.00    +0.000 A 
ENDBRANCH  10  11
BRANCH  10  18
ATOM     17  C   UNL     1      43.249   2.856  11.368  0.00  0.00    +0.000 C 
ATOM     18  C   UNL     1      44.662   2.971  10.814  0.00  0.00    +0.000 C 
ENDBRANCH  10  18
ENDBRANCH   8  10
ENDBRANCH   7   8
ENDBRANCH   1   7
BRANCH   4  19
ATOM     19  C   UNL     1      48.290   8.230  14.472  0.00  0.00    +0.000 C 
BRANCH  19  20
ATOM     20  N   UNL     1      48.307   7.464  15.691  0.00  0.00    +0.000 N 
ATOM     21  C   UNL     1      49.377   6.682  16.030  0.00  0.00    +0.000 C 
ATOM     22  O   UNL     1      50.399   6.642  15.352  0.00  0.00    +0.000 OA
ATOM     23  H   UNL     1      47.433   7.361  16.189  0.00  0.00    +0.000 HD
BRANCH  21  24
ATOM     24  C   UNL     1      49.264   5.944  17.294  0.00  0.00    +0.000 A 
ATOM     25  C   UNL     1      48.444   4.824  17.354  0.00  0.00    +0.000 A 
ATOM     26  S   UNL     1      48.487   4.033  18.859  0.00  0.00    +0.000 S 
ATOM     27  C   UNL     1      49.556   5.192  19.494  0.00  0.00    +0.000 A 
ATOM     28  N   UNL     1      49.976   5.085  20.765  0.00  0.00    +0.000 NA
ATOM     29  C   UNL     1      50.789   6.078  21.124  0.00  0.00    +0.000 A 
ATOM     30  N   UNL     1      51.188   7.110  20.373  0.00  0.00    +0.000 NA
ATOM     31  C   UNL     1      50.739   7.179  19.104  0.00  0.00    +0.000 A 
ATOM     32  C   UNL     1      49.892   6.187  18.583  0.00  0.00    +0.000 A 
BRANCH  31  33
ATOM     33  O   UNL     1      51.122   8.242  18.312  0.00  0.00    +0.000 OA
ATOM     34  C   UNL     1      52.184   9.018  18.859  0.00  0.00    +0.000 C 
ENDBRANCH  31  33
ENDBRANCH  21  24
ENDBRANCH  19  20
ENDBRANCH   4  19
TORSDOF 9
ENDMDL
MODEL 7
REMARK VINA RESULT:    -6.681      3.038      5.606
REMARK INTER + INTRA:         -11.893
REMARK INTER:                 -10.068
REMARK INTRA:                  -1.826
REMARK UNBOUND:                -1.697
REMARK  Name = 
REMARK  11 active torsions:
REMARK  status: ('A' for Active; 'I' for Inactive)
REMARK    1  A    between atoms: C_1  and  C_2
REMARK    2  A    between atoms: C_2  and  C_3
REMARK    3  A    between atoms: C_3  and  N_4
REMARK    4  A    between atoms: C_3  and  C_27
REMARK    5  A    between atoms: N_4  and  C_5
REMARK    6  A    between atoms: C_5  and  C_6
REMARK    7  A    between atoms: C_9  and  C_10
REMARK    8  A    between atoms: C_10  and  N_11
REMARK    9  A    between atoms: C_12  and  C_14
REMARK   10  A    between atoms: C_21  and  O_22
REMARK   11  A    between atoms: O_22  and  C_23
REMARK                            x       y       z     vdW  Elec       q    Type
REMARK                         _______ _______ _______ _____ _____    ______ ____
ROOT
ATOM      1  C   UNL     1      47.603   5.981  14.208  0.00  0.00    +0.000 A 
ATOM      2  C   UNL     1      47.052   4.701  14.055  0.00  0.00    +0.000 A 
ATOM      3  C   UNL     1      47.138   3.760  15.081  0.00  0.00    +0.000 A 
ATOM      4  C   UNL     1      47.783   4.077  16.285  0.00  0.00    +0.000 A 
ATOM      5  C   UNL     1      48.375   5.338  16.423  0.00  0.00    +0.000 A 
ATOM      6  C   UNL     1      48.281   6.284  15.399  0.00  0.00    +0.000 A 
ENDROOT
BRANCH   1   7
ATOM      7  C   UNL     1      47.485   7.016  13.112  0.00  0.00    +0.000 C 
BRANCH   7   8
ATOM      8  N   UNL     1      46.150   7.609  13.087  0.00  0.00    +0.000 NA
ATOM      9  H   UNL     1      45.604   7.247  13.864  0.00  0.00    +0.000 HD
BRANCH   8  10
ATOM     10  C   UNL     1      45.407   7.403  11.835  0.00  0.00    +0.000 C 
BRANCH  10  11
ATOM     11  C   UNL     1      44.695   6.049  11.831  0.00  0.00    +0.000 A 
ATOM     12  C   UNL     1      44.993   5.114  10.824  0.00  0.00    +0.000 A 
ATOM     13  C   UNL     1      44.412   3.843  10.833  0.00  0.00    +0.000 A 
ATOM     14  C   UNL     1      43.532   3.486  11.854  0.00  0.00    +0.000 A 
ATOM     15  C   UNL     1      43.229   4.395  12.860  0.00  0.00    +0.000 A 
ATOM     16  C   UNL     1      43.802   5.668  12.845  0.00  0.00    +0.000 A 
ENDBRANCH  10  11
BRANCH  10  18
ATOM     17  C   UNL     1      44.998   9.959  11.838  0.00  0.00    +0.000 C 
ATOM     18  C   UNL     1      44.495   8.584  11.417  0.00  0.00    +0.000 C 
ENDBRANCH  10  18
ENDBRANCH   8  10
ENDBRANCH   7   8
ENDBRANCH   1   7
BRANCH   4  19
ATOM     19  C   UNL     1      47.882   3.064  17.392  0.00  0.00    +0.000 C 
BRANCH  19  20
ATOM     20  N   UNL     1      49.252   2.882  17.797  0.00  0.00    +0.000 N 
ATOM     21  C   UNL     1      50.132   2.157  17.041  0.00  0.00    +0.000 C 
ATOM     22  O   UNL     1      49.822   1.680  15.953  0.00  0.00    +0.000 OA
ATOM     23  H   UNL     1      49.494   3.132  18.746  0.00  0.00    +0.000 HD
BRANCH  21  24
ATOM     24  C   UNL     1      51.496   2.039  17.571  0.00  0.00    +0.000 A 
ATOM     25  C   UNL     1      52.140   0.809  17.519  0.00  0.00    +0.000 A 
ATOM     26  S   UNL     1      53.740   0.857  18.094  0.00  0.00    +0.000 S 
ATOM     27  C   UNL     1      53.604   2.506  18.483  0.00  0.00    +0.000 A 
ATOM     28  N   UNL     1      54.647   3.150  19.029  0.00  0.00    +0.000 NA
ATOM     29  C   UNL     1      54.381   4.427  19.299  0.00  0.00    +0.000 A 
ATOM     30  N   UNL     1      53.230   5.076  19.091  0.00  0.00    +0.000 NA
ATOM     31  C   UNL     1      52.207   4.390  18.543  0.00  0.00    +0.000 A 
ATOM     32  C   UNL     1      52.355   3.040  18.186  0.00  0.00    +0.000 A 
BRANCH  31  33
ATOM     33  O   UNL     1      51.004   5.031  18.332  0.00  0.00    +0.000 OA
ATOM     34  C   UNL     1      50.580   5.840  19.424  0.00  0.00    +0.000 C 
ENDBRANCH  31  33
ENDBRANCH  21  24
ENDBRANCH  19  20
ENDBRANCH   4  19
TORSDOF 9
ENDMDL
MODEL 8
REMARK VINA RESULT:    -6.515      2.586      3.891
REMARK INTER + INTRA:         -11.639
REMARK INTER:                 -10.604
REMARK INTRA:                  -1.035
REMARK UNBOUND:                -1.697
REMARK  Name = 
REMARK  11 active torsions:
REMARK  status: ('A' for Active; 'I' for Inactive)
REMARK    1  A    between atoms: C_1  and  C_2
REMARK    2  A    between atoms: C_2  and  C_3
REMARK    3  A    between atoms: C_3  and  N_4
REMARK    4  A    between atoms: C_3  and  C_27
REMARK    5  A    between atoms: N_4  and  C_5
REMARK    6  A    between atoms: C_5  and  C_6
REMARK    7  A    between atoms: C_9  and  C_10
REMARK    8  A    between atoms: C_10  and  N_11
REMARK    9  A    between atoms: C_12  and  C_14
REMARK   10  A    between atoms: C_21  and  O_22
REMARK   11  A    between atoms: O_22  and  C_23
REMARK                            x       y       z     vdW  Elec       q    Type
REMARK                         _______ _______ _______ _____ _____    ______ ____
ROOT
ATOM      1  C   UNL     1      46.718   6.111  12.104  0.00  0.00    +0.000 A 
ATOM      2  C   UNL     1      46.727   5.092  13.066  0.00  0.00    +0.000 A 
ATOM      3  C   UNL     1      47.318   5.294  14.313  0.00  0.00    +0.000 A 
ATOM      4  C   UNL     1      47.919   6.521  14.625  0.00  0.00    +0.000 A 
ATOM      5  C   UNL     1      47.953   7.525  13.649  0.00  0.00    +0.000 A 
ATOM      6  C   UNL     1      47.353   7.326  12.403  0.00  0.00    +0.000 A 
ENDROOT
BRANCH   1   7
ATOM      7  C   UNL     1      46.050   5.910  10.762  0.00  0.00    +0.000 C 
BRANCH   7   8
ATOM      8  N   UNL     1      44.595   5.972  10.881  0.00  0.00    +0.000 NA
ATOM      9  H   UNL     1      44.343   6.192  11.840  0.00  0.00    +0.000 HD
BRANCH   8  10
ATOM     10  C   UNL     1      43.889   4.751  10.461  0.00  0.00    +0.000 C 
BRANCH  10  11
ATOM     11  C   UNL     1      44.744   3.920   9.504  0.00  0.00    +0.000 A 
ATOM     12  C   UNL     1      44.841   2.530   9.693  0.00  0.00    +0.000 A 
ATOM     13  C   UNL     1      45.558   1.734   8.796  0.00  0.00    +0.000 A 
ATOM     14  C   UNL     1      46.180   2.315   7.692  0.00  0.00    +0.000 A 
ATOM     15  C   UNL     1      46.091   3.686   7.486  0.00  0.00    +0.000 A 
ATOM     16  C   UNL     1      45.384   4.482   8.388  0.00  0.00    +0.000 A 
ENDBRANCH  10  11
BRANCH  10  18
ATOM     17  C   UNL     1      43.054   4.702  12.911  0.00  0.00    +0.000 C 
ATOM     18  C   UNL     1      43.272   3.926  11.619  0.00  0.00    +0.000 C 
ENDBRANCH  10  18
ENDBRANCH   8  10
ENDBRANCH   7   8
ENDBRANCH   1   7
BRANCH   4  19
ATOM     19  C   UNL     1      48.563   6.741  15.966  0.00  0.00    +0.000 C 
BRANCH  19  20
ATOM     20  N   UNL     1      49.498   5.687  16.263  0.00  0.00    +0.000 N 
ATOM     21  C   UNL     1      49.234   4.745  17.220  0.00  0.00    +0.000 C 
ATOM     22  O   UNL     1      48.167   4.709  17.826  0.00  0.00    +0.000 OA
ATOM     23  H   UNL     1      50.434   5.776  15.893  0.00  0.00    +0.000 HD
BRANCH  21  24
ATOM     24  C   UNL     1      50.274   3.731  17.433  0.00  0.00    +0.000 A 
ATOM     25  C   UNL     1      49.968   2.392  17.227  0.00  0.00    +0.000 A 
ATOM     26  S   UNL     1      51.300   1.354  17.434  0.00  0.00    +0.000 S 
ATOM     27  C   UNL     1      52.310   2.652  17.861  0.00  0.00    +0.000 A 
ATOM     28  N   UNL     1      53.596   2.422  18.170  0.00  0.00    +0.000 NA
ATOM     29  C   UNL     1      54.252   3.532  18.505  0.00  0.00    +0.000 A 
ATOM     30  N   UNL     1      53.764   4.775  18.563  0.00  0.00    +0.000 NA
ATOM     31  C   UNL     1      52.466   4.960  18.248  0.00  0.00    +0.000 A 
ATOM     32  C   UNL     1      51.659   3.881  17.853  0.00  0.00    +0.000 A 
BRANCH  31  33
ATOM     33  O   UNL     1      51.932   6.231  18.315  0.00  0.00    +0.000 OA
ATOM     34  C   UNL     1      52.553   7.069  19.285  0.00  0.00    +0.000 C 
ENDBRANCH  31  33
ENDBRANCH  21  24
ENDBRANCH  19  20
ENDBRANCH   4  19
TORSDOF 9
ENDMDL
MODEL 9
REMARK VINA RESULT:    -6.369      1.681      2.544
REMARK INTER + INTRA:         -11.417
REMARK INTER:                 -10.249
REMARK INTRA:                  -1.168
REMARK UNBOUND:                -1.697
REMARK  Name = 
REMARK  11 active torsions:
REMARK  status: ('A' for Active; 'I' for Inactive)
REMARK    1  A    between atoms: C_1  and  C_2
REMARK    2  A    between atoms: C_2  and  C_3
REMARK    3  A    between atoms: C_3  and  N_4
REMARK    4  A    between atoms: C_3  and  C_27
REMARK    5  A    between atoms: N_4  and  C_5
REMARK    6  A    between atoms: C_5  and  C_6
REMARK    7  A    between atoms: C_9  and  C_10
REMARK    8  A    between atoms: C_10  and  N_11
REMARK    9  A    between atoms: C_12  and  C_14
REMARK   10  A    between atoms: C_21  and  O_22
REMARK   11  A    between atoms: O_22  and  C_23
REMARK                            x       y       z     vdW  Elec       q    Type
REMARK                         _______ _______ _______ _____ _____    ______ ____
ROOT
ATOM      1  C   UNL     1      44.610   3.792  12.107  0.00  0.00    +0.000 A 
ATOM      2  C   UNL     1      43.979   5.027  12.310  0.00  0.00    +0.000 A 
ATOM      3  C   UNL     1      44.669   6.093  12.888  0.00  0.00    +0.000 A 
ATOM      4  C   UNL     1      46.007   5.946  13.281  0.00  0.00    +0.000 A 
ATOM      5  C   UNL     1      46.624   4.699  13.122  0.00  0.00    +0.000 A 
ATOM      6  C   UNL     1      45.937   3.634  12.535  0.00  0.00    +0.000 A 
ENDROOT
BRANCH   1   7
ATOM      7  C   UNL     1      43.877   2.643  11.451  0.00  0.00    +0.000 C 
BRANCH   7   8
ATOM      8  N   UNL     1      43.953   2.730   9.994  0.00  0.00    +0.000 NA
ATOM      9  H   UNL     1      43.918   1.796   9.597  0.00  0.00    +0.000 HD
BRANCH   8  10
ATOM     10  C   UNL     1      45.138   3.433   9.479  0.00  0.00    +0.000 C 
BRANCH  10  11
ATOM     11  C   UNL     1      45.814   2.633   8.365  0.00  0.00    +0.000 A 
ATOM     12  C   UNL     1      46.262   3.297   7.209  0.00  0.00    +0.000 A 
ATOM     13  C   UNL     1      46.946   2.606   6.206  0.00  0.00    +0.000 A 
ATOM     14  C   UNL     1      47.199   1.242   6.347  0.00  0.00    +0.000 A 
ATOM     15  C   UNL     1      46.767   0.569   7.484  0.00  0.00    +0.000 A 
ATOM     16  C   UNL     1      46.076   1.258   8.481  0.00  0.00    +0.000 A 
ENDBRANCH  10  11
BRANCH  10  18
ATOM     17  C   UNL     1      46.050   5.855   9.494  0.00  0.00    +0.000 C 
ATOM     18  C   UNL     1      44.906   4.923   9.120  0.00  0.00    +0.000 C 
ENDBRANCH  10  18
ENDBRANCH   8  10
ENDBRANCH   7   8
ENDBRANCH   1   7
BRANCH   4  19
ATOM     19  C   UNL     1      46.752   7.091  13.910  0.00  0.00    +0.000 C 
BRANCH  19  20
ATOM     20  N   UNL     1      47.973   6.632  14.519  0.00  0.00    +0.000 N 
ATOM     21  C   UNL     1      48.734   7.455  15.304  0.00  0.00    +0.000 C 
ATOM     22  O   UNL     1      48.386   8.599  15.582  0.00  0.00    +0.000 OA
ATOM     23  H   UNL     1      48.357   5.756  14.192  0.00  0.00    +0.000 HD
BRANCH  21  24
ATOM     24  C   UNL     1      49.962   6.869  15.856  0.00  0.00    +0.000 A 
ATOM     25  C   UNL     1      51.187   7.444  15.545  0.00  0.00    +0.000 A 
ATOM     26  S   UNL     1      52.502   6.701  16.329  0.00  0.00    +0.000 S 
ATOM     27  C   UNL     1      51.483   5.556  17.062  0.00  0.00    +0.000 A 
ATOM     28  N   UNL     1      52.006   4.616  17.865  0.00  0.00    +0.000 NA
ATOM     29  C   UNL     1      51.088   3.779  18.345  0.00  0.00    +0.000 A 
ATOM     30  N   UNL     1      49.773   3.792  18.102  0.00  0.00    +0.000 NA
ATOM     31  C   UNL     1      49.291   4.752  17.286  0.00  0.00    +0.000 A 
ATOM     32  C   UNL     1      50.143   5.717  16.726  0.00  0.00    +0.000 A 
BRANCH  31  33
ATOM     33  O   UNL     1      47.940   4.779  17.005  0.00  0.00    +0.000 OA
ATOM     34  C   UNL     1      47.119   5.041  18.138  0.00  0.00    +0.000 C 
ENDBRANCH  31  33
ENDBRANCH  21  24
ENDBRANCH  19  20
ENDBRANCH   4  19
TORSDOF 9
ENDMDL
