MODEL 1
REMARK VINA RESULT:    -8.550      0.000      0.000
REMARK INTER + INTRA:         -13.336
REMARK INTER:                 -12.049
REMARK INTRA:                  -1.287
REMARK UNBOUND:                -1.287
REMARK  Name = 
REMARK  8 active torsions:
REMARK  status: ('A' for Active; 'I' for Inactive)
REMARK    1  A    between atoms: C_1  and  C_2
REMARK    2  A    between atoms: C_2  and  N_3
REMARK    3  A    between atoms: C_2  and  C_25
REMARK    4  A    between atoms: N_3  and  C_4
REMARK    5  A    between atoms: C_4  and  C_5
REMARK    6  A    between atoms: C_8  and  C_9
REMARK    7  A    between atoms: C_9  and  N_10
REMARK    8  A    between atoms: C_11  and  C_13
REMARK                            x       y       z     vdW  Elec       q    Type
REMARK                         _______ _______ _______ _____ _____    ______ ____
ROOT
ATOM      1  C   UNL     1      44.610   5.348  10.884  0.00  0.00    +0.000 A 
ATOM      2  C   UNL     1      45.814   5.824  10.362  0.00  0.00    +0.000 A 
ATOM      3  C   UNL     1      46.595   6.703  11.112  0.00  0.00    +0.000 A 
ATOM      4  C   UNL     1      46.161   7.078  12.383  0.00  0.00    +0.000 A 
ATOM      5  N   UNL     1      44.981   6.655  12.899  0.00  0.00    +0.000 NA
ATOM      6  C   UNL     1      44.240   5.807  12.145  0.00  0.00    +0.000 A 
ENDROOT
BRANCH   1   7
ATOM      7  C   UNL     1      43.766   4.344  10.145  0.00  0.00    +0.000 C 
BRANCH   7   8
ATOM      8  N   UNL     1      44.420   3.907   8.917  0.00  0.00    +0.000 NA
ATOM      9  H   UNL     1      45.069   4.636   8.616  0.00  0.00    +0.000 HD
BRANCH   8  11
ATOM     10  C   UNL     1      44.262   1.417   9.173  0.00  0.00    +0.000 C 
ATOM     11  C   UNL     1      45.171   2.648   9.048  0.00  0.00    +0.000 C 
BRANCH  11  12
ATOM     12  C   UNL     1      46.085   2.497   7.848  0.00  0.00    +0.000 A 
ATOM     13  C   UNL     1      46.176   3.485   6.858  0.00  0.00    +0.000 A 
ATOM     14  C   UNL     1      47.049   3.323   5.789  0.00  0.00    +0.000 A 
ATOM     15  C   UNL     1      47.812   2.169   5.738  0.00  0.00    +0.000 A 
ATOM     16  N   UNL     1      47.753   1.188   6.664  0.00  0.00    +0.000 NA
ATOM     17  C   UNL     1      46.894   1.375   7.694  0.00  0.00    +0.000 A 
ENDBRANCH  11  12
ENDBRANCH   8  11
ENDBRANCH   7   8
ENDBRANCH   1   7
BRANCH   4  18
ATOM     18  C   UNL     1      46.993   8.018  13.223  0.00  0.00    +0.000 C 
BRANCH  18  19
ATOM     19  N   UNL     1      47.419   7.387  14.452  0.00  0.00    +0.000 N 
ATOM     20  C   UNL     1      48.673   6.857  14.599  0.00  0.00    +0.000 C 
ATOM     21  O   UNL     1      49.527   6.951  13.722  0.00  0.00    +0.000 OA
ATOM     22  H   UNL     1      46.671   7.101  15.077  0.00  0.00    +0.000 HD
BRANCH  20  23
ATOM     23  C   UNL     1      48.973   6.231  15.891  0.00  0.00    +0.000 A 
ATOM     24  C   UNL     1      49.983   6.756  16.687  0.00  0.00    +0.000 A 
ATOM     25  S   UNL     1      50.183   5.939  18.170  0.00  0.00    +0.000 S 
ATOM     26  C   UNL     1      48.961   4.821  17.779  0.00  0.00    +0.000 A 
ATOM     27  N   UNL     1      48.642   3.811  18.631  0.00  0.00    +0.000 NA
ATOM     28  C   UNL     1      47.717   3.021  18.198  0.00  0.00    +0.000 A 
ATOM     29  N   UNL     1      47.079   3.152  16.992  0.00  0.00    +0.000 N 
ATOM     30  C   UNL     1      47.346   4.176  16.115  0.00  0.00    +0.000 A 
ATOM     31  O   UNL     1      46.722   4.296  15.066  0.00  0.00    +0.000 OA
ATOM     32  C   UNL     1      48.391   5.083  16.546  0.00  0.00    +0.000 A 
ATOM     33  H   UNL     1      46.354   2.507  16.716  0.00  0.00    +0.000 HD
ENDBRANCH  20  23
ENDBRANCH  18  19
ENDBRANCH   4  18
TORSDOF 7
ENDMDL
MODEL 2
REMARK VINA RESULT:    -8.070      1.968      2.279
REMARK INTER + INTRA:         -12.659
REMARK INTER:                 -11.795
REMARK INTRA:                  -0.865
REMARK UNBOUND:                -1.287
REMARK  Name = 
REMARK  8 active torsions:
REMARK  status: ('A' for Active; 'I' for Inactive)
REMARK    1  A    between atoms: C_1  and  C_2
REMARK    2  A    between atoms: C_2  and  N_3
REMARK    3  A    between atoms: C_2  and  C_25
REMARK    4  A    between atoms: N_3  and  C_4
REMARK    5  A    between atoms: C_4  and  C_5
REMARK    6  A    between atoms: C_8  and  C_9
REMARK    7  A    between atoms: C_9  and  N_10
REMARK    8  A    between atoms: C_11  and  C_13
REMARK                            x       y       z     vdW  Elec       q    Type
REMARK                         _______ _______ _______ _____ _____    ______ ____
ROOT
ATOM      1  C   UNL     1      45.544   4.267  12.203  0.00  0.00    +0.000 A 
ATOM      2  C   UNL     1      45.711   5.556  11.696  0.00  0.00    +0.000 A 
ATOM      3  C   UNL     1      46.674   6.399  12.249  0.00  0.00    +0.000 A 
ATOM      4  C   UNL     1      47.466   5.928  13.295  0.00  0.00    +0.000 A 
ATOM      5  N   UNL     1      47.302   4.692  13.827  0.00  0.00    +0.000 NA
ATOM      6  C   UNL     1      46.354   3.897  13.273  0.00  0.00    +0.000 A 
ENDROOT
BRANCH   1   7
ATOM      7  C   UNL     1      44.569   3.294  11.596  0.00  0.00    +0.000 C 
BRANCH   7   8
ATOM      8  N   UNL     1      45.195   2.514  10.534  0.00  0.00    +0.000 NA
ATOM      9  H   UNL     1      45.098   1.522  10.758  0.00  0.00    +0.000 HD
BRANCH   8  11
ATOM     10  C   UNL     1      44.080   4.169   9.015  0.00  0.00    +0.000 C 
ATOM     11  C   UNL     1      44.619   2.743   9.199  0.00  0.00    +0.000 C 
BRANCH  11  12
ATOM     12  C   UNL     1      45.678   2.450   8.154  0.00  0.00    +0.000 A 
ATOM     13  C   UNL     1      46.105   3.424   7.241  0.00  0.00    +0.000 A 
ATOM     14  C   UNL     1      47.101   3.126   6.317  0.00  0.00    +0.000 A 
ATOM     15  C   UNL     1      47.643   1.853   6.331  0.00  0.00    +0.000 A 
ATOM     16  N   UNL     1      47.258   0.881   7.187  0.00  0.00    +0.000 NA
ATOM     17  C   UNL     1      46.288   1.202   8.075  0.00  0.00    +0.000 A 
ENDBRANCH  11  12
ENDBRANCH   8  11
ENDBRANCH   7   8
ENDBRANCH   1   7
BRANCH   4  18
ATOM     18  C   UNL     1      48.526   6.816  13.905  0.00  0.00    +0.000 C 
BRANCH  18  19
ATOM     19  N   UNL     1      48.317   6.981  15.326  0.00  0.00    +0.000 N 
ATOM     20  C   UNL     1      49.263   6.616  16.246  0.00  0.00    +0.000 C 
ATOM     21  O   UNL     1      50.368   6.195  15.913  0.00  0.00    +0.000 OA
ATOM     22  H   UNL     1      47.350   7.100  15.614  0.00  0.00    +0.000 HD
BRANCH  20  23
ATOM     23  C   UNL     1      48.920   6.821  17.658  0.00  0.00    +0.000 A 
ATOM     24  C   UNL     1      48.714   8.111  18.130  0.00  0.00    +0.000 A 
ATOM     25  S   UNL     1      48.287   8.177  19.779  0.00  0.00    +0.000 S 
ATOM     26  C   UNL     1      48.412   6.487  19.934  0.00  0.00    +0.000 A 
ATOM     27  N   UNL     1      48.195   5.878  21.130  0.00  0.00    +0.000 NA
ATOM     28  C   UNL     1      48.349   4.597  21.112  0.00  0.00    +0.000 A 
ATOM     29  N   UNL     1      48.697   3.868  20.004  0.00  0.00    +0.000 N 
ATOM     30  C   UNL     1      48.895   4.437  18.769  0.00  0.00    +0.000 A 
ATOM     31  O   UNL     1      49.154   3.752  17.785  0.00  0.00    +0.000 OA
ATOM     32  C   UNL     1      48.749   5.879  18.738  0.00  0.00    +0.000 A 
ATOM     33  H   UNL     1      48.791   2.865  20.052  0.00  0.00    +0.000 HD
ENDBRANCH  20  23
ENDBRANCH  18  19
ENDBRANCH   4  18
TORSDOF 7
ENDMDL
MODEL 3
REMARK VINA RESULT:    -7.889      2.312      3.508
REMARK INTER + INTRA:         -12.404
REMARK INTER:                 -11.324
REMARK INTRA:                  -1.081
REMARK UNBOUND:                -1.287
REMARK  Name = 
REMARK  8 active torsions:
REMARK  status: ('A' for Active; 'I' for Inactive)
REMARK    1  A    between atoms: C_1  and  C_2
REMARK    2  A    between atoms: C_2  and  N_3
REMARK    3  A    between atoms: C_2  and  C_25
REMARK    4  A    between atoms: N_3  and  C_4
REMARK    5  A    between atoms: C_4  and  C_5
REMARK    6  A    between atoms: C_8  and  C_9
REMARK    7  A    between atoms: C_9  and  N_10
REMARK    8  A    between atoms: C_11  and  C_13
REMARK                            x       y       z     vdW  Elec       q    Type
REMARK                         _______ _______ _______ _____ _____    ______ ____
ROOT
ATOM      1  C   UNL     1      44.812   4.620  11.895  0.00  0.00    +0.000 A 
ATOM      2  C   UNL     1      45.206   5.709  12.674  0.00  0.00    +0.000 A 
ATOM      3  C   UNL     1      46.070   5.515  13.751  0.00  0.00    +0.000 A 
ATOM      4  C   UNL     1      46.538   4.230  14.020  0.00  0.00    +0.000 A 
ATOM      5  N   UNL     1      46.145   3.151  13.299  0.00  0.00    +0.000 NA
ATOM      6  C   UNL     1      45.300   3.369  12.263  0.00  0.00    +0.000 A 
ENDROOT
BRANCH   1   7
ATOM      7  C   UNL     1      43.939   4.786  10.681  0.00  0.00    +0.000 C 
BRANCH   7   8
ATOM      8  N   UNL     1      44.204   3.745   9.694  0.00  0.00    +0.000 NA
ATOM      9  H   UNL     1      43.311   3.392   9.346  0.00  0.00    +0.000 HD
BRANCH   8  11
ATOM     10  C   UNL     1      45.958   5.346   8.888  0.00  0.00    +0.000 C 
ATOM     11  C   UNL     1      45.001   4.196   8.542  0.00  0.00    +0.000 C 
BRANCH  11  12
ATOM     12  C   UNL     1      45.783   3.017   7.998  0.00  0.00    +0.000 A 
ATOM     13  C   UNL     1      46.666   3.151   6.918  0.00  0.00    +0.000 A 
ATOM     14  C   UNL     1      47.389   2.052   6.467  0.00  0.00    +0.000 A 
ATOM     15  C   UNL     1      47.207   0.841   7.113  0.00  0.00    +0.000 A 
ATOM     16  N   UNL     1      46.363   0.664   8.153  0.00  0.00    +0.000 NA
ATOM     17  C   UNL     1      45.673   1.753   8.569  0.00  0.00    +0.000 A 
ENDBRANCH  11  12
ENDBRANCH   8  11
ENDBRANCH   7   8
ENDBRANCH   1   7
BRANCH   4  18
ATOM     18  C   UNL     1      47.485   3.992  15.173  0.00  0.00    +0.000 C 
BRANCH  18  19
ATOM     19  N   UNL     1      47.537   5.137  16.054  0.00  0.00    +0.000 N 
ATOM     20  C   UNL     1      48.655   5.439  16.786  0.00  0.00    +0.000 C 
ATOM     21  O   UNL     1      49.696   4.797  16.681  0.00  0.00    +0.000 OA
ATOM     22  H   UNL     1      46.636   5.523  16.321  0.00  0.00    +0.000 HD
BRANCH  20  23
ATOM     23  C   UNL     1      48.571   6.619  17.654  0.00  0.00    +0.000 A 
ATOM     24  C   UNL     1      48.575   6.454  19.033  0.00  0.00    +0.000 A 
ATOM     25  S   UNL     1      48.509   7.920  19.900  0.00  0.00    +0.000 S 
ATOM     26  C   UNL     1      48.423   8.827  18.463  0.00  0.00    +0.000 A 
ATOM     27  N   UNL     1      48.317  10.182  18.499  0.00  0.00    +0.000 NA
ATOM     28  C   UNL     1      48.233  10.741  17.338  0.00  0.00    +0.000 A 
ATOM     29  N   UNL     1      48.250  10.067  16.144  0.00  0.00    +0.000 N 
ATOM     30  C   UNL     1      48.388   8.703  16.059  0.00  0.00    +0.000 A 
ATOM     31  O   UNL     1      48.452   8.134  14.974  0.00  0.00    +0.000 OA
ATOM     32  C   UNL     1      48.469   8.024  17.337  0.00  0.00    +0.000 A 
ATOM     33  H   UNL     1      48.193  10.565  15.268  0.00  0.00    +0.000 HD
ENDBRANCH  20  23
ENDBRANCH  18  19
ENDBRANCH   4  18
TORSDOF 7
ENDMDL
MODEL 4
REMARK VINA RESULT:    -7.437      2.803      8.532
REMARK INTER + INTRA:         -11.767
REMARK INTER:                 -10.281
REMARK INTRA:                  -1.486
REMARK UNBOUND:                -1.287
REMARK  Name = 
REMARK  8 active torsions:
REMARK  status: ('A' for Active; 'I' for Inactive)
REMARK    1  A    between atoms: C_1  and  C_2
REMARK    2  A    between atoms: C_2  and  N_3
REMARK    3  A    between atoms: C_2  and  C_25
REMARK    4  A    between atoms: N_3  and  C_4
REMARK    5  A    between atoms: C_4  and  C_5
REMARK    6  A    between atoms: C_8  and  C_9
REMARK    7  A    between atoms: C_9  and  N_10
REMARK    8  A    between atoms: C_11  and  C_13
REMARK                            x       y       z     vdW  Elec       q    Type
REMARK                         _______ _______ _______ _____ _____    ______ ____
ROOT
ATOM      1  C   UNL     1      49.002   7.871  16.309  0.00  0.00    +0.000 A 
ATOM      2  C   UNL     1      48.278   8.926  15.754  0.00  0.00    +0.000 A 
ATOM      3  C   UNL     1      47.904   8.880  14.412  0.00  0.00    +0.000 A 
ATOM      4  C   UNL     1      48.250   7.764  13.651  0.00  0.00    +0.000 A 
ATOM      5  N   UNL     1      48.981   6.741  14.158  0.00  0.00    +0.000 NA
ATOM      6  C   UNL     1      49.336   6.817  15.463  0.00  0.00    +0.000 A 
ENDROOT
BRANCH   1   7
ATOM      7  C   UNL     1      49.368   7.840  17.769  0.00  0.00    +0.000 C 
BRANCH   7   8
ATOM      8  N   UNL     1      48.240   7.410  18.587  0.00  0.00    +0.000 NA
ATOM      9  H   UNL     1      47.447   7.217  17.973  0.00  0.00    +0.000 HD
BRANCH   8  11
ATOM     10  C   UNL     1      47.598   6.098  20.626  0.00  0.00    +0.000 C 
ATOM     11  C   UNL     1      48.503   6.205  19.390  0.00  0.00    +0.000 C 
BRANCH  11  12
ATOM     12  C   UNL     1      48.325   4.983  18.510  0.00  0.00    +0.000 A 
ATOM     13  C   UNL     1      49.365   4.069  18.296  0.00  0.00    +0.000 A 
ATOM     14  C   UNL     1      49.154   2.943  17.507  0.00  0.00    +0.000 A 
ATOM     15  C   UNL     1      47.900   2.763  16.950  0.00  0.00    +0.000 A 
ATOM     16  N   UNL     1      46.871   3.621  17.123  0.00  0.00    +0.000 NA
ATOM     17  C   UNL     1      47.107   4.706  17.897  0.00  0.00    +0.000 A 
ENDBRANCH  11  12
ENDBRANCH   8  11
ENDBRANCH   7   8
ENDBRANCH   1   7
BRANCH   4  18
ATOM     18  C   UNL     1      47.848   7.681  12.197  0.00  0.00    +0.000 C 
BRANCH  18  19
ATOM     19  N   UNL     1      47.085   6.482  11.932  0.00  0.00    +0.000 N 
ATOM     20  C   UNL     1      45.716   6.472  11.958  0.00  0.00    +0.000 C 
ATOM     21  O   UNL     1      45.060   7.494  12.138  0.00  0.00    +0.000 OA
ATOM     22  H   UNL     1      47.600   5.610  12.015  0.00  0.00    +0.000 HD
BRANCH  20  23
ATOM     23  C   UNL     1      45.064   5.186  11.687  0.00  0.00    +0.000 A 
ATOM     24  C   UNL     1      44.375   4.541  12.706  0.00  0.00    +0.000 A 
ATOM     25  S   UNL     1      43.644   3.079  12.223  0.00  0.00    +0.000 S 
ATOM     26  C   UNL     1      44.264   3.229  10.646  0.00  0.00    +0.000 A 
ATOM     27  N   UNL     1      44.027   2.272   9.709  0.00  0.00    +0.000 NA
ATOM     28  C   UNL     1      44.579   2.499   8.565  0.00  0.00    +0.000 A 
ATOM     29  N   UNL     1      45.343   3.599   8.270  0.00  0.00    +0.000 N 
ATOM     30  C   UNL     1      45.581   4.606   9.174  0.00  0.00    +0.000 A 
ATOM     31  O   UNL     1      46.226   5.602   8.865  0.00  0.00    +0.000 OA
ATOM     32  C   UNL     1      44.997   4.391  10.484  0.00  0.00    +0.000 A 
ATOM     33  H   UNL     1      45.737   3.724   7.349  0.00  0.00    +0.000 HD
ENDBRANCH  20  23
ENDBRANCH  18  19
ENDBRANCH   4  18
TORSDOF 7
ENDMDL
MODEL 5
REMARK VINA RESULT:    -7.167      3.074      4.609
REMARK INTER + INTRA:         -11.387
REMARK INTER:                 -10.324
REMARK INTRA:                  -1.063
REMARK UNBOUND:                -1.287
REMARK  Name = 
REMARK  8 active torsions:
REMARK  status: ('A' for Active; 'I' for Inactive)
REMARK    1  A    between atoms: C_1  and  C_2
REMARK    2  A    between atoms: C_2  and  N_3
REMARK    3  A    between atoms: C_2  and  C_25
REMARK    4  A    between atoms: N_3  and  C_4
REMARK    5  A    between atoms: C_4  and  C_5
REMARK    6  A    between atoms: C_8  and  C_9
REMARK    7  A    between atoms: C_9  and  N_10
REMARK    8  A    between atoms: C_11  and  C_13
REMARK                            x       y       z     vdW  Elec       q    Type
REMARK                         _______ _______ _______ _____ _____    ______ ____
ROOT
ATOM      1  C   UNL     1      47.087   4.990  14.279  0.00  0.00    +0.000 A 
ATOM      2  C   UNL     1      47.839   6.150  14.091  0.00  0.00    +0.000 A 
ATOM      3  C   UNL     1      48.618   6.647  15.135  0.00  0.00    +0.000 A 
ATOM      4  C   UNL     1      48.643   5.961  16.348  0.00  0.00    +0.000 A 
ATOM      5  N   UNL     1      47.896   4.850  16.566  0.00  0.00    +0.000 NA
ATOM      6  C   UNL     1      47.144   4.394  15.536  0.00  0.00    +0.000 A 
ENDROOT
BRANCH   1   7
ATOM      7  C   UNL     1      46.286   4.373  13.163  0.00  0.00    +0.000 C 
BRANCH   7   8
ATOM      8  N   UNL     1      45.135   5.201  12.820  0.00  0.00    +0.000 NA
ATOM      9  H   UNL     1      45.451   5.968  12.225  0.00  0.00    +0.000 HD
BRANCH   8  11
ATOM     10  C   UNL     1      42.752   5.274  12.042  0.00  0.00    +0.000 C 
ATOM     11  C   UNL     1      44.065   4.480  12.112  0.00  0.00    +0.000 C 
BRANCH  11  12
ATOM     12  C   UNL     1      44.544   4.146  10.713  0.00  0.00    +0.000 A 
ATOM     13  C   UNL     1      44.313   2.892  10.132  0.00  0.00    +0.000 A 
ATOM     14  C   UNL     1      44.741   2.634   8.835  0.00  0.00    +0.000 A 
ATOM     15  C   UNL     1      45.393   3.644   8.150  0.00  0.00    +0.000 A 
ATOM     16  N   UNL     1      45.643   4.865   8.671  0.00  0.00    +0.000 NA
ATOM     17  C   UNL     1      45.214   5.086   9.936  0.00  0.00    +0.000 A 
ENDBRANCH  11  12
ENDBRANCH   8  11
ENDBRANCH   7   8
ENDBRANCH   1   7
BRANCH   4  18
ATOM     18  C   UNL     1      49.488   6.470  17.492  0.00  0.00    +0.000 C 
BRANCH  18  19
ATOM     19  N   UNL     1      50.451   5.478  17.914  0.00  0.00    +0.000 N 
ATOM     20  C   UNL     1      51.692   5.381  17.342  0.00  0.00    +0.000 C 
ATOM     21  O   UNL     1      52.080   6.175  16.490  0.00  0.00    +0.000 OA
ATOM     22  H   UNL     1      50.069   4.692  18.433  0.00  0.00    +0.000 HD
BRANCH  20  23
ATOM     23  C   UNL     1      52.568   4.320  17.851  0.00  0.00    +0.000 A 
ATOM     24  C   UNL     1      53.801   4.656  18.395  0.00  0.00    +0.000 A 
ATOM     25  S   UNL     1      54.682   3.316  18.974  0.00  0.00    +0.000 S 
ATOM     26  C   UNL     1      53.470   2.234  18.472  0.00  0.00    +0.000 A 
ATOM     27  N   UNL     1      53.614   0.893  18.649  0.00  0.00    +0.000 NA
ATOM     28  C   UNL     1      52.632   0.188  18.198  0.00  0.00    +0.000 A 
ATOM     29  N   UNL     1      51.515   0.701  17.590  0.00  0.00    +0.000 N 
ATOM     30  C   UNL     1      51.312   2.049  17.419  0.00  0.00    +0.000 A 
ATOM     31  O   UNL     1      50.279   2.481  16.918  0.00  0.00    +0.000 OA
ATOM     32  C   UNL     1      52.396   2.888  17.894  0.00  0.00    +0.000 A 
ATOM     33  H   UNL     1      50.775   0.095  17.269  0.00  0.00    +0.000 HD
ENDBRANCH  20  23
ENDBRANCH  18  19
ENDBRANCH   4  18
TORSDOF 7
ENDMDL
MODEL 6
REMARK VINA RESULT:    -7.153      4.957      9.235
REMARK INTER + INTRA:         -11.367
REMARK INTER:                 -10.291
REMARK INTRA:                  -1.076
REMARK UNBOUND:                -1.287
REMARK  Name = 
REMARK  8 active torsions:
REMARK  status: ('A' for Active; 'I' for Inactive)
REMARK    1  A    between atoms: C_1  and  C_2
REMARK    2  A    between atoms: C_2  and  N_3
REMARK    3  A    between atoms: C_2  and  C_25
REMARK    4  A    between atoms: N_3  and  C_4
REMARK    5  A    between atoms: C_4  and  C_5
REMARK    6  A    between atoms: C_8  and  C_9
REMARK    7  A    between atoms: C_9  and  N_10
REMARK    8  A    between atoms: C_11  and  C_13
REMARK                            x       y       z     vdW  Elec       q    Type
REMARK                         _______ _______ _______ _____ _____    ______ ____
ROOT
ATOM      1  C   UNL     1      51.077   2.343  17.413  0.00  0.00    +0.000 A 
ATOM      2  C   UNL     1      51.696   3.574  17.636  0.00  0.00    +0.000 A 
ATOM      3  C   UNL     1      50.956   4.751  17.533  0.00  0.00    +0.000 A 
ATOM      4  C   UNL     1      49.600   4.673  17.220  0.00  0.00    +0.000 A 
ATOM      5  N   UNL     1      48.983   3.492  16.966  0.00  0.00    +0.000 NA
ATOM      6  C   UNL     1      49.728   2.366  17.068  0.00  0.00    +0.000 A 
ENDROOT
BRANCH   1   7
ATOM      7  C   UNL     1      51.813   1.041  17.582  0.00  0.00    +0.000 C 
BRANCH   7   8
ATOM      8  N   UNL     1      52.903   1.172  18.543  0.00  0.00    +0.000 NA
ATOM      9  H   UNL     1      52.820   0.425  19.234  0.00  0.00    +0.000 HD
BRANCH   8  11
ATOM     10  C   UNL     1      55.342   1.660  18.860  0.00  0.00    +0.000 C 
ATOM     11  C   UNL     1      54.245   1.099  17.944  0.00  0.00    +0.000 C 
BRANCH  11  12
ATOM     12  C   UNL     1      54.548  -0.346  17.598  0.00  0.00    +0.000 A 
ATOM     13  C   UNL     1      54.590  -1.347  18.578  0.00  0.00    +0.000 A 
ATOM     14  C   UNL     1      54.841  -2.666  18.217  0.00  0.00    +0.000 A 
ATOM     15  C   UNL     1      55.045  -2.949  16.877  0.00  0.00    +0.000 A 
ATOM     16  N   UNL     1      55.020  -2.016  15.901  0.00  0.00    +0.000 NA
ATOM     17  C   UNL     1      54.773  -0.741  16.283  0.00  0.00    +0.000 A 
ENDBRANCH  11  12
ENDBRANCH   8  11
ENDBRANCH   7   8
ENDBRANCH   1   7
BRANCH   4  18
ATOM     18  C   UNL     1      48.770   5.931  17.113  0.00  0.00    +0.000 C 
BRANCH  18  19
ATOM     19  N   UNL     1      47.886   5.881  15.970  0.00  0.00    +0.000 N 
ATOM     20  C   UNL     1      48.282   6.299  14.727  0.00  0.00    +0.000 C 
ATOM     21  O   UNL     1      49.429   6.673  14.500  0.00  0.00    +0.000 OA
ATOM     22  H   UNL     1      46.897   5.801  16.187  0.00  0.00    +0.000 HD
BRANCH  20  23
ATOM     23  C   UNL     1      47.283   6.211  13.656  0.00  0.00    +0.000 A 
ATOM     24  C   UNL     1      46.877   7.367  13.004  0.00  0.00    +0.000 A 
ATOM     25  S   UNL     1      45.742   7.092  11.763  0.00  0.00    +0.000 S 
ATOM     26  C   UNL     1      45.713   5.422  12.087  0.00  0.00    +0.000 A 
ATOM     27  N   UNL     1      44.904   4.588  11.380  0.00  0.00    +0.000 NA
ATOM     28  C   UNL     1      44.961   3.353  11.747  0.00  0.00    +0.000 A 
ATOM     29  N   UNL     1      45.759   2.873  12.754  0.00  0.00    +0.000 N 
ATOM     30  C   UNL     1      46.616   3.673  13.472  0.00  0.00    +0.000 A 
ATOM     31  O   UNL     1      47.355   3.206  14.332  0.00  0.00    +0.000 OA
ATOM     32  C   UNL     1      46.577   5.076  13.110  0.00  0.00    +0.000 A 
ATOM     33  H   UNL     1      45.767   1.891  12.986  0.00  0.00    +0.000 HD
ENDBRANCH  20  23
ENDBRANCH  18  19
ENDBRANCH   4  18
TORSDOF 7
ENDMDL
MODEL 7
REMARK VINA RESULT:    -7.141      2.338      3.996
REMARK INTER + INTRA:         -11.351
REMARK INTER:                 -10.244
REMARK INTRA:                  -1.107
REMARK UNBOUND:                -1.287
REMARK  Name = 
REMARK  8 active torsions:
REMARK  status: ('A' for Active; 'I' for Inactive)
REMARK    1  A    between atoms: C_1  and  C_2
REMARK    2  A    between atoms: C_2  and  N_3
REMARK    3  A    between atoms: C_2  and  C_25
REMARK    4  A    between atoms: N_3  and  C_4
REMARK    5  A    between atoms: C_4  and  C_5
REMARK    6  A    between atoms: C_8  and  C_9
REMARK    7  A    between atoms: C_9  and  N_10
REMARK    8  A    between atoms: C_11  and  C_13
REMARK                            x       y       z     vdW  Elec       q    Type
REMARK                         _______ _______ _______ _____ _____    ______ ____
ROOT
ATOM      1  C   UNL     1      44.847   4.119  11.680  0.00  0.00    +0.000 A 
ATOM      2  C   UNL     1      45.114   5.455  11.982  0.00  0.00    +0.000 A 
ATOM      3  C   UNL     1      45.931   5.770  13.067  0.00  0.00    +0.000 A 
ATOM      4  C   UNL     1      46.482   4.737  13.823  0.00  0.00    +0.000 A 
ATOM      5  N   UNL     1      46.212   3.432  13.569  0.00  0.00    +0.000 NA
ATOM      6  C   UNL     1      45.410   3.156  12.513  0.00  0.00    +0.000 A 
ENDROOT
BRANCH   1   7
ATOM      7  C   UNL     1      44.031   3.725  10.478  0.00  0.00    +0.000 C 
BRANCH   7   8
ATOM      8  N   UNL     1      44.862   3.626   9.284  0.00  0.00    +0.000 NA
ATOM      9  H   UNL     1      45.649   4.271   9.380  0.00  0.00    +0.000 HD
BRANCH   8  11
ATOM     10  C   UNL     1      44.303   1.215   8.882  0.00  0.00    +0.000 C 
ATOM     11  C   UNL     1      45.399   2.279   9.033  0.00  0.00    +0.000 C 
BRANCH  11  12
ATOM     12  C   UNL     1      46.257   2.320   7.784  0.00  0.00    +0.000 A 
ATOM     13  C   UNL     1      46.186   3.382   6.873  0.00  0.00    +0.000 A 
ATOM     14  C   UNL     1      47.012   3.398   5.754  0.00  0.00    +0.000 A 
ATOM     15  C   UNL     1      47.891   2.344   5.576  0.00  0.00    +0.000 A 
ATOM     16  N   UNL     1      47.989   1.297   6.424  0.00  0.00    +0.000 NA
ATOM     17  C   UNL     1      47.172   1.310   7.504  0.00  0.00    +0.000 A 
ENDBRANCH  11  12
ENDBRANCH   8  11
ENDBRANCH   7   8
ENDBRANCH   1   7
BRANCH   4  18
ATOM     18  C   UNL     1      47.381   5.048  14.996  0.00  0.00    +0.000 C 
BRANCH  18  19
ATOM     19  N   UNL     1      47.993   6.350  14.857  0.00  0.00    +0.000 N 
ATOM     20  C   UNL     1      49.217   6.638  15.399  0.00  0.00    +0.000 C 
ATOM     21  O   UNL     1      49.893   5.788  15.973  0.00  0.00    +0.000 OA
ATOM     22  H   UNL     1      47.362   7.104  14.600  0.00  0.00    +0.000 HD
BRANCH  20  23
ATOM     23  C   UNL     1      49.719   8.002  15.199  0.00  0.00    +0.000 A 
ATOM     24  C   UNL     1      50.192   8.723  16.288  0.00  0.00    +0.000 A 
ATOM     25  S   UNL     1      50.772  10.274  15.885  0.00  0.00    +0.000 S 
ATOM     26  C   UNL     1      50.366  10.058  14.247  0.00  0.00    +0.000 A 
ATOM     27  N   UNL     1      50.582  11.047  13.339  0.00  0.00    +0.000 NA
ATOM     28  C   UNL     1      50.202  10.760  12.139  0.00  0.00    +0.000 A 
ATOM     29  N   UNL     1      49.632   9.571  11.763  0.00  0.00    +0.000 N 
ATOM     30  C   UNL     1      49.426   8.533  12.639  0.00  0.00    +0.000 A 
ATOM     31  O   UNL     1      48.961   7.462  12.263  0.00  0.00    +0.000 OA
ATOM     32  C   UNL     1      49.819   8.810  14.007  0.00  0.00    +0.000 A 
ATOM     33  H   UNL     1      49.368   9.403  10.804  0.00  0.00    +0.000 HD
ENDBRANCH  20  23
ENDBRANCH  18  19
ENDBRANCH   4  18
TORSDOF 7
ENDMDL
MODEL 8
REMARK VINA RESULT:    -6.899      3.282      8.183
REMARK INTER + INTRA:         -11.009
REMARK INTER:                  -9.500
REMARK INTRA:                  -1.509
REMARK UNBOUND:                -1.287
REMARK  Name = 
REMARK  8 active torsions:
REMARK  status: ('A' for Active; 'I' for Inactive)
REMARK    1  A    between atoms: C_1  and  C_2
REMARK    2  A    between atoms: C_2  and  N_3
REMARK    3  A    between atoms: C_2  and  C_25
REMARK    4  A    between atoms: N_3  and  C_4
REMARK    5  A    between atoms: C_4  and  C_5
REMARK    6  A    between atoms: C_8  and  C_9
REMARK    7  A    between atoms: C_9  and  N_10
REMARK    8  A    between atoms: C_11  and  C_13
REMARK                            x       y       z     vdW  Elec       q    Type
REMARK                         _______ _______ _______ _____ _____    ______ ____
ROOT
ATOM      1  C   UNL     1      49.191   7.722  16.053  0.00  0.00    +0.000 A 
ATOM      2  C   UNL     1      48.919   6.594  15.278  0.00  0.00    +0.000 A 
ATOM      3  C   UNL     1      48.592   6.740  13.931  0.00  0.00    +0.000 A 
ATOM      4  C   UNL     1      48.559   8.019  13.378  0.00  0.00    +0.000 A 
ATOM      5  N   UNL     1      48.788   9.133  14.116  0.00  0.00    +0.000 NA
ATOM      6  C   UNL     1      49.097   8.960  15.424  0.00  0.00    +0.000 A 
ENDROOT
BRANCH   1   7
ATOM      7  C   UNL     1      49.618   7.613  17.492  0.00  0.00    +0.000 C 
BRANCH   7   8
ATOM      8  N   UNL     1      48.495   7.251  18.350  0.00  0.00    +0.000 NA
ATOM      9  H   UNL     1      47.676   7.085  17.762  0.00  0.00    +0.000 HD
BRANCH   8  11
ATOM     10  C   UNL     1      47.846   6.007  20.428  0.00  0.00    +0.000 C 
ATOM     11  C   UNL     1      48.725   6.051  19.170  0.00  0.00    +0.000 C 
BRANCH  11  12
ATOM     12  C   UNL     1      48.473   4.822  18.318  0.00  0.00    +0.000 A 
ATOM     13  C   UNL     1      49.488   3.898  18.037  0.00  0.00    +0.000 A 
ATOM     14  C   UNL     1      49.210   2.766  17.277  0.00  0.00    +0.000 A 
ATOM     15  C   UNL     1      47.917   2.591  16.816  0.00  0.00    +0.000 A 
ATOM     16  N   UNL     1      46.910   3.458  17.057  0.00  0.00    +0.000 NA
ATOM     17  C   UNL     1      47.211   4.550  17.800  0.00  0.00    +0.000 A 
ENDBRANCH  11  12
ENDBRANCH   8  11
ENDBRANCH   7   8
ENDBRANCH   1   7
BRANCH   4  18
ATOM     18  C   UNL     1      48.220   8.208  11.917  0.00  0.00    +0.000 C 
BRANCH  18  19
ATOM     19  N   UNL     1      47.538   7.051  11.384  0.00  0.00    +0.000 N 
ATOM     20  C   UNL     1      46.172   6.976  11.327  0.00  0.00    +0.000 C 
ATOM     21  O   UNL     1      45.453   7.914  11.660  0.00  0.00    +0.000 OA
ATOM     22  H   UNL     1      48.095   6.202  11.329  0.00  0.00    +0.000 HD
BRANCH  20  23
ATOM     23  C   UNL     1      45.604   5.739  10.778  0.00  0.00    +0.000 A 
ATOM     24  C   UNL     1      45.781   5.446   9.432  0.00  0.00    +0.000 A 
ATOM     25  S   UNL     1      45.095   3.959   8.958  0.00  0.00    +0.000 S 
ATOM     26  C   UNL     1      44.492   3.677  10.525  0.00  0.00    +0.000 A 
ATOM     27  N   UNL     1      43.765   2.562  10.803  0.00  0.00    +0.000 NA
ATOM     28  C   UNL     1      43.348   2.489  12.022  0.00  0.00    +0.000 A 
ATOM     29  N   UNL     1      43.596   3.427  12.990  0.00  0.00    +0.000 N 
ATOM     30  C   UNL     1      44.353   4.551  12.763  0.00  0.00    +0.000 A 
ATOM     31  O   UNL     1      44.601   5.347  13.664  0.00  0.00    +0.000 OA
ATOM     32  C   UNL     1      44.832   4.691  11.402  0.00  0.00    +0.000 A 
ATOM     33  H   UNL     1      43.251   3.305  13.931  0.00  0.00    +0.000 HD
ENDBRANCH  20  23
ENDBRANCH  18  19
ENDBRANCH   4  18
TORSDOF 7
ENDMDL
MODEL 9
REMARK VINA RESULT:    -6.659      1.975      2.723
REMARK INTER + INTRA:         -10.671
REMARK INTER:                  -9.833
REMARK INTRA:                  -0.838
REMARK UNBOUND:                -1.287
REMARK  Name = 
REMARK  8 active torsions:
REMARK  status: ('A' for Active; 'I' for Inactive)
REMARK    1  A    between atoms: C_1  and  C_2
REMARK    2  A    between atoms: C_2  and  N_3
REMARK    3  A    between atoms: C_2  and  C_25
REMARK    4  A    between atoms: N_3  and  C_4
REMARK    5  A    between atoms: C_4  and  C_5
REMARK    6  A    between atoms: C_8  and  C_9
REMARK    7  A    between atoms: C_9  and  N_10
REMARK    8  A    between atoms: C_11  and  C_13
REMARK                            x       y       z     vdW  Elec       q    Type
REMARK                         _______ _______ _______ _____ _____    ______ ____
ROOT
ATOM      1  C   UNL     1      44.741   5.570  11.484  0.00  0.00    +0.000 A 
ATOM      2  C   UNL     1      45.003   6.927  11.290  0.00  0.00    +0.000 A 
ATOM      3  C   UNL     1      46.019   7.547  12.015  0.00  0.00    +0.000 A 
ATOM      4  C   UNL     1      46.768   6.790  12.915  0.00  0.00    +0.000 A 
ATOM      5  N   UNL     1      46.511   5.479  13.145  0.00  0.00    +0.000 NA
ATOM      6  C   UNL     1      45.514   4.904  12.431  0.00  0.00    +0.000 A 
ENDROOT
BRANCH   1   7
ATOM      7  C   UNL     1      43.703   4.838  10.675  0.00  0.00    +0.000 C 
BRANCH   7   8
ATOM      8  N   UNL     1      44.262   4.347   9.420  0.00  0.00    +0.000 NA
ATOM      9  H   UNL     1      44.900   5.053   9.049  0.00  0.00    +0.000 HD
BRANCH   8  11
ATOM     10  C   UNL     1      44.081   1.871   9.770  0.00  0.00    +0.000 C 
ATOM     11  C   UNL     1      44.999   3.080   9.544  0.00  0.00    +0.000 C 
BRANCH  11  12
ATOM     12  C   UNL     1      45.830   2.873   8.292  0.00  0.00    +0.000 A 
ATOM     13  C   UNL     1      46.417   1.637   7.991  0.00  0.00    +0.000 A 
ATOM     14  C   UNL     1      47.145   1.479   6.817  0.00  0.00    +0.000 A 
ATOM     15  C   UNL     1      47.268   2.568   5.973  0.00  0.00    +0.000 A 
ATOM     16  N   UNL     1      46.726   3.779   6.226  0.00  0.00    +0.000 NA
ATOM     17  C   UNL     1      46.022   3.902   7.376  0.00  0.00    +0.000 A 
ENDBRANCH  11  12
ENDBRANCH   8  11
ENDBRANCH   7   8
ENDBRANCH   1   7
BRANCH   4  18
ATOM     18  C   UNL     1      47.883   7.433  13.706  0.00  0.00    +0.000 C 
BRANCH  18  19
ATOM     19  N   UNL     1      48.459   6.503  14.651  0.00  0.00    +0.000 N 
ATOM     20  C   UNL     1      48.762   6.868  15.936  0.00  0.00    +0.000 C 
ATOM     21  O   UNL     1      48.496   7.983  16.376  0.00  0.00    +0.000 OA
ATOM     22  H   UNL     1      48.889   5.677  14.244  0.00  0.00    +0.000 HD
BRANCH  20  23
ATOM     23  C   UNL     1      49.357   5.834  16.789  0.00  0.00    +0.000 A 
ATOM     24  C   UNL     1      48.530   4.978  17.504  0.00  0.00    +0.000 A 
ATOM     25  S   UNL     1      49.373   3.811  18.417  0.00  0.00    +0.000 S 
ATOM     26  C   UNL     1      50.877   4.441  17.930  0.00  0.00    +0.000 A 
ATOM     27  N   UNL     1      52.039   3.903  18.387  0.00  0.00    +0.000 NA
ATOM     28  C   UNL     1      53.104   4.494  17.960  0.00  0.00    +0.000 A 
ATOM     29  N   UNL     1      53.113   5.571  17.112  0.00  0.00    +0.000 N 
ATOM     30  C   UNL     1      51.965   6.126  16.599  0.00  0.00    +0.000 A 
ATOM     31  O   UNL     1      52.007   7.057  15.802  0.00  0.00    +0.000 OA
ATOM     32  C   UNL     1      50.737   5.509  17.062  0.00  0.00    +0.000 A 
ATOM     33  H   UNL     1      53.982   5.982  16.804  0.00  0.00    +0.000 HD
ENDBRANCH  20  23
ENDBRANCH  18  19
ENDBRANCH   4  18
TORSDOF 7
ENDMDL
