MODEL 1
REMARK VINA RESULT:    -8.596      0.000      0.000
REMARK INTER + INTRA:         -10.582
REMARK INTER:                 -10.606
REMARK INTRA:                   0.024
REMARK UNBOUND:                 0.024
REMARK  Name = 
REMARK  6 active torsions:
REMARK  status: ('A' for Active; 'I' for Inactive)
REMARK    1  A    between atoms: C_1  and  C_2
REMARK    2  A    between atoms: C_2  and  C_3
REMARK    3  A    between atoms: C_2  and  O_4
REMARK    4  A    between atoms: C_2  and  C_14
REMARK    5  A    between atoms: O_4  and  C_5
REMARK    6  A    between atoms: C_8  and  C_9
REMARK                            x       y       z     vdW  Elec       q    Type
REMARK                         _______ _______ _______ _____ _____    ______ ____
ROOT
ATOM      1  O   UNL     1      43.544   4.596   9.815  0.00  0.00    +0.000 OA
ENDROOT
BRANCH   1   2
ATOM      2  C   UNL     1      44.457   3.796   9.168  0.00  0.00    +0.000 A 
ATOM      3  C   UNL     1      45.373   4.416   8.335  0.00  0.00    +0.000 A 
ATOM      4  C   UNL     1      46.319   3.619   7.681  0.00  0.00    +0.000 A 
ATOM      5  C   UNL     1      46.307   2.232   7.862  0.00  0.00    +0.000 A 
ATOM      6  C   UNL     1      45.327   1.713   8.692  0.00  0.00    +0.000 A 
ATOM      7  N   UNL     1      44.408   2.464   9.343  0.00  0.00    +0.000 NA
BRANCH   5   8
ATOM      8  C   UNL     1      47.322   1.389   7.189  0.00  0.00    +0.000 C 
ATOM      9  N   UNL     1      48.357   1.991   6.529  0.00  0.00    +0.000 N 
ATOM     10  O   UNL     1      47.240   0.167   7.213  0.00  0.00    +0.000 OA
ATOM     11  H   UNL     1      48.511   2.982   6.429  0.00  0.00    +0.000 HD
ATOM     12  H   UNL     1      49.020   1.375   6.071  0.00  0.00    +0.000 HD
ENDBRANCH   5   8
ENDBRANCH   1   2
BRANCH   1  14
ATOM     13  C   UNL     1      42.364   5.433  11.858  0.00  0.00    +0.000 C 
ATOM     14  C   UNL     1      43.477   4.544  11.264  0.00  0.00    +0.000 C 
ATOM     15  C   UNL     1      43.331   3.071  11.710  0.00  0.00    +0.000 C 
BRANCH  14  16
ATOM     16  C   UNL     1      44.815   5.135  11.781  0.00  0.00    +0.000 A 
ATOM     17  C   UNL     1      45.607   4.451  12.725  0.00  0.00    +0.000 A 
ATOM     18  C   UNL     1      46.818   4.980  13.181  0.00  0.00    +0.000 A 
ATOM     19  C   UNL     1      47.248   6.217  12.718  0.00  0.00    +0.000 A 
ATOM     20 CL   UNL     1      48.751   6.855  13.258  0.00  0.00    +0.000 Cl
ATOM     21  C   UNL     1      46.466   6.940  11.822  0.00  0.00    +0.000 A 
ATOM     22  C   UNL     1      45.255   6.406  11.364  0.00  0.00    +0.000 A 
ENDBRANCH  14  16
ENDBRANCH   1  14
TORSDOF 4
ENDMDL
MODEL 2
REMARK VINA RESULT:    -6.930      3.992      6.665
REMARK INTER + INTRA:          -8.526
REMARK INTER:                  -8.201
REMARK INTRA:                  -0.325
REMARK UNBOUND:                 0.024
REMARK  Name = 
REMARK  6 active torsions:
REMARK  status: ('A' for Active; 'I' for Inactive)
REMARK    1  A    between atoms: C_1  and  C_2
REMARK    2  A    between atoms: C_2  and  C_3
REMARK    3  A    between atoms: C_2  and  O_4
REMARK    4  A    between atoms: C_2  and  C_14
REMARK    5  A    between atoms: O_4  and  C_5
REMARK    6  A    between atoms: C_8  and  C_9
REMARK                            x       y       z     vdW  Elec       q    Type
REMARK                         _______ _______ _______ _____ _____    ______ ____
ROOT
ATOM      1  O   UNL     1      45.040   6.305  10.659  0.00  0.00    +0.000 OA
ENDROOT
BRANCH   1   2
ATOM      2  C   UNL     1      45.821   6.968  11.577  0.00  0.00    +0.000 A 
ATOM      3  C   UNL     1      45.213   7.948  12.343  0.00  0.00    +0.000 A 
ATOM      4  C   UNL     1      45.989   8.623  13.293  0.00  0.00    +0.000 A 
ATOM      5  C   UNL     1      47.346   8.313  13.432  0.00  0.00    +0.000 A 
ATOM      6  C   UNL     1      47.859   7.339  12.592  0.00  0.00    +0.000 A 
ATOM      7  N   UNL     1      47.127   6.666  11.673  0.00  0.00    +0.000 NA
BRANCH   5   8
ATOM      8  C   UNL     1      48.163   9.009  14.452  0.00  0.00    +0.000 C 
ATOM      9  N   UNL     1      47.634   9.233  15.692  0.00  0.00    +0.000 N 
ATOM     10  O   UNL     1      49.300   9.388  14.195  0.00  0.00    +0.000 OA
ATOM     11  H   UNL     1      46.708   8.983  16.004  0.00  0.00    +0.000 HD
ATOM     12  H   UNL     1      48.224   9.725  16.354  0.00  0.00    +0.000 HD
ENDBRANCH   5   8
ENDBRANCH   1   2
BRANCH   1  14
ATOM     13  C   UNL     1      45.265   4.375  12.236  0.00  0.00    +0.000 C 
ATOM     14  C   UNL     1      44.640   4.939  10.943  0.00  0.00    +0.000 C 
ATOM     15  C   UNL     1      43.096   4.860  10.971  0.00  0.00    +0.000 C 
BRANCH  14  16
ATOM     16  C   UNL     1      45.205   4.073   9.786  0.00  0.00    +0.000 A 
ATOM     17  C   UNL     1      45.833   4.657   8.667  0.00  0.00    +0.000 A 
ATOM     18  C   UNL     1      46.350   3.873   7.631  0.00  0.00    +0.000 A 
ATOM     19  C   UNL     1      46.229   2.491   7.684  0.00  0.00    +0.000 A 
ATOM     20 CL   UNL     1      46.890   1.527   6.423  0.00  0.00    +0.000 Cl
ATOM     21  C   UNL     1      45.572   1.887   8.752  0.00  0.00    +0.000 A 
ATOM     22  C   UNL     1      45.057   2.673   9.790  0.00  0.00    +0.000 A 
ENDBRANCH  14  16
ENDBRANCH   1  14
TORSDOF 4
ENDMDL
MODEL 3
REMARK VINA RESULT:    -6.776      3.745      6.247
REMARK INTER + INTRA:          -8.336
REMARK INTER:                  -8.350
REMARK INTRA:                   0.014
REMARK UNBOUND:                 0.024
REMARK  Name = 
REMARK  6 active torsions:
REMARK  status: ('A' for Active; 'I' for Inactive)
REMARK    1  A    between atoms: C_1  and  C_2
REMARK    2  A    between atoms: C_2  and  C_3
REMARK    3  A    between atoms: C_2  and  O_4
REMARK    4  A    between atoms: C_2  and  C_14
REMARK    5  A    between atoms: O_4  and  C_5
REMARK    6  A    between atoms: C_8  and  C_9
REMARK                            x       y       z     vdW  Elec       q    Type
REMARK                         _______ _______ _______ _____ _____    ______ ____
ROOT
ATOM      1  O   UNL     1      45.289   4.548  12.118  0.00  0.00    +0.000 OA
ENDROOT
BRANCH   1   2
ATOM      2  C   UNL     1      45.695   5.860  12.200  0.00  0.00    +0.000 A 
ATOM      3  C   UNL     1      46.926   6.183  11.655  0.00  0.00    +0.000 A 
ATOM      4  C   UNL     1      47.349   7.516  11.715  0.00  0.00    +0.000 A 
ATOM      5  C   UNL     1      46.541   8.476  12.335  0.00  0.00    +0.000 A 
ATOM      6  C   UNL     1      45.344   8.038  12.875  0.00  0.00    +0.000 A 
ATOM      7  N   UNL     1      44.909   6.757  12.820  0.00  0.00    +0.000 NA
BRANCH   5   8
ATOM      8  C   UNL     1      46.975   9.891  12.380  0.00  0.00    +0.000 C 
ATOM      9  N   UNL     1      46.049  10.880  12.199  0.00  0.00    +0.000 N 
ATOM     10  O   UNL     1      48.150  10.181  12.572  0.00  0.00    +0.000 OA
ATOM     11  H   UNL     1      45.065  10.755  12.017  0.00  0.00    +0.000 HD
ATOM     12  H   UNL     1      46.394  11.833  12.225  0.00  0.00    +0.000 HD
ENDBRANCH   5   8
ENDBRANCH   1   2
BRANCH   1  14
ATOM     13  C   UNL     1      43.344   3.037  11.674  0.00  0.00    +0.000 C 
ATOM     14  C   UNL     1      44.227   4.205  11.190  0.00  0.00    +0.000 C 
ATOM     15  C   UNL     1      43.389   5.471  10.892  0.00  0.00    +0.000 C 
BRANCH  14  16
ATOM     16  C   UNL     1      44.926   3.704   9.899  0.00  0.00    +0.000 A 
ATOM     17  C   UNL     1      45.124   2.330   9.655  0.00  0.00    +0.000 A 
ATOM     18  C   UNL     1      45.745   1.879   8.485  0.00  0.00    +0.000 A 
ATOM     19  C   UNL     1      46.198   2.798   7.547  0.00  0.00    +0.000 A 
ATOM     20 CL   UNL     1      46.936   2.242   6.096  0.00  0.00    +0.000 Cl
ATOM     21  C   UNL     1      46.060   4.162   7.780  0.00  0.00    +0.000 A 
ATOM     22  C   UNL     1      45.435   4.611   8.951  0.00  0.00    +0.000 A 
ENDBRANCH  14  16
ENDBRANCH   1  14
TORSDOF 4
ENDMDL
MODEL 4
REMARK VINA RESULT:    -6.372      3.942      6.253
REMARK INTER + INTRA:          -7.838
REMARK INTER:                  -8.258
REMARK INTRA:                   0.420
REMARK UNBOUND:                 0.024
REMARK  Name = 
REMARK  6 active torsions:
REMARK  status: ('A' for Active; 'I' for Inactive)
REMARK    1  A    between atoms: C_1  and  C_2
REMARK    2  A    between atoms: C_2  and  C_3
REMARK    3  A    between atoms: C_2  and  O_4
REMARK    4  A    between atoms: C_2  and  C_14
REMARK    5  A    between atoms: O_4  and  C_5
REMARK    6  A    between atoms: C_8  and  C_9
REMARK                            x       y       z     vdW  Elec       q    Type
REMARK                         _______ _______ _______ _____ _____    ______ ____
ROOT
ATOM      1  O   UNL     1      45.418   3.369  12.510  0.00  0.00    +0.000 OA
ENDROOT
BRANCH   1   2
ATOM      2  C   UNL     1      46.245   4.203  13.227  0.00  0.00    +0.000 A 
ATOM      3  C   UNL     1      46.893   5.211  12.533  0.00  0.00    +0.000 A 
ATOM      4  C   UNL     1      47.726   6.078  13.249  0.00  0.00    +0.000 A 
ATOM      5  C   UNL     1      47.902   5.898  14.626  0.00  0.00    +0.000 A 
ATOM      6  C   UNL     1      47.232   4.838  15.213  0.00  0.00    +0.000 A 
ATOM      7  N   UNL     1      46.413   3.993  14.544  0.00  0.00    +0.000 NA
BRANCH   5   8
ATOM      8  C   UNL     1      48.765   6.828  15.389  0.00  0.00    +0.000 C 
ATOM      9  N   UNL     1      48.277   8.056  15.740  0.00  0.00    +0.000 N 
ATOM     10  O   UNL     1      49.906   6.511  15.703  0.00  0.00    +0.000 OA
ATOM     11  H   UNL     1      47.365   8.425  15.518  0.00  0.00    +0.000 HD
ATOM     12  H   UNL     1      48.907   8.665  16.250  0.00  0.00    +0.000 HD
ENDBRANCH   5   8
ENDBRANCH   1   2
BRANCH   1  14
ATOM     13  C   UNL     1      43.076   3.273  11.632  0.00  0.00    +0.000 C 
ATOM     14  C   UNL     1      44.457   3.960  11.596  0.00  0.00    +0.000 C 
ATOM     15  C   UNL     1      44.350   5.475  11.887  0.00  0.00    +0.000 C 
BRANCH  14  16
ATOM     16  C   UNL     1      45.014   3.722  10.168  0.00  0.00    +0.000 A 
ATOM     17  C   UNL     1      45.229   2.422   9.668  0.00  0.00    +0.000 A 
ATOM     18  C   UNL     1      45.721   2.210   8.376  0.00  0.00    +0.000 A 
ATOM     19  C   UNL     1      46.028   3.297   7.568  0.00  0.00    +0.000 A 
ATOM     20 CL   UNL     1      46.606   3.035   5.969  0.00  0.00    +0.000 Cl
ATOM     21  C   UNL     1      45.872   4.593   8.049  0.00  0.00    +0.000 A 
ATOM     22  C   UNL     1      45.376   4.803   9.342  0.00  0.00    +0.000 A 
ENDBRANCH  14  16
ENDBRANCH   1  14
TORSDOF 4
ENDMDL
MODEL 5
REMARK VINA RESULT:    -5.949      4.009      6.162
REMARK INTER + INTRA:          -7.316
REMARK INTER:                  -6.890
REMARK INTRA:                  -0.425
REMARK UNBOUND:                 0.024
REMARK  Name = 
REMARK  6 active torsions:
REMARK  status: ('A' for Active; 'I' for Inactive)
REMARK    1  A    between atoms: C_1  and  C_2
REMARK    2  A    between atoms: C_2  and  C_3
REMARK    3  A    between atoms: C_2  and  O_4
REMARK    4  A    between atoms: C_2  and  C_14
REMARK    5  A    between atoms: O_4  and  C_5
REMARK    6  A    between atoms: C_8  and  C_9
REMARK                            x       y       z     vdW  Elec       q    Type
REMARK                         _______ _______ _______ _____ _____    ______ ____
ROOT
ATOM      1  O   UNL     1      48.390   6.018  13.123  0.00  0.00    +0.000 OA
ENDROOT
BRANCH   1   2
ATOM      2  C   UNL     1      47.076   5.788  12.787  0.00  0.00    +0.000 A 
ATOM      3  C   UNL     1      46.633   6.277  11.569  0.00  0.00    +0.000 A 
ATOM      4  C   UNL     1      45.302   6.039  11.204  0.00  0.00    +0.000 A 
ATOM      5  C   UNL     1      44.455   5.343  12.073  0.00  0.00    +0.000 A 
ATOM      6  C   UNL     1      44.993   4.927  13.279  0.00  0.00    +0.000 A 
ATOM      7  N   UNL     1      46.278   5.136  13.650  0.00  0.00    +0.000 NA
BRANCH   5   8
ATOM      8  C   UNL     1      43.054   5.071  11.679  0.00  0.00    +0.000 C 
ATOM      9  N   UNL     1      42.134   6.081  11.744  0.00  0.00    +0.000 N 
ATOM     10  O   UNL     1      42.712   3.956  11.302  0.00  0.00    +0.000 OA
ATOM     11  H   UNL     1      42.300   7.025  12.055  0.00  0.00    +0.000 HD
ATOM     12  H   UNL     1      41.185   5.845  11.477  0.00  0.00    +0.000 HD
ENDBRANCH   5   8
ENDBRANCH   1   2
BRANCH   1  14
ATOM     13  C   UNL     1      47.616   8.298  13.806  0.00  0.00    +0.000 C 
ATOM     14  C   UNL     1      48.717   7.219  13.869  0.00  0.00    +0.000 C 
ATOM     15  C   UNL     1      49.055   6.831  15.327  0.00  0.00    +0.000 C 
BRANCH  14  16
ATOM     16  C   UNL     1      49.958   7.837  13.173  0.00  0.00    +0.000 A 
ATOM     17  C   UNL     1      50.964   8.494  13.908  0.00  0.00    +0.000 A 
ATOM     18  C   UNL     1      52.088   9.041  13.280  0.00  0.00    +0.000 A 
ATOM     19  C   UNL     1      52.213   8.959  11.899  0.00  0.00    +0.000 A 
ATOM     20 CL   UNL     1      53.609   9.607  11.129  0.00  0.00    +0.000 Cl
ATOM     21  C   UNL     1      51.214   8.359  11.140  0.00  0.00    +0.000 A 
ATOM     22  C   UNL     1      50.091   7.809  11.772  0.00  0.00    +0.000 A 
ENDBRANCH  14  16
ENDBRANCH   1  14
TORSDOF 4
ENDMDL
MODEL 6
REMARK VINA RESULT:    -5.943      3.194      5.201
REMARK INTER + INTRA:          -7.308
REMARK INTER:                  -6.879
REMARK INTRA:                  -0.429
REMARK UNBOUND:                 0.024
REMARK  Name = 
REMARK  6 active torsions:
REMARK  status: ('A' for Active; 'I' for Inactive)
REMARK    1  A    between atoms: C_1  and  C_2
REMARK    2  A    between atoms: C_2  and  C_3
REMARK    3  A    between atoms: C_2  and  O_4
REMARK    4  A    between atoms: C_2  and  C_14
REMARK    5  A    between atoms: O_4  and  C_5
REMARK    6  A    between atoms: C_8  and  C_9
REMARK                            x       y       z     vdW  Elec       q    Type
REMARK                         _______ _______ _______ _____ _____    ______ ____
ROOT
ATOM      1  O   UNL     1      45.889   7.809  12.864  0.00  0.00    +0.000 OA
ENDROOT
BRANCH   1   2
ATOM      2  C   UNL     1      45.400   6.592  12.448  0.00  0.00    +0.000 A 
ATOM      3  C   UNL     1      44.981   6.489  11.132  0.00  0.00    +0.000 A 
ATOM      4  C   UNL     1      44.495   5.254  10.686  0.00  0.00    +0.000 A 
ATOM      5  C   UNL     1      44.422   4.173  11.571  0.00  0.00    +0.000 A 
ATOM      6  C   UNL     1      44.837   4.396  12.873  0.00  0.00    +0.000 A 
ATOM      7  N   UNL     1      45.320   5.577  13.325  0.00  0.00    +0.000 NA
BRANCH   5   8
ATOM      8  C   UNL     1      43.929   2.860  11.096  0.00  0.00    +0.000 C 
ATOM      9  N   UNL     1      44.529   2.273  10.016  0.00  0.00    +0.000 N 
ATOM     10  O   UNL     1      42.993   2.301  11.654  0.00  0.00    +0.000 OA
ATOM     11  H   UNL     1      45.289   2.650   9.473  0.00  0.00    +0.000 HD
ATOM     12  H   UNL     1      44.150   1.381   9.718  0.00  0.00    +0.000 HD
ENDBRANCH   5   8
ENDBRANCH   1   2
BRANCH   1  14
ATOM     13  C   UNL     1      48.030   7.040  11.822  0.00  0.00    +0.000 C 
ATOM     14  C   UNL     1      47.304   8.084  12.696  0.00  0.00    +0.000 C 
ATOM     15  C   UNL     1      47.476   9.516  12.139  0.00  0.00    +0.000 C 
BRANCH  14  16
ATOM     16  C   UNL     1      47.938   7.973  14.107  0.00  0.00    +0.000 A 
ATOM     17  C   UNL     1      48.005   9.082  14.974  0.00  0.00    +0.000 A 
ATOM     18  C   UNL     1      48.567   8.977  16.250  0.00  0.00    +0.000 A 
ATOM     19  C   UNL     1      49.094   7.764  16.674  0.00  0.00    +0.000 A 
ATOM     20 CL   UNL     1      49.761   7.627  18.254  0.00  0.00    +0.000 Cl
ATOM     21  C   UNL     1      49.087   6.662  15.823  0.00  0.00    +0.000 A 
ATOM     22  C   UNL     1      48.520   6.769  14.547  0.00  0.00    +0.000 A 
ENDBRANCH  14  16
ENDBRANCH   1  14
TORSDOF 4
ENDMDL
MODEL 7
REMARK VINA RESULT:    -5.879      4.808      6.884
REMARK INTER + INTRA:          -7.230
REMARK INTER:                  -7.229
REMARK INTRA:                  -0.001
REMARK UNBOUND:                 0.024
REMARK  Name = 
REMARK  6 active torsions:
REMARK  status: ('A' for Active; 'I' for Inactive)
REMARK    1  A    between atoms: C_1  and  C_2
REMARK    2  A    between atoms: C_2  and  C_3
REMARK    3  A    between atoms: C_2  and  O_4
REMARK    4  A    between atoms: C_2  and  C_14
REMARK    5  A    between atoms: O_4  and  C_5
REMARK    6  A    between atoms: C_8  and  C_9
REMARK                            x       y       z     vdW  Elec       q    Type
REMARK                         _______ _______ _______ _____ _____    ______ ____
ROOT
ATOM      1  O   UNL     1      48.442   5.237  15.452  0.00  0.00    +0.000 OA
ENDROOT
BRANCH   1   2
ATOM      2  C   UNL     1      47.493   4.888  14.520  0.00  0.00    +0.000 A 
ATOM      3  C   UNL     1      46.708   5.902  13.997  0.00  0.00    +0.000 A 
ATOM      4  C   UNL     1      45.747   5.566  13.035  0.00  0.00    +0.000 A 
ATOM      5  C   UNL     1      45.587   4.232  12.645  0.00  0.00    +0.000 A 
ATOM      6  C   UNL     1      46.402   3.295  13.256  0.00  0.00    +0.000 A 
ATOM      7  N   UNL     1      47.345   3.596  14.180  0.00  0.00    +0.000 NA
BRANCH   5   8
ATOM      8  C   UNL     1      44.586   3.879  11.612  0.00  0.00    +0.000 C 
ATOM      9  N   UNL     1      44.359   2.561  11.327  0.00  0.00    +0.000 N 
ATOM     10  O   UNL     1      43.969   4.750  11.012  0.00  0.00    +0.000 OA
ATOM     11  H   UNL     1      44.821   1.768  11.744  0.00  0.00    +0.000 HD
ATOM     12  H   UNL     1      43.675   2.366  10.604  0.00  0.00    +0.000 HD
ENDBRANCH   5   8
ENDBRANCH   1   2
BRANCH   1  14
ATOM     13  C   UNL     1      48.286   5.918  17.855  0.00  0.00    +0.000 C 
ATOM     14  C   UNL     1      48.278   4.776  16.818  0.00  0.00    +0.000 C 
ATOM     15  C   UNL     1      46.989   3.927  16.913  0.00  0.00    +0.000 C 
BRANCH  14  16
ATOM     16  C   UNL     1      49.522   3.906  17.134  0.00  0.00    +0.000 A 
ATOM     17  C   UNL     1      49.499   2.504  16.985  0.00  0.00    +0.000 A 
ATOM     18  C   UNL     1      50.626   1.723  17.260  0.00  0.00    +0.000 A 
ATOM     19  C   UNL     1      51.791   2.328  17.712  0.00  0.00    +0.000 A 
ATOM     20 CL   UNL     1      53.185   1.370  18.023  0.00  0.00    +0.000 Cl
ATOM     21  C   UNL     1      51.832   3.704  17.915  0.00  0.00    +0.000 A 
ATOM     22  C   UNL     1      50.703   4.485  17.636  0.00  0.00    +0.000 A 
ENDBRANCH  14  16
ENDBRANCH   1  14
TORSDOF 4
ENDMDL
