MODEL 1
REMARK VINA RESULT:    -8.791      0.000      0.000
REMARK INTER + INTRA:         -13.715
REMARK INTER:                 -12.902
REMARK INTRA:                  -0.813
REMARK UNBOUND:                -0.813
REMARK  Name = 
REMARK  9 active torsions:
REMARK  status: ('A' for Active; 'I' for Inactive)
REMARK    1  A    between atoms: C_1  and  C_2
REMARK    2  A    between atoms: C_2  and  N_3
REMARK    3  A    between atoms: C_2  and  C_21
REMARK    4  A    between atoms: N_3  and  C_4
REMARK    5  A    between atoms: C_4  and  C_5
REMARK    6  A    between atoms: C_8  and  C_9
REMARK    7  A    between atoms: C_9  and  S_10
REMARK    8  A    between atoms: S_10  and  C_11
REMARK    9  A    between atoms: C_11  and  C_12
REMARK                            x       y       z     vdW  Elec       q    Type
REMARK                         _______ _______ _______ _____ _____    ______ ____
ROOT
ATOM      1  C   UNL     1      48.297   6.013  14.716  0.00  0.00    +0.000 C 
ENDROOT
BRANCH   1   2
ATOM      2  C   UNL     1      47.144   5.588  13.831  0.00  0.00    +0.000 A 
ATOM      3  C   UNL     1      46.813   4.238  13.660  0.00  0.00    +0.000 A 
ATOM      4  C   UNL     1      45.723   3.867  12.863  0.00  0.00    +0.000 A 
ATOM      5  C   UNL     1      44.919   4.832  12.239  0.00  0.00    +0.000 A 
ATOM      6  C   UNL     1      45.253   6.182  12.408  0.00  0.00    +0.000 A 
ATOM      7  C   UNL     1      46.351   6.554  13.193  0.00  0.00    +0.000 A 
BRANCH   5   8
ATOM      8  C   UNL     1      43.746   4.437  11.369  0.00  0.00    +0.000 C 
BRANCH   8   9
ATOM      9  S   UNL     1      44.176   4.398   9.597  0.00  0.00    +0.000 S 
BRANCH   9  10
ATOM     10  C   UNL     1      44.476   2.613   9.395  0.00  0.00    +0.000 C 
BRANCH  10  11
ATOM     11  C   UNL     1      45.583   2.377   8.391  0.00  0.00    +0.000 A 
ATOM     12  C   UNL     1      46.006   3.408   7.544  0.00  0.00    +0.000 A 
ATOM     13  C   UNL     1      46.977   3.162   6.573  0.00  0.00    +0.000 A 
ATOM     14  N   UNL     1      47.543   1.909   6.418  0.00  0.00    +0.000 N 
ATOM     15  O   UNL     1      48.420   1.698   5.526  0.00  0.00    +0.000 OA
ATOM     16  C   UNL     1      47.128   0.893   7.260  0.00  0.00    +0.000 A 
ATOM     17  C   UNL     1      46.160   1.110   8.241  0.00  0.00    +0.000 A 
ENDBRANCH  10  11
ENDBRANCH   9  10
ENDBRANCH   8   9
ENDBRANCH   5   8
ENDBRANCH   1   2
BRANCH   1  18
ATOM     18  N   UNL     1      47.976   5.903  16.143  0.00  0.00    +0.000 NA
ATOM     19  H   UNL     1      48.565   6.561  16.650  0.00  0.00    +0.000 HD
BRANCH  18  21
ATOM     20  C   UNL     1      47.241   4.187  17.806  0.00  0.00    +0.000 C 
ATOM     21  C   UNL     1      48.228   4.556  16.686  0.00  0.00    +0.000 C 
BRANCH  21  22
ATOM     22  C   UNL     1      49.649   4.515  17.236  0.00  0.00    +0.000 A 
ATOM     23  C   UNL     1      50.303   5.571  17.851  0.00  0.00    +0.000 A 
ATOM     24  S   UNL     1      51.840   5.156  18.471  0.00  0.00    +0.000 S 
ATOM     25  C   UNL     1      51.672   3.538  17.971  0.00  0.00    +0.000 A 
ATOM     26  N   UNL     1      52.618   2.607  18.269  0.00  0.00    +0.000 NA
ATOM     27  C   UNL     1      52.329   1.412  17.857  0.00  0.00    +0.000 A 
ATOM     28  N   UNL     1      51.204   1.077  17.151  0.00  0.00    +0.000 N 
ATOM     29  C   UNL     1      50.260   2.001  16.762  0.00  0.00    +0.000 A 
ATOM     30  O   UNL     1      49.324   1.694  16.028  0.00  0.00    +0.000 OA
ATOM     31  C   UNL     1      50.493   3.336  17.277  0.00  0.00    +0.000 A 
ATOM     32  H   UNL     1      51.065   0.133  16.822  0.00  0.00    +0.000 HD
ENDBRANCH  21  22
ENDBRANCH  18  21
ENDBRANCH   1  18
TORSDOF 8
ENDMDL
MODEL 2
REMARK VINA RESULT:    -7.925      2.290      2.874
REMARK INTER + INTRA:         -12.444
REMARK INTER:                 -11.346
REMARK INTRA:                  -1.098
REMARK UNBOUND:                -0.813
REMARK  Name = 
REMARK  9 active torsions:
REMARK  status: ('A' for Active; 'I' for Inactive)
REMARK    1  A    between atoms: C_1  and  C_2
REMARK    2  A    between atoms: C_2  and  N_3
REMARK    3  A    between atoms: C_2  and  C_21
REMARK    4  A    between atoms: N_3  and  C_4
REMARK    5  A    between atoms: C_4  and  C_5
REMARK    6  A    between atoms: C_8  and  C_9
REMARK    7  A    between atoms: C_9  and  S_10
REMARK    8  A    between atoms: S_10  and  C_11
REMARK    9  A    between atoms: C_11  and  C_12
REMARK                            x       y       z     vdW  Elec       q    Type
REMARK                         _______ _______ _______ _____ _____    ______ ____
ROOT
ATOM      1  C   UNL     1      49.013   7.029  13.663  0.00  0.00    +0.000 C 
ENDROOT
BRANCH   1   2
ATOM      2  C   UNL     1      47.747   6.402  13.117  0.00  0.00    +0.000 A 
ATOM      3  C   UNL     1      47.157   6.859  11.932  0.00  0.00    +0.000 A 
ATOM      4  C   UNL     1      46.005   6.245  11.427  0.00  0.00    +0.000 A 
ATOM      5  C   UNL     1      45.428   5.141  12.073  0.00  0.00    +0.000 A 
ATOM      6  C   UNL     1      46.018   4.686  13.260  0.00  0.00    +0.000 A 
ATOM      7  C   UNL     1      47.161   5.309  13.774  0.00  0.00    +0.000 A 
BRANCH   5   8
ATOM      8  C   UNL     1      44.178   4.479  11.536  0.00  0.00    +0.000 C 
BRANCH   8   9
ATOM      9  S   UNL     1      44.177   4.369   9.715  0.00  0.00    +0.000 S 
BRANCH   9  10
ATOM     10  C   UNL     1      44.476   2.582   9.518  0.00  0.00    +0.000 C 
BRANCH  10  11
ATOM     11  C   UNL     1      45.518   2.340   8.448  0.00  0.00    +0.000 A 
ATOM     12  C   UNL     1      46.060   1.064   8.259  0.00  0.00    +0.000 A 
ATOM     13  C   UNL     1      47.070   0.865   7.317  0.00  0.00    +0.000 A 
ATOM     14  N   UNL     1      47.563   1.908   6.554  0.00  0.00    +0.000 N 
ATOM     15  O   UNL     1      48.487   1.715   5.707  0.00  0.00    +0.000 OA
ATOM     16  C   UNL     1      47.022   3.168   6.739  0.00  0.00    +0.000 A 
ATOM     17  C   UNL     1      46.009   3.397   7.672  0.00  0.00    +0.000 A 
ENDBRANCH  10  11
ENDBRANCH   9  10
ENDBRANCH   8   9
ENDBRANCH   5   8
ENDBRANCH   1   2
BRANCH   1  18
ATOM     18  N   UNL     1      49.290   6.618  15.043  0.00  0.00    +0.000 NA
ATOM     19  H   UNL     1      48.882   5.696  15.184  0.00  0.00    +0.000 HD
BRANCH  18  21
ATOM     20  C   UNL     1      48.867   9.007  15.645  0.00  0.00    +0.000 C 
ATOM     21  C   UNL     1      48.706   7.531  16.042  0.00  0.00    +0.000 C 
BRANCH  21  22
ATOM     22  C   UNL     1      49.400   7.292  17.378  0.00  0.00    +0.000 A 
ATOM     23  C   UNL     1      50.337   8.133  17.958  0.00  0.00    +0.000 A 
ATOM     24  S   UNL     1      50.823   7.642  19.521  0.00  0.00    +0.000 S 
ATOM     25  C   UNL     1      49.771   6.304  19.494  0.00  0.00    +0.000 A 
ATOM     26  N   UNL     1      49.633   5.495  20.577  0.00  0.00    +0.000 NA
ATOM     27  C   UNL     1      48.765   4.545  20.419  0.00  0.00    +0.000 A 
ATOM     28  N   UNL     1      48.054   4.316  19.270  0.00  0.00    +0.000 N 
ATOM     29  C   UNL     1      48.220   5.063  18.125  0.00  0.00    +0.000 A 
ATOM     30  O   UNL     1      47.659   4.762  17.075  0.00  0.00    +0.000 OA
ATOM     31  C   UNL     1      49.114   6.194  18.282  0.00  0.00    +0.000 A 
ATOM     32  H   UNL     1      47.427   3.529  19.202  0.00  0.00    +0.000 HD
ENDBRANCH  21  22
ENDBRANCH  18  21
ENDBRANCH   1  18
TORSDOF 8
ENDMDL
MODEL 3
REMARK VINA RESULT:    -7.773      1.722      2.216
REMARK INTER + INTRA:         -12.222
REMARK INTER:                 -11.088
REMARK INTRA:                  -1.133
REMARK UNBOUND:                -0.813
REMARK  Name = 
REMARK  9 active torsions:
REMARK  status: ('A' for Active; 'I' for Inactive)
REMARK    1  A    between atoms: C_1  and  C_2
REMARK    2  A    between atoms: C_2  and  N_3
REMARK    3  A    between atoms: C_2  and  C_21
REMARK    4  A    between atoms: N_3  and  C_4
REMARK    5  A    between atoms: C_4  and  C_5
REMARK    6  A    between atoms: C_8  and  C_9
REMARK    7  A    between atoms: C_9  and  S_10
REMARK    8  A    between atoms: S_10  and  C_11
REMARK    9  A    between atoms: C_11  and  C_12
REMARK                            x       y       z     vdW  Elec       q    Type
REMARK                         _______ _______ _______ _____ _____    ______ ____
ROOT
ATOM      1  C   UNL     1      48.970   7.341  13.324  0.00  0.00    +0.000 C 
ENDROOT
BRANCH   1   2
ATOM      2  C   UNL     1      47.738   6.587  12.870  0.00  0.00    +0.000 A 
ATOM      3  C   UNL     1      47.113   5.643  13.695  0.00  0.00    +0.000 A 
ATOM      4  C   UNL     1      45.957   4.980  13.269  0.00  0.00    +0.000 A 
ATOM      5  C   UNL     1      45.377   5.259  12.022  0.00  0.00    +0.000 A 
ATOM      6  C   UNL     1      46.005   6.200  11.196  0.00  0.00    +0.000 A 
ATOM      7  C   UNL     1      47.170   6.854  11.615  0.00  0.00    +0.000 A 
BRANCH   5   8
ATOM      8  C   UNL     1      44.132   4.538  11.553  0.00  0.00    +0.000 C 
BRANCH   8   9
ATOM      9  S   UNL     1      44.084   4.344   9.740  0.00  0.00    +0.000 S 
BRANCH   9  10
ATOM     10  C   UNL     1      44.490   2.572   9.613  0.00  0.00    +0.000 C 
BRANCH  10  11
ATOM     11  C   UNL     1      45.575   2.356   8.581  0.00  0.00    +0.000 A 
ATOM     12  C   UNL     1      46.095   3.436   7.859  0.00  0.00    +0.000 A 
ATOM     13  C   UNL     1      47.045   3.218   6.860  0.00  0.00    +0.000 A 
ATOM     14  N   UNL     1      47.493   1.946   6.554  0.00  0.00    +0.000 N 
ATOM     15  O   UNL     1      48.351   1.762   5.638  0.00  0.00    +0.000 OA
ATOM     16  C   UNL     1      46.982   0.880   7.272  0.00  0.00    +0.000 A 
ATOM     17  C   UNL     1      46.032   1.067   8.278  0.00  0.00    +0.000 A 
ENDBRANCH  10  11
ENDBRANCH   9  10
ENDBRANCH   8   9
ENDBRANCH   5   8
ENDBRANCH   1   2
BRANCH   1  18
ATOM     18  N   UNL     1      49.748   6.594  14.317  0.00  0.00    +0.000 NA
ATOM     19  H   UNL     1      49.233   5.746  14.548  0.00  0.00    +0.000 HD
BRANCH  18  21
ATOM     20  C   UNL     1      50.039   8.864  15.323  0.00  0.00    +0.000 C 
ATOM     21  C   UNL     1      49.962   7.348  15.565  0.00  0.00    +0.000 C 
BRANCH  21  22
ATOM     22  C   UNL     1      51.265   6.875  16.200  0.00  0.00    +0.000 A 
ATOM     23  C   UNL     1      52.470   7.559  16.164  0.00  0.00    +0.000 A 
ATOM     24  S   UNL     1      53.705   6.818  17.083  0.00  0.00    +0.000 S 
ATOM     25  C   UNL     1      52.662   5.573  17.593  0.00  0.00    +0.000 A 
ATOM     26  N   UNL     1      53.073   4.629  18.480  0.00  0.00    +0.000 NA
ATOM     27  C   UNL     1      52.154   3.773  18.803  0.00  0.00    +0.000 A 
ATOM     28  N   UNL     1      50.882   3.759  18.294  0.00  0.00    +0.000 N 
ATOM     29  C   UNL     1      50.448   4.648  17.337  0.00  0.00    +0.000 A 
ATOM     30  O   UNL     1      49.344   4.539  16.812  0.00  0.00    +0.000 OA
ATOM     31  C   UNL     1      51.412   5.682  17.011  0.00  0.00    +0.000 A 
ATOM     32  H   UNL     1      50.231   3.034  18.557  0.00  0.00    +0.000 HD
ENDBRANCH  21  22
ENDBRANCH  18  21
ENDBRANCH   1  18
TORSDOF 8
ENDMDL
MODEL 4
REMARK VINA RESULT:    -7.757      2.476      3.462
REMARK INTER + INTRA:         -12.198
REMARK INTER:                 -11.027
REMARK INTRA:                  -1.171
REMARK UNBOUND:                -0.813
REMARK  Name = 
REMARK  9 active torsions:
REMARK  status: ('A' for Active; 'I' for Inactive)
REMARK    1  A    between atoms: C_1  and  C_2
REMARK    2  A    between atoms: C_2  and  N_3
REMARK    3  A    between atoms: C_2  and  C_21
REMARK    4  A    between atoms: N_3  and  C_4
REMARK    5  A    between atoms: C_4  and  C_5
REMARK    6  A    between atoms: C_8  and  C_9
REMARK    7  A    between atoms: C_9  and  S_10
REMARK    8  A    between atoms: S_10  and  C_11
REMARK    9  A    between atoms: C_11  and  C_12
REMARK                            x       y       z     vdW  Elec       q    Type
REMARK                         _______ _______ _______ _____ _____    ______ ____
ROOT
ATOM      1  C   UNL     1      48.456   6.902  14.201  0.00  0.00    +0.000 C 
ENDROOT
BRANCH   1   2
ATOM      2  C   UNL     1      47.155   6.340  13.669  0.00  0.00    +0.000 A 
ATOM      3  C   UNL     1      46.277   7.123  12.909  0.00  0.00    +0.000 A 
ATOM      4  C   UNL     1      45.094   6.575  12.399  0.00  0.00    +0.000 A 
ATOM      5  C   UNL     1      44.768   5.227  12.610  0.00  0.00    +0.000 A 
ATOM      6  C   UNL     1      45.645   4.446  13.373  0.00  0.00    +0.000 A 
ATOM      7  C   UNL     1      46.822   4.995  13.896  0.00  0.00    +0.000 A 
BRANCH   5   8
ATOM      8  C   UNL     1      43.486   4.632  12.069  0.00  0.00    +0.000 C 
BRANCH   8   9
ATOM      9  S   UNL     1      43.792   3.242  10.927  0.00  0.00    +0.000 S 
BRANCH   9  10
ATOM     10  C   UNL     1      44.253   4.174   9.431  0.00  0.00    +0.000 C 
BRANCH  10  11
ATOM     11  C   UNL     1      45.250   3.387   8.610  0.00  0.00    +0.000 A 
ATOM     12  C   UNL     1      45.393   2.007   8.795  0.00  0.00    +0.000 A 
ATOM     13  C   UNL     1      46.364   1.302   8.084  0.00  0.00    +0.000 A 
ATOM     14  N   UNL     1      47.206   1.935   7.187  0.00  0.00    +0.000 N 
ATOM     15  O   UNL     1      48.089   1.282   6.553  0.00  0.00    +0.000 OA
ATOM     16  C   UNL     1      47.059   3.298   7.001  0.00  0.00    +0.000 A 
ATOM     17  C   UNL     1      46.095   4.030   7.696  0.00  0.00    +0.000 A 
ENDBRANCH  10  11
ENDBRANCH   9  10
ENDBRANCH   8   9
ENDBRANCH   5   8
ENDBRANCH   1   2
BRANCH   1  18
ATOM     18  N   UNL     1      48.300   7.522  15.520  0.00  0.00    +0.000 NA
ATOM     19  H   UNL     1      47.969   8.476  15.382  0.00  0.00    +0.000 HD
BRANCH  18  21
ATOM     20  C   UNL     1      50.795   7.521  15.363  0.00  0.00    +0.000 C 
ATOM     21  C   UNL     1      49.561   7.585  16.279  0.00  0.00    +0.000 C 
BRANCH  21  22
ATOM     22  C   UNL     1      49.599   6.413  17.253  0.00  0.00    +0.000 A 
ATOM     23  C   UNL     1      50.395   5.286  17.122  0.00  0.00    +0.000 A 
ATOM     24  S   UNL     1      50.295   4.220  18.455  0.00  0.00    +0.000 S 
ATOM     25  C   UNL     1      49.210   5.246  19.272  0.00  0.00    +0.000 A 
ATOM     26  N   UNL     1      48.783   4.959  20.530  0.00  0.00    +0.000 NA
ATOM     27  C   UNL     1      47.994   5.856  21.035  0.00  0.00    +0.000 A 
ATOM     28  N   UNL     1      47.572   6.985  20.385  0.00  0.00    +0.000 N 
ATOM     29  C   UNL     1      47.919   7.275  19.084  0.00  0.00    +0.000 A 
ATOM     30  O   UNL     1      47.432   8.231  18.486  0.00  0.00    +0.000 OA
ATOM     31  C   UNL     1      48.874   6.348  18.507  0.00  0.00    +0.000 A 
ATOM     32  H   UNL     1      46.920   7.618  20.824  0.00  0.00    +0.000 HD
ENDBRANCH  21  22
ENDBRANCH  18  21
ENDBRANCH   1  18
TORSDOF 8
ENDMDL
MODEL 5
REMARK VINA RESULT:    -7.326      2.485      8.914
REMARK INTER + INTRA:         -11.565
REMARK INTER:                 -10.082
REMARK INTRA:                  -1.483
REMARK UNBOUND:                -0.813
REMARK  Name = 
REMARK  9 active torsions:
REMARK  status: ('A' for Active; 'I' for Inactive)
REMARK    1  A    between atoms: C_1  and  C_2
REMARK    2  A    between atoms: C_2  and  N_3
REMARK    3  A    between atoms: C_2  and  C_21
REMARK    4  A    between atoms: N_3  and  C_4
REMARK    5  A    between atoms: C_4  and  C_5
REMARK    6  A    between atoms: C_8  and  C_9
REMARK    7  A    between atoms: C_9  and  S_10
REMARK    8  A    between atoms: S_10  and  C_11
REMARK    9  A    between atoms: C_11  and  C_12
REMARK                            x       y       z     vdW  Elec       q    Type
REMARK                         _______ _______ _______ _____ _____    ______ ____
ROOT
ATOM      1  C   UNL     1      47.391   8.161  12.500  0.00  0.00    +0.000 C 
ENDROOT
BRANCH   1   2
ATOM      2  C   UNL     1      47.907   7.927  13.904  0.00  0.00    +0.000 A 
ATOM      3  C   UNL     1      48.314   6.656  14.331  0.00  0.00    +0.000 A 
ATOM      4  C   UNL     1      48.819   6.466  15.622  0.00  0.00    +0.000 A 
ATOM      5  C   UNL     1      48.958   7.541  16.513  0.00  0.00    +0.000 A 
ATOM      6  C   UNL     1      48.547   8.811  16.086  0.00  0.00    +0.000 A 
ATOM      7  C   UNL     1      48.029   9.000  14.800  0.00  0.00    +0.000 A 
BRANCH   5   8
ATOM      8  C   UNL     1      49.494   7.341  17.913  0.00  0.00    +0.000 C 
BRANCH   8   9
ATOM      9  S   UNL     1      48.166   7.062  19.133  0.00  0.00    +0.000 S 
BRANCH   9  10
ATOM     10  C   UNL     1      48.747   5.498  19.863  0.00  0.00    +0.000 C 
BRANCH  10  11
ATOM     11  C   UNL     1      48.873   4.435  18.794  0.00  0.00    +0.000 A 
ATOM     12  C   UNL     1      50.108   3.830  18.535  0.00  0.00    +0.000 A 
ATOM     13  C   UNL     1      50.228   2.902  17.499  0.00  0.00    +0.000 A 
ATOM     14  N   UNL     1      49.148   2.558  16.707  0.00  0.00    +0.000 N 
ATOM     15  O   UNL     1      49.275   1.719  15.764  0.00  0.00    +0.000 OA
ATOM     16  C   UNL     1      47.928   3.153  16.968  0.00  0.00    +0.000 A 
ATOM     17  C   UNL     1      47.775   4.083  17.998  0.00  0.00    +0.000 A 
ENDBRANCH  10  11
ENDBRANCH   9  10
ENDBRANCH   8   9
ENDBRANCH   5   8
ENDBRANCH   1   2
BRANCH   1  18
ATOM     18  N   UNL     1      47.118   6.908  11.789  0.00  0.00    +0.000 NA
ATOM     19  H   UNL     1      47.812   6.808  11.050  0.00  0.00    +0.000 HD
BRANCH  18  21
ATOM     20  C   UNL     1      44.833   7.924  11.776  0.00  0.00    +0.000 C 
ATOM     21  C   UNL     1      45.783   6.881  11.164  0.00  0.00    +0.000 C 
BRANCH  21  22
ATOM     22  C   UNL     1      45.189   5.490  11.351  0.00  0.00    +0.000 A 
ATOM     23  C   UNL     1      44.573   5.029  12.505  0.00  0.00    +0.000 A 
ATOM     24  S   UNL     1      43.898   3.468  12.342  0.00  0.00    +0.000 S 
ATOM     25  C   UNL     1      44.374   3.365  10.711  0.00  0.00    +0.000 A 
ATOM     26  N   UNL     1      44.031   2.297   9.943  0.00  0.00    +0.000 NA
ATOM     27  C   UNL     1      44.430   2.383   8.713  0.00  0.00    +0.000 A 
ATOM     28  N   UNL     1      45.165   3.418   8.197  0.00  0.00    +0.000 N 
ATOM     29  C   UNL     1      45.600   4.481   8.958  0.00  0.00    +0.000 A 
ATOM     30  O   UNL     1      46.356   5.332   8.500  0.00  0.00    +0.000 OA
ATOM     31  C   UNL     1      45.101   4.475  10.320  0.00  0.00    +0.000 A 
ATOM     32  H   UNL     1      45.481   3.397   7.239  0.00  0.00    +0.000 HD
ENDBRANCH  21  22
ENDBRANCH  18  21
ENDBRANCH   1  18
TORSDOF 8
ENDMDL
MODEL 6
REMARK VINA RESULT:    -7.203      3.318      8.884
REMARK INTER + INTRA:         -11.385
REMARK INTER:                  -9.613
REMARK INTRA:                  -1.772
REMARK UNBOUND:                -0.813
REMARK  Name = 
REMARK  9 active torsions:
REMARK  status: ('A' for Active; 'I' for Inactive)
REMARK    1  A    between atoms: C_1  and  C_2
REMARK    2  A    between atoms: C_2  and  N_3
REMARK    3  A    between atoms: C_2  and  C_21
REMARK    4  A    between atoms: N_3  and  C_4
REMARK    5  A    between atoms: C_4  and  C_5
REMARK    6  A    between atoms: C_8  and  C_9
REMARK    7  A    between atoms: C_9  and  S_10
REMARK    8  A    between atoms: S_10  and  C_11
REMARK    9  A    between atoms: C_11  and  C_12
REMARK                            x       y       z     vdW  Elec       q    Type
REMARK                         _______ _______ _______ _____ _____    ______ ____
ROOT
ATOM      1  C   UNL     1      48.205   7.887  14.575  0.00  0.00    +0.000 C 
ENDROOT
BRANCH   1   2
ATOM      2  C   UNL     1      48.962   7.868  15.887  0.00  0.00    +0.000 A 
ATOM      3  C   UNL     1      48.414   8.411  17.055  0.00  0.00    +0.000 A 
ATOM      4  C   UNL     1      49.116   8.354  18.265  0.00  0.00    +0.000 A 
ATOM      5  C   UNL     1      50.370   7.731  18.348  0.00  0.00    +0.000 A 
ATOM      6  C   UNL     1      50.919   7.191  17.177  0.00  0.00    +0.000 A 
ATOM      7  C   UNL     1      50.225   7.260  15.964  0.00  0.00    +0.000 A 
BRANCH   5   8
ATOM      8  C   UNL     1      51.137   7.675  19.650  0.00  0.00    +0.000 C 
BRANCH   8   9
ATOM      9  S   UNL     1      51.444   5.964  20.203  0.00  0.00    +0.000 S 
BRANCH   9  10
ATOM     10  C   UNL     1      49.740   5.319  20.158  0.00  0.00    +0.000 C 
BRANCH  10  11
ATOM     11  C   UNL     1      49.558   4.404  18.968  0.00  0.00    +0.000 A 
ATOM     12  C   UNL     1      48.284   4.167  18.440  0.00  0.00    +0.000 A 
ATOM     13  C   UNL     1      48.118   3.267  17.387  0.00  0.00    +0.000 A 
ATOM     14  N   UNL     1      49.191   2.587  16.841  0.00  0.00    +0.000 N 
ATOM     15  O   UNL     1      49.024   1.766  15.889  0.00  0.00    +0.000 OA
ATOM     16  C   UNL     1      50.451   2.826  17.360  0.00  0.00    +0.000 A 
ATOM     17  C   UNL     1      50.649   3.722  18.411  0.00  0.00    +0.000 A 
ENDBRANCH  10  11
ENDBRANCH   9  10
ENDBRANCH   8   9
ENDBRANCH   5   8
ENDBRANCH   1   2
BRANCH   1  18
ATOM     18  N   UNL     1      47.530   6.615  14.302  0.00  0.00    +0.000 NA
ATOM     19  H   UNL     1      48.035   5.878  14.791  0.00  0.00    +0.000 HD
BRANCH  18  21
ATOM     20  C   UNL     1      48.211   7.334  12.006  0.00  0.00    +0.000 C 
ATOM     21  C   UNL     1      47.506   6.274  12.868  0.00  0.00    +0.000 C 
BRANCH  21  22
ATOM     22  C   UNL     1      46.053   6.151  12.424  0.00  0.00    +0.000 A 
ATOM     23  C   UNL     1      45.286   7.177  11.893  0.00  0.00    +0.000 A 
ATOM     24  S   UNL     1      43.737   6.676  11.376  0.00  0.00    +0.000 S 
ATOM     25  C   UNL     1      44.048   5.059  11.810  0.00  0.00    +0.000 A 
ATOM     26  N   UNL     1      43.146   4.075  11.553  0.00  0.00    +0.000 NA
ATOM     27  C   UNL     1      43.543   2.892  11.904  0.00  0.00    +0.000 A 
ATOM     28  N   UNL     1      44.738   2.615  12.514  0.00  0.00    +0.000 N 
ATOM     29  C   UNL     1      45.646   3.590  12.861  0.00  0.00    +0.000 A 
ATOM     30  O   UNL     1      46.653   3.327  13.513  0.00  0.00    +0.000 OA
ATOM     31  C   UNL     1      45.287   4.920  12.408  0.00  0.00    +0.000 A 
ATOM     32  H   UNL     1      44.963   1.673  12.800  0.00  0.00    +0.000 HD
ENDBRANCH  21  22
ENDBRANCH  18  21
ENDBRANCH   1  18
TORSDOF 8
ENDMDL
MODEL 7
REMARK VINA RESULT:    -7.140      3.133      8.790
REMARK INTER + INTRA:         -11.293
REMARK INTER:                  -9.874
REMARK INTRA:                  -1.419
REMARK UNBOUND:                -0.813
REMARK  Name = 
REMARK  9 active torsions:
REMARK  status: ('A' for Active; 'I' for Inactive)
REMARK    1  A    between atoms: C_1  and  C_2
REMARK    2  A    between atoms: C_2  and  N_3
REMARK    3  A    between atoms: C_2  and  C_21
REMARK    4  A    between atoms: N_3  and  C_4
REMARK    5  A    between atoms: C_4  and  C_5
REMARK    6  A    between atoms: C_8  and  C_9
REMARK    7  A    between atoms: C_9  and  S_10
REMARK    8  A    between atoms: S_10  and  C_11
REMARK    9  A    between atoms: C_11  and  C_12
REMARK                            x       y       z     vdW  Elec       q    Type
REMARK                         _______ _______ _______ _____ _____    ______ ____
ROOT
ATOM      1  C   UNL     1      48.482   6.906  12.595  0.00  0.00    +0.000 C 
ENDROOT
BRANCH   1   2
ATOM      2  C   UNL     1      48.742   7.422  13.995  0.00  0.00    +0.000 A 
ATOM      3  C   UNL     1      47.849   8.296  14.628  0.00  0.00    +0.000 A 
ATOM      4  C   UNL     1      48.091   8.737  15.935  0.00  0.00    +0.000 A 
ATOM      5  C   UNL     1      49.212   8.296  16.654  0.00  0.00    +0.000 A 
ATOM      6  C   UNL     1      50.106   7.425  16.017  0.00  0.00    +0.000 A 
ATOM      7  C   UNL     1      49.873   6.995  14.706  0.00  0.00    +0.000 A 
BRANCH   5   8
ATOM      8  C   UNL     1      49.483   8.776  18.063  0.00  0.00    +0.000 C 
BRANCH   8   9
ATOM      9  S   UNL     1      49.565   7.403  19.261  0.00  0.00    +0.000 S 
BRANCH   9  10
ATOM     10  C   UNL     1      48.018   6.538  18.840  0.00  0.00    +0.000 C 
BRANCH  10  11
ATOM     11  C   UNL     1      48.321   5.223  18.159  0.00  0.00    +0.000 A 
ATOM     12  C   UNL     1      49.587   4.637  18.274  0.00  0.00    +0.000 A 
ATOM     13  C   UNL     1      49.879   3.460  17.584  0.00  0.00    +0.000 A 
ATOM     14  N   UNL     1      48.942   2.844  16.775  0.00  0.00    +0.000 N 
ATOM     15  O   UNL     1      49.224   1.778  16.148  0.00  0.00    +0.000 OA
ATOM     16  C   UNL     1      47.689   3.421  16.667  0.00  0.00    +0.000 A 
ATOM     17  C   UNL     1      47.367   4.597  17.346  0.00  0.00    +0.000 A 
ENDBRANCH  10  11
ENDBRANCH   9  10
ENDBRANCH   8   9
ENDBRANCH   5   8
ENDBRANCH   1   2
BRANCH   1  18
ATOM     18  N   UNL     1      47.154   6.300  12.461  0.00  0.00    +0.000 NA
ATOM     19  H   UNL     1      47.279   5.303  12.289  0.00  0.00    +0.000 HD
BRANCH  18  21
ATOM     20  C   UNL     1      45.354   7.906  11.807  0.00  0.00    +0.000 C 
ATOM     21  C   UNL     1      46.378   6.859  11.339  0.00  0.00    +0.000 C 
BRANCH  21  22
ATOM     22  C   UNL     1      45.646   5.719  10.641  0.00  0.00    +0.000 A 
ATOM     23  C   UNL     1      45.766   5.390   9.300  0.00  0.00    +0.000 A 
ATOM     24  S   UNL     1      44.910   3.977   8.862  0.00  0.00    +0.000 S 
ATOM     25  C   UNL     1      44.377   3.733  10.460  0.00  0.00    +0.000 A 
ATOM     26  N   UNL     1      43.653   2.633  10.800  0.00  0.00    +0.000 NA
ATOM     27  C   UNL     1      43.357   2.566  12.060  0.00  0.00    +0.000 A 
ATOM     28  N   UNL     1      43.688   3.512  12.995  0.00  0.00    +0.000 N 
ATOM     29  C   UNL     1      44.352   4.677  12.680  0.00  0.00    +0.000 A 
ATOM     30  O   UNL     1      44.530   5.560  13.513  0.00  0.00    +0.000 OA
ATOM     31  C   UNL     1      44.785   4.754  11.298  0.00  0.00    +0.000 A 
ATOM     32  H   UNL     1      43.384   3.417  13.953  0.00  0.00    +0.000 HD
ENDBRANCH  21  22
ENDBRANCH  18  21
ENDBRANCH   1  18
TORSDOF 8
ENDMDL
MODEL 8
REMARK VINA RESULT:    -6.638      3.208      4.137
REMARK INTER + INTRA:         -10.556
REMARK INTER:                  -9.508
REMARK INTRA:                  -1.048
REMARK UNBOUND:                -0.813
REMARK  Name = 
REMARK  9 active torsions:
REMARK  status: ('A' for Active; 'I' for Inactive)
REMARK    1  A    between atoms: C_1  and  C_2
REMARK    2  A    between atoms: C_2  and  N_3
REMARK    3  A    between atoms: C_2  and  C_21
REMARK    4  A    between atoms: N_3  and  C_4
REMARK    5  A    between atoms: C_4  and  C_5
REMARK    6  A    between atoms: C_8  and  C_9
REMARK    7  A    between atoms: C_9  and  S_10
REMARK    8  A    between atoms: S_10  and  C_11
REMARK    9  A    between atoms: C_11  and  C_12
REMARK                            x       y       z     vdW  Elec       q    Type
REMARK                         _______ _______ _______ _____ _____    ______ ____
ROOT
ATOM      1  C   UNL     1      47.573   8.484  11.998  0.00  0.00    +0.000 C 
ENDROOT
BRANCH   1   2
ATOM      2  C   UNL     1      46.567   7.359  12.129  0.00  0.00    +0.000 A 
ATOM      3  C   UNL     1      46.916   6.131  12.705  0.00  0.00    +0.000 A 
ATOM      4  C   UNL     1      45.963   5.115  12.847  0.00  0.00    +0.000 A 
ATOM      5  C   UNL     1      44.633   5.306  12.446  0.00  0.00    +0.000 A 
ATOM      6  C   UNL     1      44.286   6.534  11.867  0.00  0.00    +0.000 A 
ATOM      7  C   UNL     1      45.241   7.546  11.711  0.00  0.00    +0.000 A 
BRANCH   5   8
ATOM      8  C   UNL     1      43.601   4.209  12.588  0.00  0.00    +0.000 C 
BRANCH   8   9
ATOM      9  S   UNL     1      43.717   2.968  11.256  0.00  0.00    +0.000 S 
BRANCH   9  10
ATOM     10  C   UNL     1      44.135   4.060   9.859  0.00  0.00    +0.000 C 
BRANCH  10  11
ATOM     11  C   UNL     1      45.155   3.396   8.961  0.00  0.00    +0.000 A 
ATOM     12  C   UNL     1      45.805   4.126   7.959  0.00  0.00    +0.000 A 
ATOM     13  C   UNL     1      46.691   3.489   7.091  0.00  0.00    +0.000 A 
ATOM     14  N   UNL     1      46.950   2.134   7.188  0.00  0.00    +0.000 N 
ATOM     15  O   UNL     1      47.752   1.566   6.387  0.00  0.00    +0.000 OA
ATOM     16  C   UNL     1      46.312   1.414   8.182  0.00  0.00    +0.000 A 
ATOM     17  C   UNL     1      45.421   2.025   9.067  0.00  0.00    +0.000 A 
ENDBRANCH  10  11
ENDBRANCH   9  10
ENDBRANCH   8   9
ENDBRANCH   5   8
ENDBRANCH   1   2
BRANCH   1  18
ATOM     18  N   UNL     1      48.941   8.048  12.296  0.00  0.00    +0.000 NA
ATOM     19  H   UNL     1      48.895   7.355  13.041  0.00  0.00    +0.000 HD
BRANCH  18  21
ATOM     20  C   UNL     1      50.464   9.896  11.579  0.00  0.00    +0.000 C 
ATOM     21  C   UNL     1      49.808   9.148  12.752  0.00  0.00    +0.000 C 
BRANCH  21  22
ATOM     22  C   UNL     1      50.896   8.568  13.648  0.00  0.00    +0.000 A 
ATOM     23  C   UNL     1      52.248   8.527  13.346  0.00  0.00    +0.000 A 
ATOM     24  S   UNL     1      53.216   7.930  14.621  0.00  0.00    +0.000 S 
ATOM     25  C   UNL     1      51.865   7.738  15.638  0.00  0.00    +0.000 A 
ATOM     26  N   UNL     1      52.006   7.333  16.928  0.00  0.00    +0.000 NA
ATOM     27  C   UNL     1      50.891   7.274  17.587  0.00  0.00    +0.000 A 
ATOM     28  N   UNL     1      49.655   7.550  17.064  0.00  0.00    +0.000 N 
ATOM     29  C   UNL     1      49.459   7.888  15.743  0.00  0.00    +0.000 A 
ATOM     30  O   UNL     1      48.332   8.013  15.273  0.00  0.00    +0.000 OA
ATOM     31  C   UNL     1      50.686   8.056  14.988  0.00  0.00    +0.000 A 
ATOM     32  H   UNL     1      48.823   7.439  17.624  0.00  0.00    +0.000 HD
ENDBRANCH  21  22
ENDBRANCH  18  21
ENDBRANCH   1  18
TORSDOF 8
ENDMDL
MODEL 9
REMARK VINA RESULT:    -6.514      3.388      9.375
REMARK INTER + INTRA:         -10.374
REMARK INTER:                  -8.400
REMARK INTRA:                  -1.974
REMARK UNBOUND:                -0.813
REMARK  Name = 
REMARK  9 active torsions:
REMARK  status: ('A' for Active; 'I' for Inactive)
REMARK    1  A    between atoms: C_1  and  C_2
REMARK    2  A    between atoms: C_2  and  N_3
REMARK    3  A    between atoms: C_2  and  C_21
REMARK    4  A    between atoms: N_3  and  C_4
REMARK    5  A    between atoms: C_4  and  C_5
REMARK    6  A    between atoms: C_8  and  C_9
REMARK    7  A    between atoms: C_9  and  S_10
REMARK    8  A    between atoms: S_10  and  C_11
REMARK    9  A    between atoms: C_11  and  C_12
REMARK                            x       y       z     vdW  Elec       q    Type
REMARK                         _______ _______ _______ _____ _____    ______ ____
ROOT
ATOM      1  C   UNL     1      47.499   3.688  15.795  0.00  0.00    +0.000 C 
ENDROOT
BRANCH   1   2
ATOM      2  C   UNL     1      48.079   4.124  17.124  0.00  0.00    +0.000 A 
ATOM      3  C   UNL     1      49.410   3.853  17.465  0.00  0.00    +0.000 A 
ATOM      4  C   UNL     1      49.936   4.293  18.685  0.00  0.00    +0.000 A 
ATOM      5  C   UNL     1      49.159   5.038  19.584  0.00  0.00    +0.000 A 
ATOM      6  C   UNL     1      47.827   5.306  19.243  0.00  0.00    +0.000 A 
ATOM      7  C   UNL     1      47.295   4.855  18.030  0.00  0.00    +0.000 A 
BRANCH   5   8
ATOM      8  C   UNL     1      49.721   5.508  20.908  0.00  0.00    +0.000 C 
BRANCH   8   9
ATOM      9  S   UNL     1      49.583   7.315  21.119  0.00  0.00    +0.000 S 
BRANCH   9  10
ATOM     10  C   UNL     1      51.250   7.813  20.577  0.00  0.00    +0.000 C 
BRANCH  10  11
ATOM     11  C   UNL     1      51.342   7.776  19.068  0.00  0.00    +0.000 A 
ATOM     12  C   UNL     1      50.323   8.322  18.279  0.00  0.00    +0.000 A 
ATOM     13  C   UNL     1      50.384   8.220  16.888  0.00  0.00    +0.000 A 
ATOM     14  N   UNL     1      51.436   7.585  16.255  0.00  0.00    +0.000 N 
ATOM     15  O   UNL     1      51.475   7.494  14.990  0.00  0.00    +0.000 OA
ATOM     16  C   UNL     1      52.446   7.051  17.036  0.00  0.00    +0.000 A 
ATOM     17  C   UNL     1      52.414   7.138  18.428  0.00  0.00    +0.000 A 
ENDBRANCH  10  11
ENDBRANCH   9  10
ENDBRANCH   8   9
ENDBRANCH   5   8
ENDBRANCH   1   2
BRANCH   1  18
ATOM     18  N   UNL     1      46.664   4.726  15.182  0.00  0.00    +0.000 NA
ATOM     19  H   UNL     1      45.792   4.293  14.883  0.00  0.00    +0.000 HD
BRANCH  18  21
ATOM     20  C   UNL     1      48.148   6.567  14.368  0.00  0.00    +0.000 C 
ATOM     21  C   UNL     1      47.292   5.344  14.000  0.00  0.00    +0.000 C 
BRANCH  21  22
ATOM     22  C   UNL     1      46.192   5.773  13.036  0.00  0.00    +0.000 A 
ATOM     23  C   UNL     1      45.860   7.083  12.730  0.00  0.00    +0.000 A 
ATOM     24  S   UNL     1      44.667   7.220  11.513  0.00  0.00    +0.000 S 
ATOM     25  C   UNL     1      44.577   5.531  11.327  0.00  0.00    +0.000 A 
ATOM     26  N   UNL     1      43.789   4.969  10.372  0.00  0.00    +0.000 NA
ATOM     27  C   UNL     1      43.859   3.675  10.326  0.00  0.00    +0.000 A 
ATOM     28  N   UNL     1      44.614   2.900  11.166  0.00  0.00    +0.000 N 
ATOM     29  C   UNL     1      45.364   3.422  12.196  0.00  0.00    +0.000 A 
ATOM     30  O   UNL     1      45.935   2.698  13.007  0.00  0.00    +0.000 OA
ATOM     31  C   UNL     1      45.391   4.872  12.230  0.00  0.00    +0.000 A 
ATOM     32  H   UNL     1      44.584   1.893  11.102  0.00  0.00    +0.000 HD
ENDBRANCH  21  22
ENDBRANCH  18  21
ENDBRANCH   1  18
TORSDOF 8
ENDMDL
