MODEL 1
REMARK VINA RESULT:    -7.720      0.000      0.000
REMARK INTER + INTRA:          -9.955
REMARK INTER:                  -9.525
REMARK INTRA:                  -0.430
REMARK UNBOUND:                -0.430
REMARK  Name = 
REMARK  5 active torsions:
REMARK  status: ('A' for Active; 'I' for Inactive)
REMARK    1  A    between atoms: C_1  and  O_2
REMARK    2  A    between atoms: O_2  and  C_3
REMARK    3  A    between atoms: C_5  and  C_6
REMARK    4  A    between atoms: C_6  and  N_7
REMARK    5  A    between atoms: C_12  and  C_13
REMARK                            x       y       z     vdW  Elec       q    Type
REMARK                         _______ _______ _______ _____ _____    ______ ____
ROOT
ATOM      1  N   UNL     1      44.045   4.351  10.572  0.00  0.00    +0.000 N 
ATOM      2  C   UNL     1      43.585   3.162  11.094  0.00  0.00    +0.000 A 
ATOM      3  C   UNL     1      44.149   2.132  10.372  0.00  0.00    +0.000 A 
ATOM      4  C   UNL     1      44.983   2.711   9.391  0.00  0.00    +0.000 A 
ATOM      5  N   UNL     1      45.736   2.098   8.457  0.00  0.00    +0.000 NA
ATOM      6  C   UNL     1      46.421   2.955   7.681  0.00  0.00    +0.000 A 
ATOM      7  N   UNL     1      46.441   4.314   7.760  0.00  0.00    +0.000 NA
ATOM      8  C   UNL     1      45.682   4.897   8.708  0.00  0.00    +0.000 A 
ATOM      9  C   UNL     1      44.923   4.092   9.541  0.00  0.00    +0.000 A 
ENDROOT
BRANCH   6  10
ATOM     10  C   UNL     1      47.264   2.349   6.578  0.00  0.00    +0.000 C 
ATOM     11  N   UNL     1      47.235   3.009   5.370  0.00  0.00    +0.000 N 
ATOM     12  O   UNL     1      47.939   1.333   6.707  0.00  0.00    +0.000 OA
ATOM     13  H   UNL     1      46.657   3.834   5.257  0.00  0.00    +0.000 HD
ATOM     14  H   UNL     1      47.755   2.630   4.594  0.00  0.00    +0.000 HD
ENDBRANCH   6  10
BRANCH   1  15
ATOM     15  C   UNL     1      43.689   5.666  11.100  0.00  0.00    +0.000 C 
BRANCH  15  18
ATOM     16  C   UNL     1      46.835   6.070  13.245  0.00  0.00    +0.000 A 
ATOM     17  C   UNL     1      45.756   5.503  12.554  0.00  0.00    +0.000 A 
ATOM     18  C   UNL     1      44.831   6.299  11.856  0.00  0.00    +0.000 A 
ATOM     19  C   UNL     1      44.999   7.691  11.868  0.00  0.00    +0.000 A 
ATOM     20  C   UNL     1      46.071   8.264  12.554  0.00  0.00    +0.000 A 
ATOM     21  C   UNL     1      46.982   7.457  13.232  0.00  0.00    +0.000 A 
ATOM     22  F   UNL     1      47.996   8.064  13.865  0.00  0.00    +0.000 F 
BRANCH  16  24
ATOM     23  C   UNL     1      47.060   4.426  14.950  0.00  0.00    +0.000 C 
ATOM     24  O   UNL     1      47.636   5.154  13.873  0.00  0.00    +0.000 OA
ENDBRANCH  16  24
ENDBRANCH  15  18
ENDBRANCH   1  15
TORSDOF 4
ENDMDL
MODEL 2
REMARK VINA RESULT:    -7.483      3.101      6.648
REMARK INTER + INTRA:          -9.663
REMARK INTER:                  -9.393
REMARK INTRA:                  -0.270
REMARK UNBOUND:                -0.430
REMARK  Name = 
REMARK  5 active torsions:
REMARK  status: ('A' for Active; 'I' for Inactive)
REMARK    1  A    between atoms: C_1  and  O_2
REMARK    2  A    between atoms: O_2  and  C_3
REMARK    3  A    between atoms: C_5  and  C_6
REMARK    4  A    between atoms: C_6  and  N_7
REMARK    5  A    between atoms: C_12  and  C_13
REMARK                            x       y       z     vdW  Elec       q    Type
REMARK                         _______ _______ _______ _____ _____    ______ ____
ROOT
ATOM      1  N   UNL     1      44.734   5.128  10.893  0.00  0.00    +0.000 N 
ATOM      2  C   UNL     1      44.810   6.503  10.860  0.00  0.00    +0.000 A 
ATOM      3  C   UNL     1      45.515   6.918  11.970  0.00  0.00    +0.000 A 
ATOM      4  C   UNL     1      45.886   5.762  12.690  0.00  0.00    +0.000 A 
ATOM      5  N   UNL     1      46.584   5.674  13.840  0.00  0.00    +0.000 NA
ATOM      6  C   UNL     1      46.771   4.410  14.252  0.00  0.00    +0.000 A 
ATOM      7  N   UNL     1      46.360   3.266  13.638  0.00  0.00    +0.000 NA
ATOM      8  C   UNL     1      45.669   3.386  12.487  0.00  0.00    +0.000 A 
ATOM      9  C   UNL     1      45.410   4.655  11.997  0.00  0.00    +0.000 A 
ENDROOT
BRANCH   6  10
ATOM     10  C   UNL     1      47.513   4.222  15.559  0.00  0.00    +0.000 C 
ATOM     11  N   UNL     1      47.767   2.919  15.923  0.00  0.00    +0.000 N 
ATOM     12  O   UNL     1      47.878   5.143  16.281  0.00  0.00    +0.000 OA
ATOM     13  H   UNL     1      47.443   2.157  15.338  0.00  0.00    +0.000 HD
ATOM     14  H   UNL     1      48.232   2.738  16.799  0.00  0.00    +0.000 HD
ENDBRANCH   6  10
BRANCH   1  15
ATOM     15  C   UNL     1      44.085   4.322   9.861  0.00  0.00    +0.000 C 
BRANCH  15  18
ATOM     16  C   UNL     1      46.204   1.629   8.153  0.00  0.00    +0.000 A 
ATOM     17  C   UNL     1      45.293   2.269   9.004  0.00  0.00    +0.000 A 
ATOM     18  C   UNL     1      45.088   3.658   8.950  0.00  0.00    +0.000 A 
ATOM     19  C   UNL     1      45.824   4.410   8.023  0.00  0.00    +0.000 A 
ATOM     20  C   UNL     1      46.734   3.782   7.172  0.00  0.00    +0.000 A 
ATOM     21  C   UNL     1      46.916   2.401   7.235  0.00  0.00    +0.000 A 
ATOM     22  F   UNL     1      47.797   1.853   6.386  0.00  0.00    +0.000 F 
BRANCH  16  24
ATOM     23  C   UNL     1      46.543  -0.520   7.190  0.00  0.00    +0.000 C 
ATOM     24  O   UNL     1      46.285   0.276   8.340  0.00  0.00    +0.000 OA
ENDBRANCH  16  24
ENDBRANCH  15  18
ENDBRANCH   1  15
TORSDOF 4
ENDMDL
MODEL 3
REMARK VINA RESULT:    -7.423      1.247      2.146
REMARK INTER + INTRA:          -9.588
REMARK INTER:                  -9.145
REMARK INTRA:                  -0.444
REMARK UNBOUND:                -0.430
REMARK  Name = 
REMARK  5 active torsions:
REMARK  status: ('A' for Active; 'I' for Inactive)
REMARK    1  A    between atoms: C_1  and  O_2
REMARK    2  A    between atoms: O_2  and  C_3
REMARK    3  A    between atoms: C_5  and  C_6
REMARK    4  A    between atoms: C_6  and  N_7
REMARK    5  A    between atoms: C_12  and  C_13
REMARK                            x       y       z     vdW  Elec       q    Type
REMARK                         _______ _______ _______ _____ _____    ______ ____
ROOT
ATOM      1  N   UNL     1      43.994   4.281  10.471  0.00  0.00    +0.000 N 
ATOM      2  C   UNL     1      43.569   3.083  11.003  0.00  0.00    +0.000 A 
ATOM      3  C   UNL     1      44.180   2.065  10.304  0.00  0.00    +0.000 A 
ATOM      4  C   UNL     1      45.007   2.661   9.327  0.00  0.00    +0.000 A 
ATOM      5  N   UNL     1      45.796   2.063   8.412  0.00  0.00    +0.000 NA
ATOM      6  C   UNL     1      46.460   2.934   7.635  0.00  0.00    +0.000 A 
ATOM      7  N   UNL     1      46.430   4.294   7.695  0.00  0.00    +0.000 NA
ATOM      8  C   UNL     1      45.637   4.862   8.623  0.00  0.00    +0.000 A 
ATOM      9  C   UNL     1      44.896   4.041   9.457  0.00  0.00    +0.000 A 
ENDROOT
BRANCH   6  10
ATOM     10  C   UNL     1      47.341   2.345   6.552  0.00  0.00    +0.000 C 
ATOM     11  N   UNL     1      47.386   3.046   5.368  0.00  0.00    +0.000 N 
ATOM     12  O   UNL     1      47.985   1.308   6.677  0.00  0.00    +0.000 OA
ATOM     13  H   UNL     1      46.835   3.888   5.256  0.00  0.00    +0.000 HD
ATOM     14  H   UNL     1      47.934   2.679   4.605  0.00  0.00    +0.000 HD
ENDBRANCH   6  10
BRANCH   1  15
ATOM     15  C   UNL     1      43.582   5.589  10.975  0.00  0.00    +0.000 C 
BRANCH  15  18
ATOM     16  C   UNL     1      45.874   8.344  12.325  0.00  0.00    +0.000 A 
ATOM     17  C   UNL     1      44.859   7.677  11.626  0.00  0.00    +0.000 A 
ATOM     18  C   UNL     1      44.696   6.283  11.720  0.00  0.00    +0.000 A 
ATOM     19  C   UNL     1      45.581   5.557  12.529  0.00  0.00    +0.000 A 
ATOM     20  C   UNL     1      46.594   6.214  13.229  0.00  0.00    +0.000 A 
ATOM     21  C   UNL     1      46.733   7.597  13.129  0.00  0.00    +0.000 A 
ATOM     22  F   UNL     1      47.720   8.172  13.832  0.00  0.00    +0.000 F 
BRANCH  16  24
ATOM     23  C   UNL     1      44.664  10.313  11.759  0.00  0.00    +0.000 C 
ATOM     24  O   UNL     1      45.895   9.697  12.118  0.00  0.00    +0.000 OA
ENDBRANCH  16  24
ENDBRANCH  15  18
ENDBRANCH   1  15
TORSDOF 4
ENDMDL
MODEL 4
REMARK VINA RESULT:    -7.364      3.364      6.895
REMARK INTER + INTRA:          -9.515
REMARK INTER:                  -9.112
REMARK INTRA:                  -0.403
REMARK UNBOUND:                -0.430
REMARK  Name = 
REMARK  5 active torsions:
REMARK  status: ('A' for Active; 'I' for Inactive)
REMARK    1  A    between atoms: C_1  and  O_2
REMARK    2  A    between atoms: O_2  and  C_3
REMARK    3  A    between atoms: C_5  and  C_6
REMARK    4  A    between atoms: C_6  and  N_7
REMARK    5  A    between atoms: C_12  and  C_13
REMARK                            x       y       z     vdW  Elec       q    Type
REMARK                         _______ _______ _______ _____ _____    ______ ____
ROOT
ATOM      1  N   UNL     1      46.153   6.367  11.864  0.00  0.00    +0.000 N 
ATOM      2  C   UNL     1      47.219   7.198  11.592  0.00  0.00    +0.000 A 
ATOM      3  C   UNL     1      48.158   7.027  12.587  0.00  0.00    +0.000 A 
ATOM      4  C   UNL     1      47.654   6.058  13.481  0.00  0.00    +0.000 A 
ATOM      5  N   UNL     1      48.221   5.570  14.602  0.00  0.00    +0.000 NA
ATOM      6  C   UNL     1      47.468   4.644  15.219  0.00  0.00    +0.000 A 
ATOM      7  N   UNL     1      46.257   4.162  14.826  0.00  0.00    +0.000 NA
ATOM      8  C   UNL     1      45.717   4.666  13.699  0.00  0.00    +0.000 A 
ATOM      9  C   UNL     1      46.414   5.642  13.008  0.00  0.00    +0.000 A 
ENDROOT
BRANCH   6  10
ATOM     10  C   UNL     1      48.015   4.071  16.509  0.00  0.00    +0.000 C 
ATOM     11  N   UNL     1      47.108   3.404  17.302  0.00  0.00    +0.000 N 
ATOM     12  O   UNL     1      49.183   4.178  16.869  0.00  0.00    +0.000 OA
ATOM     13  H   UNL     1      46.138   3.338  17.016  0.00  0.00    +0.000 HD
ATOM     14  H   UNL     1      47.416   3.030  18.186  0.00  0.00    +0.000 HD
ENDBRANCH   6  10
BRANCH   1  15
ATOM     15  C   UNL     1      44.973   6.248  11.012  0.00  0.00    +0.000 C 
BRANCH  15  18
ATOM     16  C   UNL     1      45.705   3.705   8.245  0.00  0.00    +0.000 A 
ATOM     17  C   UNL     1      45.670   4.890   8.992  0.00  0.00    +0.000 A 
ATOM     18  C   UNL     1      44.979   4.968  10.214  0.00  0.00    +0.000 A 
ATOM     19  C   UNL     1      44.306   3.829  10.678  0.00  0.00    +0.000 A 
ATOM     20  C   UNL     1      44.336   2.644   9.941  0.00  0.00    +0.000 A 
ATOM     21  C   UNL     1      45.035   2.585   8.737  0.00  0.00    +0.000 A 
ATOM     22  F   UNL     1      45.035   1.417   8.078  0.00  0.00    +0.000 F 
BRANCH  16  24
ATOM     23  C   UNL     1      47.539   2.939   6.937  0.00  0.00    +0.000 C 
ATOM     24  O   UNL     1      46.418   3.802   7.080  0.00  0.00    +0.000 OA
ENDBRANCH  16  24
ENDBRANCH  15  18
ENDBRANCH   1  15
TORSDOF 4
ENDMDL
MODEL 5
REMARK VINA RESULT:    -7.034      3.663      6.681
REMARK INTER + INTRA:          -9.108
REMARK INTER:                  -9.030
REMARK INTRA:                  -0.078
REMARK UNBOUND:                -0.430
REMARK  Name = 
REMARK  5 active torsions:
REMARK  status: ('A' for Active; 'I' for Inactive)
REMARK    1  A    between atoms: C_1  and  O_2
REMARK    2  A    between atoms: O_2  and  C_3
REMARK    3  A    between atoms: C_5  and  C_6
REMARK    4  A    between atoms: C_6  and  N_7
REMARK    5  A    between atoms: C_12  and  C_13
REMARK                            x       y       z     vdW  Elec       q    Type
REMARK                         _______ _______ _______ _____ _____    ______ ____
ROOT
ATOM      1  N   UNL     1      46.648   6.702  12.018  0.00  0.00    +0.000 N 
ATOM      2  C   UNL     1      47.854   7.366  11.952  0.00  0.00    +0.000 A 
ATOM      3  C   UNL     1      48.615   6.976  13.033  0.00  0.00    +0.000 A 
ATOM      4  C   UNL     1      47.855   6.042  13.770  0.00  0.00    +0.000 A 
ATOM      5  N   UNL     1      48.188   5.391  14.902  0.00  0.00    +0.000 NA
ATOM      6  C   UNL     1      47.228   4.559  15.338  0.00  0.00    +0.000 A 
ATOM      7  N   UNL     1      46.021   4.308  14.761  0.00  0.00    +0.000 NA
ATOM      8  C   UNL     1      45.719   4.970  13.627  0.00  0.00    +0.000 A 
ATOM      9  C   UNL     1      46.641   5.867  13.115  0.00  0.00    +0.000 A 
ENDROOT
BRANCH   6  10
ATOM     10  C   UNL     1      47.505   3.816  16.628  0.00  0.00    +0.000 C 
ATOM     11  N   UNL     1      48.810   3.843  17.067  0.00  0.00    +0.000 N 
ATOM     12  O   UNL     1      46.654   3.210  17.270  0.00  0.00    +0.000 OA
ATOM     13  H   UNL     1      49.518   4.322  16.524  0.00  0.00    +0.000 HD
ATOM     14  H   UNL     1      49.053   3.338  17.906  0.00  0.00    +0.000 HD
ENDBRANCH   6  10
BRANCH   1  15
ATOM     15  C   UNL     1      45.587   6.836  11.022  0.00  0.00    +0.000 C 
BRANCH  15  18
ATOM     16  C   UNL     1      44.242   3.380  10.072  0.00  0.00    +0.000 A 
ATOM     17  C   UNL     1      44.485   4.571  10.768  0.00  0.00    +0.000 A 
ATOM     18  C   UNL     1      45.358   5.551  10.265  0.00  0.00    +0.000 A 
ATOM     19  C   UNL     1      45.999   5.314   9.041  0.00  0.00    +0.000 A 
ATOM     20  C   UNL     1      45.763   4.131   8.341  0.00  0.00    +0.000 A 
ATOM     21  C   UNL     1      44.887   3.176   8.852  0.00  0.00    +0.000 A 
ATOM     22  F   UNL     1      44.693   2.063   8.130  0.00  0.00    +0.000 F 
BRANCH  16  24
ATOM     23  C   UNL     1      43.387   2.536  12.126  0.00  0.00    +0.000 C 
ATOM     24  O   UNL     1      43.371   2.533  10.703  0.00  0.00    +0.000 OA
ENDBRANCH  16  24
ENDBRANCH  15  18
ENDBRANCH   1  15
TORSDOF 4
ENDMDL
MODEL 6
REMARK VINA RESULT:    -6.472      3.603      6.674
REMARK INTER + INTRA:          -8.415
REMARK INTER:                  -8.283
REMARK INTRA:                  -0.133
REMARK UNBOUND:                -0.430
REMARK  Name = 
REMARK  5 active torsions:
REMARK  status: ('A' for Active; 'I' for Inactive)
REMARK    1  A    between atoms: C_1  and  O_2
REMARK    2  A    between atoms: O_2  and  C_3
REMARK    3  A    between atoms: C_5  and  C_6
REMARK    4  A    between atoms: C_6  and  N_7
REMARK    5  A    between atoms: C_12  and  C_13
REMARK                            x       y       z     vdW  Elec       q    Type
REMARK                         _______ _______ _______ _____ _____    ______ ____
ROOT
ATOM      1  N   UNL     1      45.393   5.160  11.928  0.00  0.00    +0.000 N 
ATOM      2  C   UNL     1      45.105   4.434  13.063  0.00  0.00    +0.000 A 
ATOM      3  C   UNL     1      46.073   4.710  14.004  0.00  0.00    +0.000 A 
ATOM      4  C   UNL     1      46.969   5.637  13.428  0.00  0.00    +0.000 A 
ATOM      5  N   UNL     1      48.070   6.194  13.971  0.00  0.00    +0.000 NA
ATOM      6  C   UNL     1      48.694   7.050  13.145  0.00  0.00    +0.000 A 
ATOM      7  N   UNL     1      48.326   7.405  11.884  0.00  0.00    +0.000 NA
ATOM      8  C   UNL     1      47.219   6.836  11.370  0.00  0.00    +0.000 A 
ATOM      9  C   UNL     1      46.521   5.922  12.143  0.00  0.00    +0.000 A 
ENDROOT
BRANCH   6  10
ATOM     10  C   UNL     1      49.964   7.692  13.664  0.00  0.00    +0.000 C 
ATOM     11  N   UNL     1      50.293   7.402  14.969  0.00  0.00    +0.000 N 
ATOM     12  O   UNL     1      50.679   8.435  13.001  0.00  0.00    +0.000 OA
ATOM     13  H   UNL     1      49.689   6.808  15.524  0.00  0.00    +0.000 HD
ATOM     14  H   UNL     1      51.114   7.829  15.371  0.00  0.00    +0.000 HD
ENDBRANCH   6  10
BRANCH   1  15
ATOM     15  C   UNL     1      44.569   5.150  10.722  0.00  0.00    +0.000 C 
BRANCH  15  18
ATOM     16  C   UNL     1      46.155   3.520   7.642  0.00  0.00    +0.000 A 
ATOM     17  C   UNL     1      45.705   4.476   8.562  0.00  0.00    +0.000 A 
ATOM     18  C   UNL     1      45.024   4.104   9.735  0.00  0.00    +0.000 A 
ATOM     19  C   UNL     1      44.789   2.742   9.971  0.00  0.00    +0.000 A 
ATOM     20  C   UNL     1      45.233   1.783   9.060  0.00  0.00    +0.000 A 
ATOM     21  C   UNL     1      45.915   2.172   7.908  0.00  0.00    +0.000 A 
ATOM     22  F   UNL     1      46.325   1.205   7.074  0.00  0.00    +0.000 F 
BRANCH  16  24
ATOM     23  C   UNL     1      46.852   3.247   5.383  0.00  0.00    +0.000 C 
ATOM     24  O   UNL     1      46.794   4.052   6.554  0.00  0.00    +0.000 OA
ENDBRANCH  16  24
ENDBRANCH  15  18
ENDBRANCH   1  15
TORSDOF 4
ENDMDL
MODEL 7
REMARK VINA RESULT:    -6.228      3.885      6.990
REMARK INTER + INTRA:          -8.114
REMARK INTER:                  -8.004
REMARK INTRA:                  -0.110
REMARK UNBOUND:                -0.430
REMARK  Name = 
REMARK  5 active torsions:
REMARK  status: ('A' for Active; 'I' for Inactive)
REMARK    1  A    between atoms: C_1  and  O_2
REMARK    2  A    between atoms: O_2  and  C_3
REMARK    3  A    between atoms: C_5  and  C_6
REMARK    4  A    between atoms: C_6  and  N_7
REMARK    5  A    between atoms: C_12  and  C_13
REMARK                            x       y       z     vdW  Elec       q    Type
REMARK                         _______ _______ _______ _____ _____    ______ ____
ROOT
ATOM      1  N   UNL     1      47.796   6.717  13.109  0.00  0.00    +0.000 N 
ATOM      2  C   UNL     1      48.507   7.741  13.696  0.00  0.00    +0.000 A 
ATOM      3  C   UNL     1      48.804   7.368  14.988  0.00  0.00    +0.000 A 
ATOM      4  C   UNL     1      48.269   6.077  15.189  0.00  0.00    +0.000 A 
ATOM      5  N   UNL     1      48.312   5.310  16.297  0.00  0.00    +0.000 NA
ATOM      6  C   UNL     1      47.705   4.122  16.143  0.00  0.00    +0.000 A 
ATOM      7  N   UNL     1      47.101   3.636  15.024  0.00  0.00    +0.000 NA
ATOM      8  C   UNL     1      47.078   4.424  13.931  0.00  0.00    +0.000 A 
ATOM      9  C   UNL     1      47.661   5.677  14.004  0.00  0.00    +0.000 A 
ENDROOT
BRANCH   6  10
ATOM     10  C   UNL     1      47.674   3.212  17.353  0.00  0.00    +0.000 C 
ATOM     11  N   UNL     1      48.831   3.164  18.098  0.00  0.00    +0.000 N 
ATOM     12  O   UNL     1      46.704   2.537  17.682  0.00  0.00    +0.000 OA
ATOM     13  H   UNL     1      49.640   3.702  17.812  0.00  0.00    +0.000 HD
ATOM     14  H   UNL     1      48.872   2.550  18.897  0.00  0.00    +0.000 HD
ENDBRANCH   6  10
BRANCH   1  15
ATOM     15  C   UNL     1      47.330   6.736  11.724  0.00  0.00    +0.000 C 
BRANCH  15  18
ATOM     16  C   UNL     1      44.154   4.989  10.488  0.00  0.00    +0.000 A 
ATOM     17  C   UNL     1      45.485   5.414  10.602  0.00  0.00    +0.000 A 
ATOM     18  C   UNL     1      45.887   6.310  11.608  0.00  0.00    +0.000 A 
ATOM     19  C   UNL     1      44.922   6.788  12.506  0.00  0.00    +0.000 A 
ATOM     20  C   UNL     1      43.595   6.370  12.400  0.00  0.00    +0.000 A 
ATOM     21  C   UNL     1      43.218   5.474  11.402  0.00  0.00    +0.000 A 
ATOM     22  F   UNL     1      41.931   5.103  11.356  0.00  0.00    +0.000 F 
BRANCH  16  24
ATOM     23  C   UNL     1      45.019   3.891   8.563  0.00  0.00    +0.000 C 
ATOM     24  O   UNL     1      43.934   4.122   9.453  0.00  0.00    +0.000 OA
ENDBRANCH  16  24
ENDBRANCH  15  18
ENDBRANCH   1  15
TORSDOF 4
ENDMDL
MODEL 8
REMARK VINA RESULT:    -6.188      3.938      5.726
REMARK INTER + INTRA:          -8.064
REMARK INTER:                  -7.467
REMARK INTRA:                  -0.597
REMARK UNBOUND:                -0.430
REMARK  Name = 
REMARK  5 active torsions:
REMARK  status: ('A' for Active; 'I' for Inactive)
REMARK    1  A    between atoms: C_1  and  O_2
REMARK    2  A    between atoms: O_2  and  C_3
REMARK    3  A    between atoms: C_5  and  C_6
REMARK    4  A    between atoms: C_6  and  N_7
REMARK    5  A    between atoms: C_12  and  C_13
REMARK                            x       y       z     vdW  Elec       q    Type
REMARK                         _______ _______ _______ _____ _____    ______ ____
ROOT
ATOM      1  N   UNL     1      47.549   7.059  13.700  0.00  0.00    +0.000 N 
ATOM      2  C   UNL     1      46.911   8.236  13.378  0.00  0.00    +0.000 A 
ATOM      3  C   UNL     1      45.697   7.922  12.805  0.00  0.00    +0.000 A 
ATOM      4  C   UNL     1      45.591   6.514  12.789  0.00  0.00    +0.000 A 
ATOM      5  N   UNL     1      44.582   5.751  12.324  0.00  0.00    +0.000 NA
ATOM      6  C   UNL     1      44.801   4.434  12.471  0.00  0.00    +0.000 A 
ATOM      7  N   UNL     1      45.882   3.829  13.036  0.00  0.00    +0.000 NA
ATOM      8  C   UNL     1      46.872   4.619  13.496  0.00  0.00    +0.000 A 
ATOM      9  C   UNL     1      46.742   5.991  13.367  0.00  0.00    +0.000 A 
ENDROOT
BRANCH   6  10
ATOM     10  C   UNL     1      43.732   3.502  11.939  0.00  0.00    +0.000 C 
ATOM     11  N   UNL     1      43.727   2.231  12.468  0.00  0.00    +0.000 N 
ATOM     12  O   UNL     1      42.908   3.816  11.086  0.00  0.00    +0.000 OA
ATOM     13  H   UNL     1      44.424   1.965  13.154  0.00  0.00    +0.000 HD
ATOM     14  H   UNL     1      43.054   1.562  12.125  0.00  0.00    +0.000 HD
ENDBRANCH   6  10
BRANCH   1  15
ATOM     15  C   UNL     1      48.853   6.990  14.356  0.00  0.00    +0.000 C 
BRANCH  15  18
ATOM     16  C   UNL     1      48.469   5.531  17.875  0.00  0.00    +0.000 A 
ATOM     17  C   UNL     1      48.568   5.645  16.482  0.00  0.00    +0.000 A 
ATOM     18  C   UNL     1      48.726   6.894  15.856  0.00  0.00    +0.000 A 
ATOM     19  C   UNL     1      48.774   8.044  16.656  0.00  0.00    +0.000 A 
ATOM     20  C   UNL     1      48.676   7.940  18.044  0.00  0.00    +0.000 A 
ATOM     21  C   UNL     1      48.530   6.691  18.646  0.00  0.00    +0.000 A 
ATOM     22  F   UNL     1      48.450   6.654  19.984  0.00  0.00    +0.000 F 
BRANCH  16  24
ATOM     23  C   UNL     1      47.929   3.273  17.355  0.00  0.00    +0.000 C 
ATOM     24  O   UNL     1      48.316   4.245  18.318  0.00  0.00    +0.000 OA
ENDBRANCH  16  24
ENDBRANCH  15  18
ENDBRANCH   1  15
TORSDOF 4
ENDMDL
MODEL 9
REMARK VINA RESULT:    -5.913      3.522      5.153
REMARK INTER + INTRA:          -7.726
REMARK INTER:                  -7.130
REMARK INTRA:                  -0.596
REMARK UNBOUND:                -0.430
REMARK  Name = 
REMARK  5 active torsions:
REMARK  status: ('A' for Active; 'I' for Inactive)
REMARK    1  A    between atoms: C_1  and  O_2
REMARK    2  A    between atoms: O_2  and  C_3
REMARK    3  A    between atoms: C_5  and  C_6
REMARK    4  A    between atoms: C_6  and  N_7
REMARK    5  A    between atoms: C_12  and  C_13
REMARK                            x       y       z     vdW  Elec       q    Type
REMARK                         _______ _______ _______ _____ _____    ______ ____
ROOT
ATOM      1  N   UNL     1      47.192   6.521  13.619  0.00  0.00    +0.000 N 
ATOM      2  C   UNL     1      47.649   5.742  14.660  0.00  0.00    +0.000 A 
ATOM      3  C   UNL     1      47.095   4.487  14.529  0.00  0.00    +0.000 A 
ATOM      4  C   UNL     1      46.286   4.501  13.372  0.00  0.00    +0.000 A 
ATOM      5  N   UNL     1      45.548   3.502  12.847  0.00  0.00    +0.000 NA
ATOM      6  C   UNL     1      44.901   3.855  11.725  0.00  0.00    +0.000 A 
ATOM      7  N   UNL     1      44.935   5.057  11.088  0.00  0.00    +0.000 NA
ATOM      8  C   UNL     1      45.685   6.034  11.633  0.00  0.00    +0.000 A 
ATOM      9  C   UNL     1      46.372   5.768  12.805  0.00  0.00    +0.000 A 
ENDROOT
BRANCH   6  10
ATOM     10  C   UNL     1      44.016   2.801  11.090  0.00  0.00    +0.000 C 
ATOM     11  N   UNL     1      44.476   2.263   9.909  0.00  0.00    +0.000 N 
ATOM     12  O   UNL     1      42.947   2.427  11.561  0.00  0.00    +0.000 OA
ATOM     13  H   UNL     1      45.346   2.591   9.508  0.00  0.00    +0.000 HD
ATOM     14  H   UNL     1      43.909   1.580   9.431  0.00  0.00    +0.000 HD
ENDBRANCH   6  10
BRANCH   1  15
ATOM     15  C   UNL     1      47.588   7.910  13.405  0.00  0.00    +0.000 C 
BRANCH  15  18
ATOM     16  C   UNL     1      51.364   8.522  13.217  0.00  0.00    +0.000 A 
ATOM     17  C   UNL     1      50.049   8.433  13.694  0.00  0.00    +0.000 A 
ATOM     18  C   UNL     1      48.992   8.020  12.863  0.00  0.00    +0.000 A 
ATOM     19  C   UNL     1      49.274   7.701  11.527  0.00  0.00    +0.000 A 
ATOM     20  C   UNL     1      50.581   7.787  11.044  0.00  0.00    +0.000 A 
ATOM     21  C   UNL     1      51.615   8.189  11.886  0.00  0.00    +0.000 A 
ATOM     22  F   UNL     1      52.850   8.244  11.367  0.00  0.00    +0.000 F 
BRANCH  16  24
ATOM     23  C   UNL     1      53.171   7.969  14.662  0.00  0.00    +0.000 C 
ATOM     24  O   UNL     1      52.268   8.943  14.154  0.00  0.00    +0.000 OA
ENDBRANCH  16  24
ENDBRANCH  15  18
ENDBRANCH   1  15
TORSDOF 4
ENDMDL
