MODEL 1
REMARK VINA RESULT:    -8.823      0.000      0.000
REMARK INTER + INTRA:         -12.018
REMARK INTER:                 -10.886
REMARK INTRA:                  -1.132
REMARK UNBOUND:                -1.132
REMARK  Name = 
REMARK  4 active torsions:
REMARK  status: ('A' for Active; 'I' for Inactive)
REMARK    1  A    between atoms: C_2  and  C_4
REMARK    2  A    between atoms: N_8  and  C_9
REMARK    3  A    between atoms: C_9  and  C_10
REMARK    4  A    between atoms: C_15  and  C_16
REMARK                            x       y       z     vdW  Elec       q    Type
REMARK                         _______ _______ _______ _____ _____    ______ ____
ROOT
ATOM      1  C   UNL     1      43.954   4.867  11.476  0.00  0.00    +0.000 C 
ATOM      2  C   UNL     1      42.551   4.961  12.060  0.00  0.00    +0.000 C 
ATOM      3  C   UNL     1      42.980   5.930  11.012  0.00  0.00    +0.000 C 
ENDROOT
BRANCH   1   8
ATOM      4  C   UNL     1      46.598   2.806   7.444  0.00  0.00    +0.000 A 
ATOM      5  C   UNL     1      46.394   4.144   7.768  0.00  0.00    +0.000 A 
ATOM      6  C   UNL     1      45.599   4.464   8.875  0.00  0.00    +0.000 A 
ATOM      7  C   UNL     1      45.054   3.444   9.647  0.00  0.00    +0.000 A 
ATOM      8  N   UNL     1      44.194   3.641  10.718  0.00  0.00    +0.000 N 
ATOM      9  N   UNL     1      45.272   2.145   9.353  0.00  0.00    +0.000 NA
ATOM     10  C   UNL     1      46.015   1.851   8.258  0.00  0.00    +0.000 A 
ATOM     11  H   UNL     1      44.049   2.745  11.173  0.00  0.00    +0.000 HD
BRANCH   4  13
ATOM     12  N   UNL     1      47.179   3.053   5.093  0.00  0.00    +0.000 N 
ATOM     13  C   UNL     1      47.352   2.351   6.259  0.00  0.00    +0.000 C 
ATOM     14  O   UNL     1      48.128   1.408   6.315  0.00  0.00    +0.000 OA
ATOM     15  H   UNL     1      47.783   2.795   4.325  0.00  0.00    +0.000 HD
ATOM     16  H   UNL     1      46.757   3.970   5.068  0.00  0.00    +0.000 HD
ENDBRANCH   4  13
ENDBRANCH   1   8
BRANCH   1  17
ATOM     17  C   UNL     1      45.153   5.298  12.311  0.00  0.00    +0.000 A 
ATOM     18  C   UNL     1      45.740   4.453  13.264  0.00  0.00    +0.000 A 
ATOM     19  C   UNL     1      46.935   4.805  13.890  0.00  0.00    +0.000 A 
ATOM     20  C   UNL     1      47.566   6.006  13.568  0.00  0.00    +0.000 A 
ATOM     21  F   UNL     1      48.740   6.271  14.163  0.00  0.00    +0.000 F 
ATOM     22  C   UNL     1      47.015   6.904  12.646  0.00  0.00    +0.000 A 
ATOM     23  C   UNL     1      45.792   6.529  12.056  0.00  0.00    +0.000 A 
BRANCH  22  24
ATOM     24  C   UNL     1      47.686   8.161  12.242  0.00  0.00    +0.000 A 
ATOM     25  C   UNL     1      48.996   8.190  11.741  0.00  0.00    +0.000 A 
ATOM     26  C   UNL     1      49.578   9.390  11.331  0.00  0.00    +0.000 A 
ATOM     27  C   UNL     1      48.829  10.548  11.416  0.00  0.00    +0.000 A 
ATOM     28  N   UNL     1      47.565  10.584  11.881  0.00  0.00    +0.000 NA
ATOM     29  C   UNL     1      47.037   9.401  12.287  0.00  0.00    +0.000 A 
ENDBRANCH  22  24
ENDBRANCH   1  17
TORSDOF 4
ENDMDL
MODEL 2
REMARK VINA RESULT:    -8.561      2.098      3.871
REMARK INTER + INTRA:         -11.695
REMARK INTER:                 -10.665
REMARK INTRA:                  -1.030
REMARK UNBOUND:                -1.132
REMARK  Name = 
REMARK  4 active torsions:
REMARK  status: ('A' for Active; 'I' for Inactive)
REMARK    1  A    between atoms: C_2  and  C_4
REMARK    2  A    between atoms: N_8  and  C_9
REMARK    3  A    between atoms: C_9  and  C_10
REMARK    4  A    between atoms: C_15  and  C_16
REMARK                            x       y       z     vdW  Elec       q    Type
REMARK                         _______ _______ _______ _____ _____    ______ ____
ROOT
ATOM      1  C   UNL     1      44.110   4.913  11.555  0.00  0.00    +0.000 C 
ATOM      2  C   UNL     1      42.762   5.028  12.255  0.00  0.00    +0.000 C 
ATOM      3  C   UNL     1      43.116   5.990  11.172  0.00  0.00    +0.000 C 
ENDROOT
BRANCH   1   8
ATOM      4  C   UNL     1      46.536   2.754   7.438  0.00  0.00    +0.000 A 
ATOM      5  C   UNL     1      46.408   4.099   7.776  0.00  0.00    +0.000 A 
ATOM      6  C   UNL     1      45.660   4.450   8.907  0.00  0.00    +0.000 A 
ATOM      7  C   UNL     1      45.086   3.452   9.687  0.00  0.00    +0.000 A 
ATOM      8  N   UNL     1      44.267   3.683  10.783  0.00  0.00    +0.000 N 
ATOM      9  N   UNL     1      45.232   2.146   9.379  0.00  0.00    +0.000 NA
ATOM     10  C   UNL     1      45.929   1.824   8.262  0.00  0.00    +0.000 A 
ATOM     11  H   UNL     1      44.090   2.791  11.236  0.00  0.00    +0.000 HD
BRANCH   4  13
ATOM     12  N   UNL     1      47.135   3.038   5.097  0.00  0.00    +0.000 N 
ATOM     13  C   UNL     1      47.234   2.272   6.230  0.00  0.00    +0.000 C 
ATOM     14  O   UNL     1      47.903   1.249   6.241  0.00  0.00    +0.000 OA
ATOM     15  H   UNL     1      47.707   2.749   4.314  0.00  0.00    +0.000 HD
ATOM     16  H   UNL     1      46.816   3.996   5.113  0.00  0.00    +0.000 HD
ENDBRANCH   4  13
ENDBRANCH   1   8
BRANCH   1  17
ATOM     17  C   UNL     1      45.380   5.327  12.286  0.00  0.00    +0.000 A 
ATOM     18  C   UNL     1      46.078   6.500  11.963  0.00  0.00    +0.000 A 
ATOM     19  C   UNL     1      47.136   6.943  12.756  0.00  0.00    +0.000 A 
ATOM     20  C   UNL     1      47.509   6.223  13.889  0.00  0.00    +0.000 A 
ATOM     21  F   UNL     1      48.500   6.721  14.645  0.00  0.00    +0.000 F 
ATOM     22  C   UNL     1      46.870   5.030  14.249  0.00  0.00    +0.000 A 
ATOM     23  C   UNL     1      45.826   4.598  13.407  0.00  0.00    +0.000 A 
BRANCH  22  24
ATOM     24  C   UNL     1      47.205   4.271  15.475  0.00  0.00    +0.000 A 
ATOM     25  C   UNL     1      47.968   3.094  15.448  0.00  0.00    +0.000 A 
ATOM     26  C   UNL     1      48.299   2.430  16.631  0.00  0.00    +0.000 A 
ATOM     27  C   UNL     1      47.871   2.967  17.830  0.00  0.00    +0.000 A 
ATOM     28  N   UNL     1      47.143   4.097  17.921  0.00  0.00    +0.000 NA
ATOM     29  C   UNL     1      46.824   4.706  16.750  0.00  0.00    +0.000 A 
ENDBRANCH  22  24
ENDBRANCH   1  17
TORSDOF 4
ENDMDL
MODEL 3
REMARK VINA RESULT:    -7.205      3.822      7.500
REMARK INTER + INTRA:         -10.022
REMARK INTER:                  -9.906
REMARK INTRA:                  -0.116
REMARK UNBOUND:                -1.132
REMARK  Name = 
REMARK  4 active torsions:
REMARK  status: ('A' for Active; 'I' for Inactive)
REMARK    1  A    between atoms: C_2  and  C_4
REMARK    2  A    between atoms: N_8  and  C_9
REMARK    3  A    between atoms: C_9  and  C_10
REMARK    4  A    between atoms: C_15  and  C_16
REMARK                            x       y       z     vdW  Elec       q    Type
REMARK                         _______ _______ _______ _____ _____    ______ ____
ROOT
ATOM      1  C   UNL     1      48.499   7.712  12.752  0.00  0.00    +0.000 C 
ATOM      2  C   UNL     1      49.584   7.276  11.777  0.00  0.00    +0.000 C 
ATOM      3  C   UNL     1      49.265   8.724  11.926  0.00  0.00    +0.000 C 
ENDROOT
BRANCH   1   8
ATOM      4  C   UNL     1      47.869   4.280  16.666  0.00  0.00    +0.000 A 
ATOM      5  C   UNL     1      47.185   4.369  15.457  0.00  0.00    +0.000 A 
ATOM      6  C   UNL     1      47.489   5.414  14.576  0.00  0.00    +0.000 A 
ATOM      7  C   UNL     1      48.487   6.324  14.908  0.00  0.00    +0.000 A 
ATOM      8  N   UNL     1      48.821   7.437  14.150  0.00  0.00    +0.000 N 
ATOM      9  N   UNL     1      49.172   6.225  16.066  0.00  0.00    +0.000 NA
ATOM     10  C   UNL     1      48.842   5.229  16.925  0.00  0.00    +0.000 A 
ATOM     11  H   UNL     1      49.654   7.853  14.555  0.00  0.00    +0.000 HD
BRANCH   4  13
ATOM     12  N   UNL     1      48.403   3.242  18.801  0.00  0.00    +0.000 N 
ATOM     13  C   UNL     1      47.582   3.270  17.703  0.00  0.00    +0.000 C 
ATOM     14  O   UNL     1      46.630   2.509  17.611  0.00  0.00    +0.000 OA
ATOM     15  H   UNL     1      48.125   2.619  19.548  0.00  0.00    +0.000 HD
ATOM     16  H   UNL     1      49.027   4.001  19.034  0.00  0.00    +0.000 HD
ENDBRANCH   4  13
ENDBRANCH   1   8
BRANCH   1  17
ATOM     17  C   UNL     1      47.034   7.464  12.416  0.00  0.00    +0.000 A 
ATOM     18  C   UNL     1      46.034   8.406  12.697  0.00  0.00    +0.000 A 
ATOM     19  C   UNL     1      44.733   8.228  12.226  0.00  0.00    +0.000 A 
ATOM     20  C   UNL     1      44.413   7.108  11.461  0.00  0.00    +0.000 A 
ATOM     21  F   UNL     1      43.160   7.012  10.991  0.00  0.00    +0.000 F 
ATOM     22  C   UNL     1      45.361   6.118  11.171  0.00  0.00    +0.000 A 
ATOM     23  C   UNL     1      46.656   6.316  11.688  0.00  0.00    +0.000 A 
BRANCH  22  24
ATOM     24  C   UNL     1      45.068   4.944  10.317  0.00  0.00    +0.000 A 
ATOM     25  C   UNL     1      45.586   4.806   9.021  0.00  0.00    +0.000 A 
ATOM     26  C   UNL     1      45.321   3.664   8.263  0.00  0.00    +0.000 A 
ATOM     27  C   UNL     1      44.548   2.665   8.825  0.00  0.00    +0.000 A 
ATOM     28  N   UNL     1      44.029   2.737  10.066  0.00  0.00    +0.000 NA
ATOM     29  C   UNL     1      44.292   3.869  10.767  0.00  0.00    +0.000 A 
ENDBRANCH  22  24
ENDBRANCH   1  17
TORSDOF 4
ENDMDL
MODEL 4
REMARK VINA RESULT:    -6.738      4.437      8.366
REMARK INTER + INTRA:          -9.445
REMARK INTER:                  -8.439
REMARK INTRA:                  -1.006
REMARK UNBOUND:                -1.132
REMARK  Name = 
REMARK  4 active torsions:
REMARK  status: ('A' for Active; 'I' for Inactive)
REMARK    1  A    between atoms: C_2  and  C_4
REMARK    2  A    between atoms: N_8  and  C_9
REMARK    3  A    between atoms: C_9  and  C_10
REMARK    4  A    between atoms: C_15  and  C_16
REMARK                            x       y       z     vdW  Elec       q    Type
REMARK                         _______ _______ _______ _____ _____    ______ ____
ROOT
ATOM      1  C   UNL     1      48.993   7.797  12.572  0.00  0.00    +0.000 C 
ATOM      2  C   UNL     1      49.951   7.840  11.390  0.00  0.00    +0.000 C 
ATOM      3  C   UNL     1      49.659   9.089  12.148  0.00  0.00    +0.000 C 
ENDROOT
BRANCH   1   8
ATOM      4  C   UNL     1      48.967   7.331  17.795  0.00  0.00    +0.000 A 
ATOM      5  C   UNL     1      48.585   8.414  17.008  0.00  0.00    +0.000 A 
ATOM      6  C   UNL     1      48.731   8.332  15.617  0.00  0.00    +0.000 A 
ATOM      7  C   UNL     1      49.224   7.164  15.047  0.00  0.00    +0.000 A 
ATOM      8  N   UNL     1      49.479   6.996  13.693  0.00  0.00    +0.000 N 
ATOM      9  N   UNL     1      49.569   6.101  15.804  0.00  0.00    +0.000 NA
ATOM     10  C   UNL     1      49.455   6.208  17.150  0.00  0.00    +0.000 A 
ATOM     11  H   UNL     1      49.712   6.020  13.537  0.00  0.00    +0.000 HD
BRANCH   4  13
ATOM     12  N   UNL     1      47.906   8.013  19.876  0.00  0.00    +0.000 N 
ATOM     13  C   UNL     1      48.931   7.332  19.271  0.00  0.00    +0.000 C 
ATOM     14  O   UNL     1      49.759   6.723  19.933  0.00  0.00    +0.000 OA
ATOM     15  H   UNL     1      47.837   7.911  20.880  0.00  0.00    +0.000 HD
ATOM     16  H   UNL     1      47.077   8.305  19.378  0.00  0.00    +0.000 HD
ENDBRANCH   4  13
ENDBRANCH   1   8
BRANCH   1  17
ATOM     17  C   UNL     1      47.497   7.640  12.329  0.00  0.00    +0.000 A 
ATOM     18  C   UNL     1      46.584   8.668  12.605  0.00  0.00    +0.000 A 
ATOM     19  C   UNL     1      45.250   8.561  12.215  0.00  0.00    +0.000 A 
ATOM     20  C   UNL     1      44.808   7.427  11.536  0.00  0.00    +0.000 A 
ATOM     21  F   UNL     1      43.526   7.399  11.140  0.00  0.00    +0.000 F 
ATOM     22  C   UNL     1      45.664   6.355  11.256  0.00  0.00    +0.000 A 
ATOM     23  C   UNL     1      46.998   6.485  11.691  0.00  0.00    +0.000 A 
BRANCH  22  24
ATOM     24  C   UNL     1      45.240   5.161  10.490  0.00  0.00    +0.000 A 
ATOM     25  C   UNL     1      45.587   4.965   9.145  0.00  0.00    +0.000 A 
ATOM     26  C   UNL     1      45.204   3.805   8.470  0.00  0.00    +0.000 A 
ATOM     27  C   UNL     1      44.488   2.846   9.161  0.00  0.00    +0.000 A 
ATOM     28  N   UNL     1      44.131   2.974  10.454  0.00  0.00    +0.000 NA
ATOM     29  C   UNL     1      44.505   4.122  11.074  0.00  0.00    +0.000 A 
ENDBRANCH  22  24
ENDBRANCH   1  17
TORSDOF 4
ENDMDL
MODEL 5
REMARK VINA RESULT:    -6.541      5.624      8.402
REMARK INTER + INTRA:          -9.202
REMARK INTER:                  -8.369
REMARK INTRA:                  -0.833
REMARK UNBOUND:                -1.132
REMARK  Name = 
REMARK  4 active torsions:
REMARK  status: ('A' for Active; 'I' for Inactive)
REMARK    1  A    between atoms: C_2  and  C_4
REMARK    2  A    between atoms: N_8  and  C_9
REMARK    3  A    between atoms: C_9  and  C_10
REMARK    4  A    between atoms: C_15  and  C_16
REMARK                            x       y       z     vdW  Elec       q    Type
REMARK                         _______ _______ _______ _____ _____    ______ ____
ROOT
ATOM      1  C   UNL     1      48.680   5.731  17.513  0.00  0.00    +0.000 C 
ATOM      2  C   UNL     1      47.900   6.486  18.581  0.00  0.00    +0.000 C 
ATOM      3  C   UNL     1      47.437   5.139  18.144  0.00  0.00    +0.000 C 
ENDROOT
BRANCH   1   8
ATOM      4  C   UNL     1      52.160   1.809  17.587  0.00  0.00    +0.000 A 
ATOM      5  C   UNL     1      50.794   1.767  17.318  0.00  0.00    +0.000 A 
ATOM      6  C   UNL     1      50.044   2.945  17.411  0.00  0.00    +0.000 A 
ATOM      7  C   UNL     1      50.678   4.139  17.738  0.00  0.00    +0.000 A 
ATOM      8  N   UNL     1      50.027   5.350  17.930  0.00  0.00    +0.000 N 
ATOM      9  N   UNL     1      52.006   4.190  17.971  0.00  0.00    +0.000 NA
ATOM     10  C   UNL     1      52.713   3.034  17.912  0.00  0.00    +0.000 A 
ATOM     11  H   UNL     1      50.733   6.071  18.036  0.00  0.00    +0.000 HD
BRANCH   4  13
ATOM     12  N   UNL     1      52.669  -0.426  18.404  0.00  0.00    +0.000 N 
ATOM     13  C   UNL     1      53.035   0.620  17.595  0.00  0.00    +0.000 C 
ATOM     14  O   UNL     1      54.028   0.549  16.887  0.00  0.00    +0.000 OA
ATOM     15  H   UNL     1      53.219  -1.270  18.314  0.00  0.00    +0.000 HD
ATOM     16  H   UNL     1      51.744  -0.511  18.799  0.00  0.00    +0.000 HD
ENDBRANCH   4  13
ENDBRANCH   1   8
BRANCH   1  17
ATOM     17  C   UNL     1      48.608   6.184  16.061  0.00  0.00    +0.000 A 
ATOM     18  C   UNL     1      49.588   7.008  15.487  0.00  0.00    +0.000 A 
ATOM     19  C   UNL     1      49.590   7.267  14.117  0.00  0.00    +0.000 A 
ATOM     20  C   UNL     1      48.617   6.700  13.297  0.00  0.00    +0.000 A 
ATOM     21  F   UNL     1      48.696   6.941  11.979  0.00  0.00    +0.000 F 
ATOM     22  C   UNL     1      47.596   5.892  13.813  0.00  0.00    +0.000 A 
ATOM     23  C   UNL     1      47.608   5.677  15.205  0.00  0.00    +0.000 A 
BRANCH  22  24
ATOM     24  C   UNL     1      46.579   5.231  12.963  0.00  0.00    +0.000 A 
ATOM     25  C   UNL     1      46.019   5.852  11.837  0.00  0.00    +0.000 A 
ATOM     26  C   UNL     1      45.095   5.180  11.036  0.00  0.00    +0.000 A 
ATOM     27  C   UNL     1      44.755   3.882  11.370  0.00  0.00    +0.000 A 
ATOM     28  N   UNL     1      45.263   3.231  12.434  0.00  0.00    +0.000 NA
ATOM     29  C   UNL     1      46.146   3.921  13.200  0.00  0.00    +0.000 A 
ENDBRANCH  22  24
ENDBRANCH   1  17
TORSDOF 4
ENDMDL
MODEL 6
REMARK VINA RESULT:    -6.435      3.698      6.490
REMARK INTER + INTRA:          -9.071
REMARK INTER:                  -8.078
REMARK INTRA:                  -0.993
REMARK UNBOUND:                -1.132
REMARK  Name = 
REMARK  4 active torsions:
REMARK  status: ('A' for Active; 'I' for Inactive)
REMARK    1  A    between atoms: C_2  and  C_4
REMARK    2  A    between atoms: N_8  and  C_9
REMARK    3  A    between atoms: C_9  and  C_10
REMARK    4  A    between atoms: C_15  and  C_16
REMARK                            x       y       z     vdW  Elec       q    Type
REMARK                         _______ _______ _______ _____ _____    ______ ____
ROOT
ATOM      1  C   UNL     1      49.004   8.083  12.609  0.00  0.00    +0.000 C 
ATOM      2  C   UNL     1      50.087   8.880  11.894  0.00  0.00    +0.000 C 
ATOM      3  C   UNL     1      50.085   7.393  11.803  0.00  0.00    +0.000 C 
ENDROOT
BRANCH   1   8
ATOM      4  C   UNL     1      44.341   5.855  11.721  0.00  0.00    +0.000 A 
ATOM      5  C   UNL     1      45.558   5.253  12.029  0.00  0.00    +0.000 A 
ATOM      6  C   UNL     1      46.699   6.053  12.172  0.00  0.00    +0.000 A 
ATOM      7  C   UNL     1      46.591   7.433  12.034  0.00  0.00    +0.000 A 
ATOM      8  N   UNL     1      47.662   8.315  12.081  0.00  0.00    +0.000 N 
ATOM      9  N   UNL     1      45.408   8.023  11.763  0.00  0.00    +0.000 NA
ATOM     10  C   UNL     1      44.320   7.233  11.593  0.00  0.00    +0.000 A 
ATOM     11  H   UNL     1      47.290   9.259  12.076  0.00  0.00    +0.000 HD
BRANCH   4  13
ATOM     12  N   UNL     1      41.910   5.746  11.751  0.00  0.00    +0.000 N 
ATOM     13  C   UNL     1      43.092   5.109  11.472  0.00  0.00    +0.000 C 
ATOM     14  O   UNL     1      43.102   3.980  11.003  0.00  0.00    +0.000 OA
ATOM     15  H   UNL     1      41.068   5.261  11.472  0.00  0.00    +0.000 HD
ATOM     16  H   UNL     1      41.850   6.744  11.891  0.00  0.00    +0.000 HD
ENDBRANCH   4  13
ENDBRANCH   1   8
BRANCH   1  17
ATOM     17  C   UNL     1      49.037   7.953  14.126  0.00  0.00    +0.000 A 
ATOM     18  C   UNL     1      49.093   9.071  14.970  0.00  0.00    +0.000 A 
ATOM     19  C   UNL     1      48.949   8.932  16.350  0.00  0.00    +0.000 A 
ATOM     20  C   UNL     1      48.740   7.672  16.908  0.00  0.00    +0.000 A 
ATOM     21  F   UNL     1      48.557   7.601  18.236  0.00  0.00    +0.000 F 
ATOM     22  C   UNL     1      48.702   6.514  16.121  0.00  0.00    +0.000 A 
ATOM     23  C   UNL     1      48.881   6.690  14.734  0.00  0.00    +0.000 A 
BRANCH  22  24
ATOM     24  C   UNL     1      48.428   5.168  16.675  0.00  0.00    +0.000 A 
ATOM     25  C   UNL     1      49.376   4.452  17.418  0.00  0.00    +0.000 A 
ATOM     26  C   UNL     1      49.065   3.204  17.960  0.00  0.00    +0.000 A 
ATOM     27  C   UNL     1      47.795   2.697  17.760  0.00  0.00    +0.000 A 
ATOM     28  N   UNL     1      46.839   3.340  17.062  0.00  0.00    +0.000 NA
ATOM     29  C   UNL     1      47.183   4.543  16.534  0.00  0.00    +0.000 A 
ENDBRANCH  22  24
ENDBRANCH   1  17
TORSDOF 4
ENDMDL
MODEL 7
REMARK VINA RESULT:    -6.049      4.229      6.446
REMARK INTER + INTRA:          -8.595
REMARK INTER:                  -8.243
REMARK INTRA:                  -0.352
REMARK UNBOUND:                -1.132
REMARK  Name = 
REMARK  4 active torsions:
REMARK  status: ('A' for Active; 'I' for Inactive)
REMARK    1  A    between atoms: C_2  and  C_4
REMARK    2  A    between atoms: N_8  and  C_9
REMARK    3  A    between atoms: C_9  and  C_10
REMARK    4  A    between atoms: C_15  and  C_16
REMARK                            x       y       z     vdW  Elec       q    Type
REMARK                         _______ _______ _______ _____ _____    ______ ____
ROOT
ATOM      1  C   UNL     1      45.826   4.383  12.807  0.00  0.00    +0.000 C 
ATOM      2  C   UNL     1      44.385   4.010  13.128  0.00  0.00    +0.000 C 
ATOM      3  C   UNL     1      44.916   3.788  11.753  0.00  0.00    +0.000 C 
ENDROOT
BRANCH   1   8
ATOM      4  C   UNL     1      48.308   3.818  17.392  0.00  0.00    +0.000 A 
ATOM      5  C   UNL     1      47.563   4.897  16.923  0.00  0.00    +0.000 A 
ATOM      6  C   UNL     1      47.031   4.848  15.629  0.00  0.00    +0.000 A 
ATOM      7  C   UNL     1      47.229   3.714  14.848  0.00  0.00    +0.000 A 
ATOM      8  N   UNL     1      46.813   3.584  13.530  0.00  0.00    +0.000 N 
ATOM      9  N   UNL     1      47.926   2.655  15.309  0.00  0.00    +0.000 NA
ATOM     10  C   UNL     1      48.465   2.732  16.551  0.00  0.00    +0.000 A 
ATOM     11  H   UNL     1      46.974   2.623  13.245  0.00  0.00    +0.000 HD
BRANCH   4  13
ATOM     12  N   UNL     1      48.347   3.122  19.724  0.00  0.00    +0.000 N 
ATOM     13  C   UNL     1      48.980   3.790  18.706  0.00  0.00    +0.000 C 
ATOM     14  O   UNL     1      50.073   4.309  18.879  0.00  0.00    +0.000 OA
ATOM     15  H   UNL     1      48.872   3.021  20.582  0.00  0.00    +0.000 HD
ATOM     16  H   UNL     1      47.588   2.477  19.562  0.00  0.00    +0.000 HD
ENDBRANCH   4  13
ENDBRANCH   1   8
BRANCH   1  17
ATOM     17  C   UNL     1      46.219   5.849  12.682  0.00  0.00    +0.000 A 
ATOM     18  C   UNL     1      45.295   6.887  12.863  0.00  0.00    +0.000 A 
ATOM     19  C   UNL     1      45.714   8.216  12.912  0.00  0.00    +0.000 A 
ATOM     20  C   UNL     1      47.067   8.528  12.787  0.00  0.00    +0.000 A 
ATOM     21  F   UNL     1      47.421   9.818  12.893  0.00  0.00    +0.000 F 
ATOM     22  C   UNL     1      48.035   7.538  12.576  0.00  0.00    +0.000 A 
ATOM     23  C   UNL     1      47.571   6.210  12.502  0.00  0.00    +0.000 A 
BRANCH  22  24
ATOM     24  C   UNL     1      49.484   7.829  12.493  0.00  0.00    +0.000 A 
ATOM     25  C   UNL     1      50.183   7.839  11.277  0.00  0.00    +0.000 A 
ATOM     26  C   UNL     1      51.541   8.161  11.236  0.00  0.00    +0.000 A 
ATOM     27  C   UNL     1      52.178   8.484  12.419  0.00  0.00    +0.000 A 
ATOM     28  N   UNL     1      51.560   8.499  13.616  0.00  0.00    +0.000 NA
ATOM     29  C   UNL     1      50.244   8.164  13.621  0.00  0.00    +0.000 A 
ENDBRANCH  22  24
ENDBRANCH   1  17
TORSDOF 4
ENDMDL
MODEL 8
REMARK VINA RESULT:    -5.982      3.867      6.105
REMARK INTER + INTRA:          -8.513
REMARK INTER:                  -7.808
REMARK INTRA:                  -0.705
REMARK UNBOUND:                -1.132
REMARK  Name = 
REMARK  4 active torsions:
REMARK  status: ('A' for Active; 'I' for Inactive)
REMARK    1  A    between atoms: C_2  and  C_4
REMARK    2  A    between atoms: N_8  and  C_9
REMARK    3  A    between atoms: C_9  and  C_10
REMARK    4  A    between atoms: C_15  and  C_16
REMARK                            x       y       z     vdW  Elec       q    Type
REMARK                         _______ _______ _______ _____ _____    ______ ____
ROOT
ATOM      1  C   UNL     1      47.916   8.360  13.333  0.00  0.00    +0.000 C 
ATOM      2  C   UNL     1      47.749   9.869  13.217  0.00  0.00    +0.000 C 
ATOM      3  C   UNL     1      48.267   9.093  12.055  0.00  0.00    +0.000 C 
ENDROOT
BRANCH   1   8
ATOM      4  C   UNL     1      44.713   4.819  11.165  0.00  0.00    +0.000 A 
ATOM      5  C   UNL     1      45.780   5.506  10.591  0.00  0.00    +0.000 A 
ATOM      6  C   UNL     1      46.468   6.457  11.355  0.00  0.00    +0.000 A 
ATOM      7  C   UNL     1      46.096   6.676  12.677  0.00  0.00    +0.000 A 
ATOM      8  N   UNL     1      46.656   7.642  13.502  0.00  0.00    +0.000 N 
ATOM      9  N   UNL     1      45.081   5.992  13.245  0.00  0.00    +0.000 NA
ATOM     10  C   UNL     1      44.402   5.100  12.483  0.00  0.00    +0.000 A 
ATOM     11  H   UNL     1      46.289   7.503  14.439  0.00  0.00    +0.000 HD
BRANCH   4  13
ATOM     12  N   UNL     1      44.052   3.753   9.080  0.00  0.00    +0.000 N 
ATOM     13  C   UNL     1      43.868   3.853  10.436  0.00  0.00    +0.000 C 
ATOM     14  O   UNL     1      43.060   3.143  11.015  0.00  0.00    +0.000 OA
ATOM     15  H   UNL     1      43.543   3.011   8.617  0.00  0.00    +0.000 HD
ATOM     16  H   UNL     1      44.865   4.124   8.611  0.00  0.00    +0.000 HD
ENDBRANCH   4  13
ENDBRANCH   1   8
BRANCH   1  17
ATOM     17  C   UNL     1      49.050   7.786  14.173  0.00  0.00    +0.000 A 
ATOM     18  C   UNL     1      50.387   8.159  13.976  0.00  0.00    +0.000 A 
ATOM     19  C   UNL     1      51.380   7.752  14.866  0.00  0.00    +0.000 A 
ATOM     20  C   UNL     1      51.051   6.970  15.972  0.00  0.00    +0.000 A 
ATOM     21  F   UNL     1      52.037   6.649  16.824  0.00  0.00    +0.000 F 
ATOM     22  C   UNL     1      49.738   6.543  16.208  0.00  0.00    +0.000 A 
ATOM     23  C   UNL     1      48.767   6.948  15.271  0.00  0.00    +0.000 A 
BRANCH  22  24
ATOM     24  C   UNL     1      49.345   5.758  17.401  0.00  0.00    +0.000 A 
ATOM     25  C   UNL     1      49.130   4.373  17.355  0.00  0.00    +0.000 A 
ATOM     26  C   UNL     1      48.803   3.662  18.511  0.00  0.00    +0.000 A 
ATOM     27  C   UNL     1      48.710   4.352  19.705  0.00  0.00    +0.000 A 
ATOM     28  N   UNL     1      48.912   5.679  19.814  0.00  0.00    +0.000 NA
ATOM     29  C   UNL     1      49.211   6.341  18.667  0.00  0.00    +0.000 A 
ENDBRANCH  22  24
ENDBRANCH   1  17
TORSDOF 4
ENDMDL
