MODEL 1
REMARK VINA RESULT:    -8.556      0.000      0.000
REMARK INTER + INTRA:         -10.219
REMARK INTER:                 -10.057
REMARK INTRA:                  -0.162
REMARK UNBOUND:                -0.162
REMARK  Name = 
REMARK  3 active torsions:
REMARK  status: ('A' for Active; 'I' for Inactive)
REMARK    1  A    between atoms: C_2  and  C_4
REMARK    2  A    between atoms: N_8  and  C_9
REMARK    3  A    between atoms: C_9  and  C_10
REMARK                            x       y       z     vdW  Elec       q    Type
REMARK                         _______ _______ _______ _____ _____    ______ ____
ROOT
ATOM      1  C   UNL     1      46.366   2.113   7.886  0.00  0.00    +0.000 A 
ATOM      2  C   UNL     1      46.437   3.422   7.419  0.00  0.00    +0.000 A 
ATOM      3  C   UNL     1      45.678   4.408   8.053  0.00  0.00    +0.000 A 
ATOM      4  C   UNL     1      44.894   4.082   9.164  0.00  0.00    +0.000 A 
ATOM      5  N   UNL     1      44.155   5.126   9.755  0.00  0.00    +0.000 N 
ATOM      6  N   UNL     1      44.822   2.815   9.616  0.00  0.00    +0.000 NA
ATOM      7  C   UNL     1      45.539   1.860   8.970  0.00  0.00    +0.000 A 
ATOM      8  H   UNL     1      43.423   5.412   9.113  0.00  0.00    +0.000 HD
ENDROOT
BRANCH   1  10
ATOM      9  N   UNL     1      46.740  -0.279   7.646  0.00  0.00    +0.000 N 
ATOM     10  C   UNL     1      47.088   0.986   7.260  0.00  0.00    +0.000 C 
ATOM     11  O   UNL     1      47.950   1.173   6.414  0.00  0.00    +0.000 OA
ATOM     12  H   UNL     1      47.187  -1.037   7.144  0.00  0.00    +0.000 HD
ATOM     13  H   UNL     1      45.880  -0.487   8.134  0.00  0.00    +0.000 HD
ENDBRANCH   1  10
BRANCH   5  14
ATOM     14  C   UNL     1      43.796   5.209  11.185  0.00  0.00    +0.000 C 
ATOM     15  C   UNL     1      42.751   4.299  11.808  0.00  0.00    +0.000 C 
ATOM     16  C   UNL     1      42.462   5.760  11.643  0.00  0.00    +0.000 C 
BRANCH  14  17
ATOM     17  C   UNL     1      45.024   5.517  12.047  0.00  0.00    +0.000 A 
ATOM     18  C   UNL     1      45.646   4.525  12.831  0.00  0.00    +0.000 A 
ATOM     19  C   UNL     1      46.783   4.812  13.595  0.00  0.00    +0.000 A 
ATOM     20  C   UNL     1      47.308   6.097  13.582  0.00  0.00    +0.000 A 
ATOM     21  F   UNL     1      48.411   6.369  14.293  0.00  0.00    +0.000 F 
ATOM     22  C   UNL     1      46.710   7.105  12.838  0.00  0.00    +0.000 A 
ATOM     23  C   UNL     1      45.570   6.817  12.088  0.00  0.00    +0.000 A 
ENDBRANCH  14  17
ENDBRANCH   5  14
TORSDOF 3
ENDMDL
MODEL 2
REMARK VINA RESULT:    -7.422      3.876      6.628
REMARK INTER + INTRA:          -8.886
REMARK INTER:                  -8.768
REMARK INTRA:                  -0.118
REMARK UNBOUND:                -0.162
REMARK  Name = 
REMARK  3 active torsions:
REMARK  status: ('A' for Active; 'I' for Inactive)
REMARK    1  A    between atoms: C_2  and  C_4
REMARK    2  A    between atoms: N_8  and  C_9
REMARK    3  A    between atoms: C_9  and  C_10
REMARK                            x       y       z     vdW  Elec       q    Type
REMARK                         _______ _______ _______ _____ _____    ______ ____
ROOT
ATOM      1  C   UNL     1      46.837   8.106  13.064  0.00  0.00    +0.000 A 
ATOM      2  C   UNL     1      45.598   8.515  12.582  0.00  0.00    +0.000 A 
ATOM      3  C   UNL     1      44.877   7.653  11.754  0.00  0.00    +0.000 A 
ATOM      4  C   UNL     1      45.384   6.385  11.453  0.00  0.00    +0.000 A 
ATOM      5  N   UNL     1      44.603   5.567  10.612  0.00  0.00    +0.000 N 
ATOM      6  N   UNL     1      46.584   5.988  11.917  0.00  0.00    +0.000 NA
ATOM      7  C   UNL     1      47.290   6.849  12.694  0.00  0.00    +0.000 A 
ATOM      8  H   UNL     1      44.596   5.969   9.680  0.00  0.00    +0.000 HD
ENDROOT
BRANCH   1  10
ATOM      9  N   UNL     1      47.476   8.948  15.256  0.00  0.00    +0.000 N 
ATOM     10  C   UNL     1      47.704   8.957  13.908  0.00  0.00    +0.000 C 
ATOM     11  O   UNL     1      48.603   9.628  13.423  0.00  0.00    +0.000 OA
ATOM     12  H   UNL     1      48.134   9.472  15.822  0.00  0.00    +0.000 HD
ATOM     13  H   UNL     1      46.932   8.233  15.717  0.00  0.00    +0.000 HD
ENDBRANCH   1  10
BRANCH   5  14
ATOM     14  C   UNL     1      44.572   4.091  10.653  0.00  0.00    +0.000 C 
ATOM     15  C   UNL     1      43.374   3.325  11.188  0.00  0.00    +0.000 C 
ATOM     16  C   UNL     1      44.661   3.325  11.956  0.00  0.00    +0.000 C 
BRANCH  14  17
ATOM     17  C   UNL     1      45.268   3.489   9.429  0.00  0.00    +0.000 A 
ATOM     18  C   UNL     1      45.425   2.097   9.276  0.00  0.00    +0.000 A 
ATOM     19  C   UNL     1      46.041   1.558   8.141  0.00  0.00    +0.000 A 
ATOM     20  C   UNL     1      46.506   2.407   7.147  0.00  0.00    +0.000 A 
ATOM     21  F   UNL     1      47.074   1.892   6.048  0.00  0.00    +0.000 F 
ATOM     22  C   UNL     1      46.388   3.785   7.272  0.00  0.00    +0.000 A 
ATOM     23  C   UNL     1      45.784   4.319   8.411  0.00  0.00    +0.000 A 
ENDBRANCH  14  17
ENDBRANCH   5  14
TORSDOF 3
ENDMDL
MODEL 3
REMARK VINA RESULT:    -7.186      3.988      6.444
REMARK INTER + INTRA:          -8.608
REMARK INTER:                  -8.215
REMARK INTRA:                  -0.393
REMARK UNBOUND:                -0.162
REMARK  Name = 
REMARK  3 active torsions:
REMARK  status: ('A' for Active; 'I' for Inactive)
REMARK    1  A    between atoms: C_2  and  C_4
REMARK    2  A    between atoms: N_8  and  C_9
REMARK    3  A    between atoms: C_9  and  C_10
REMARK                            x       y       z     vdW  Elec       q    Type
REMARK                         _______ _______ _______ _____ _____    ______ ____
ROOT
ATOM      1  C   UNL     1      47.471   4.182  15.365  0.00  0.00    +0.000 A 
ATOM      2  C   UNL     1      47.415   5.533  15.037  0.00  0.00    +0.000 A 
ATOM      3  C   UNL     1      46.851   5.908  13.817  0.00  0.00    +0.000 A 
ATOM      4  C   UNL     1      46.317   4.938  12.964  0.00  0.00    +0.000 A 
ATOM      5  N   UNL     1      45.762   5.387  11.749  0.00  0.00    +0.000 N 
ATOM      6  N   UNL     1      46.372   3.629  13.279  0.00  0.00    +0.000 NA
ATOM      7  C   UNL     1      46.953   3.275  14.453  0.00  0.00    +0.000 A 
ATOM      8  H   UNL     1      46.510   5.736  11.158  0.00  0.00    +0.000 HD
ENDROOT
BRANCH   1  10
ATOM      9  N   UNL     1      47.254   3.347  17.641  0.00  0.00    +0.000 N 
ATOM     10  C   UNL     1      48.089   3.672  16.608  0.00  0.00    +0.000 C 
ATOM     11  O   UNL     1      49.298   3.524  16.703  0.00  0.00    +0.000 OA
ATOM     12  H   UNL     1      47.691   2.922  18.450  0.00  0.00    +0.000 HD
ATOM     13  H   UNL     1      46.261   3.209  17.522  0.00  0.00    +0.000 HD
ENDBRANCH   1  10
BRANCH   5  14
ATOM     14  C   UNL     1      44.652   4.733  11.027  0.00  0.00    +0.000 C 
ATOM     15  C   UNL     1      43.287   5.385  10.888  0.00  0.00    +0.000 C 
ATOM     16  C   UNL     1      43.448   4.172  11.753  0.00  0.00    +0.000 C 
BRANCH  14  17
ATOM     17  C   UNL     1      45.164   3.966   9.804  0.00  0.00    +0.000 A 
ATOM     18  C   UNL     1      45.745   4.628   8.705  0.00  0.00    +0.000 A 
ATOM     19  C   UNL     1      46.232   3.914   7.604  0.00  0.00    +0.000 A 
ATOM     20  C   UNL     1      46.141   2.530   7.593  0.00  0.00    +0.000 A 
ATOM     21  F   UNL     1      46.628   1.842   6.551  0.00  0.00    +0.000 F 
ATOM     22  C   UNL     1      45.555   1.844   8.649  0.00  0.00    +0.000 A 
ATOM     23  C   UNL     1      45.060   2.560   9.739  0.00  0.00    +0.000 A 
ENDBRANCH  14  17
ENDBRANCH   5  14
TORSDOF 3
ENDMDL
MODEL 4
REMARK VINA RESULT:    -6.983      3.976      6.399
REMARK INTER + INTRA:          -8.370
REMARK INTER:                  -7.959
REMARK INTRA:                  -0.411
REMARK UNBOUND:                -0.162
REMARK  Name = 
REMARK  3 active torsions:
REMARK  status: ('A' for Active; 'I' for Inactive)
REMARK    1  A    between atoms: C_2  and  C_4
REMARK    2  A    between atoms: N_8  and  C_9
REMARK    3  A    between atoms: C_9  and  C_10
REMARK                            x       y       z     vdW  Elec       q    Type
REMARK                         _______ _______ _______ _____ _____    ______ ____
ROOT
ATOM      1  C   UNL     1      48.063   7.232  13.933  0.00  0.00    +0.000 A 
ATOM      2  C   UNL     1      47.159   8.237  13.607  0.00  0.00    +0.000 A 
ATOM      3  C   UNL     1      46.106   7.944  12.740  0.00  0.00    +0.000 A 
ATOM      4  C   UNL     1      45.948   6.646  12.244  0.00  0.00    +0.000 A 
ATOM      5  N   UNL     1      44.862   6.420  11.374  0.00  0.00    +0.000 N 
ATOM      6  N   UNL     1      46.824   5.671  12.556  0.00  0.00    +0.000 NA
ATOM      7  C   UNL     1      47.862   5.979  13.375  0.00  0.00    +0.000 A 
ATOM      8  H   UNL     1      45.035   6.912  10.503  0.00  0.00    +0.000 HD
ENDROOT
BRANCH   1  10
ATOM      9  N   UNL     1      50.471   7.461  14.206  0.00  0.00    +0.000 N 
ATOM     10  C   UNL     1      49.240   7.446  14.803  0.00  0.00    +0.000 C 
ATOM     11  O   UNL     1      49.119   7.625  16.005  0.00  0.00    +0.000 OA
ATOM     12  H   UNL     1      51.253   7.692  14.806  0.00  0.00    +0.000 HD
ATOM     13  H   UNL     1      50.597   7.575  13.211  0.00  0.00    +0.000 HD
ENDBRANCH   1  10
BRANCH   5  14
ATOM     14  C   UNL     1      44.137   5.141  11.234  0.00  0.00    +0.000 C 
ATOM     15  C   UNL     1      42.631   5.046  11.408  0.00  0.00    +0.000 C 
ATOM     16  C   UNL     1      43.539   4.427  12.427  0.00  0.00    +0.000 C 
BRANCH  14  17
ATOM     17  C   UNL     1      44.746   4.279  10.124  0.00  0.00    +0.000 A 
ATOM     18  C   UNL     1      44.644   2.874  10.138  0.00  0.00    +0.000 A 
ATOM     19  C   UNL     1      45.182   2.098   9.105  0.00  0.00    +0.000 A 
ATOM     20  C   UNL     1      45.830   2.721   8.049  0.00  0.00    +0.000 A 
ATOM     21  F   UNL     1      46.326   1.983   7.046  0.00  0.00    +0.000 F 
ATOM     22  C   UNL     1      45.969   4.102   8.011  0.00  0.00    +0.000 A 
ATOM     23  C   UNL     1      45.441   4.871   9.049  0.00  0.00    +0.000 A 
ENDBRANCH  14  17
ENDBRANCH   5  14
TORSDOF 3
ENDMDL
MODEL 5
REMARK VINA RESULT:    -6.866      1.541      2.167
REMARK INTER + INTRA:          -8.232
REMARK INTER:                  -7.779
REMARK INTRA:                  -0.453
REMARK UNBOUND:                -0.162
REMARK  Name = 
REMARK  3 active torsions:
REMARK  status: ('A' for Active; 'I' for Inactive)
REMARK    1  A    between atoms: C_2  and  C_4
REMARK    2  A    between atoms: N_8  and  C_9
REMARK    3  A    between atoms: C_9  and  C_10
REMARK                            x       y       z     vdW  Elec       q    Type
REMARK                         _______ _______ _______ _____ _____    ______ ____
ROOT
ATOM      1  C   UNL     1      46.348   2.976   7.496  0.00  0.00    +0.000 A 
ATOM      2  C   UNL     1      45.771   1.954   8.242  0.00  0.00    +0.000 A 
ATOM      3  C   UNL     1      45.232   2.253   9.494  0.00  0.00    +0.000 A 
ATOM      4  C   UNL     1      45.241   3.570   9.964  0.00  0.00    +0.000 A 
ATOM      5  N   UNL     1      44.679   3.800  11.236  0.00  0.00    +0.000 N 
ATOM      6  N   UNL     1      45.802   4.561   9.244  0.00  0.00    +0.000 NA
ATOM      7  C   UNL     1      46.352   4.250   8.043  0.00  0.00    +0.000 A 
ATOM      8  H   UNL     1      45.272   3.369  11.938  0.00  0.00    +0.000 HD
ENDROOT
BRANCH   1  10
ATOM      9  N   UNL     1      48.328   2.477   6.171  0.00  0.00    +0.000 N 
ATOM     10  C   UNL     1      46.990   2.761   6.181  0.00  0.00    +0.000 C 
ATOM     11  O   UNL     1      46.348   2.814   5.143  0.00  0.00    +0.000 OA
ATOM     12  H   UNL     1      48.728   2.251   5.268  0.00  0.00    +0.000 HD
ATOM     13  H   UNL     1      48.831   2.174   6.993  0.00  0.00    +0.000 HD
ENDBRANCH   1  10
BRANCH   5  14
ATOM     14  C   UNL     1      44.023   5.053  11.661  0.00  0.00    +0.000 C 
ATOM     15  C   UNL     1      42.704   5.056  12.415  0.00  0.00    +0.000 C 
ATOM     16  C   UNL     1      42.755   5.554  11.002  0.00  0.00    +0.000 C 
BRANCH  14  17
ATOM     17  C   UNL     1      45.055   6.097  12.098  0.00  0.00    +0.000 A 
ATOM     18  C   UNL     1      44.932   7.454  11.741  0.00  0.00    +0.000 A 
ATOM     19  C   UNL     1      45.867   8.404  12.168  0.00  0.00    +0.000 A 
ATOM     20  C   UNL     1      46.936   8.003  12.956  0.00  0.00    +0.000 A 
ATOM     21  F   UNL     1      47.821   8.913  13.386  0.00  0.00    +0.000 F 
ATOM     22  C   UNL     1      47.102   6.670  13.311  0.00  0.00    +0.000 A 
ATOM     23  C   UNL     1      46.174   5.726  12.873  0.00  0.00    +0.000 A 
ENDBRANCH  14  17
ENDBRANCH   5  14
TORSDOF 3
ENDMDL
MODEL 6
REMARK VINA RESULT:    -5.809      3.465      5.333
REMARK INTER + INTRA:          -6.990
REMARK INTER:                  -6.527
REMARK INTRA:                  -0.463
REMARK UNBOUND:                -0.162
REMARK  Name = 
REMARK  3 active torsions:
REMARK  status: ('A' for Active; 'I' for Inactive)
REMARK    1  A    between atoms: C_2  and  C_4
REMARK    2  A    between atoms: N_8  and  C_9
REMARK    3  A    between atoms: C_9  and  C_10
REMARK                            x       y       z     vdW  Elec       q    Type
REMARK                         _______ _______ _______ _____ _____    ______ ____
ROOT
ATOM      1  C   UNL     1      44.788   4.450  11.677  0.00  0.00    +0.000 A 
ATOM      2  C   UNL     1      44.478   5.639  11.026  0.00  0.00    +0.000 A 
ATOM      3  C   UNL     1      45.209   6.788  11.333  0.00  0.00    +0.000 A 
ATOM      4  C   UNL     1      46.260   6.724  12.252  0.00  0.00    +0.000 A 
ATOM      5  N   UNL     1      46.957   7.921  12.513  0.00  0.00    +0.000 N 
ATOM      6  N   UNL     1      46.561   5.574  12.886  0.00  0.00    +0.000 NA
ATOM      7  C   UNL     1      45.821   4.472  12.602  0.00  0.00    +0.000 A 
ATOM      8  H   UNL     1      46.339   8.556  13.010  0.00  0.00    +0.000 HD
ENDROOT
BRANCH   1  10
ATOM      9  N   UNL     1      43.735   2.445  12.569  0.00  0.00    +0.000 N 
ATOM     10  C   UNL     1      44.047   3.188  11.464  0.00  0.00    +0.000 C 
ATOM     11  O   UNL     1      43.707   2.831  10.346  0.00  0.00    +0.000 OA
ATOM     12  H   UNL     1      43.156   1.629  12.408  0.00  0.00    +0.000 HD
ATOM     13  H   UNL     1      43.766   2.817  13.507  0.00  0.00    +0.000 HD
ENDBRANCH   1  10
BRANCH   5  14
ATOM     14  C   UNL     1      48.380   8.011  12.896  0.00  0.00    +0.000 C 
ATOM     15  C   UNL     1      49.375   8.849  12.111  0.00  0.00    +0.000 C 
ATOM     16  C   UNL     1      49.471   7.354  12.077  0.00  0.00    +0.000 C 
BRANCH  14  17
ATOM     17  C   UNL     1      48.543   8.018  14.419  0.00  0.00    +0.000 A 
ATOM     18  C   UNL     1      48.142   9.118  15.201  0.00  0.00    +0.000 A 
ATOM     19  C   UNL     1      48.273   9.102  16.595  0.00  0.00    +0.000 A 
ATOM     20  C   UNL     1      48.809   7.984  17.218  0.00  0.00    +0.000 A 
ATOM     21  F   UNL     1      48.913   7.956  18.554  0.00  0.00    +0.000 F 
ATOM     22  C   UNL     1      49.235   6.889  16.478  0.00  0.00    +0.000 A 
ATOM     23  C   UNL     1      49.114   6.914  15.089  0.00  0.00    +0.000 A 
ENDBRANCH  14  17
ENDBRANCH   5  14
TORSDOF 3
ENDMDL
MODEL 7
REMARK VINA RESULT:    -5.767      4.666      7.002
REMARK INTER + INTRA:          -6.941
REMARK INTER:                  -6.720
REMARK INTRA:                  -0.221
REMARK UNBOUND:                -0.162
REMARK  Name = 
REMARK  3 active torsions:
REMARK  status: ('A' for Active; 'I' for Inactive)
REMARK    1  A    between atoms: C_2  and  C_4
REMARK    2  A    between atoms: N_8  and  C_9
REMARK    3  A    between atoms: C_9  and  C_10
REMARK                            x       y       z     vdW  Elec       q    Type
REMARK                         _______ _______ _______ _____ _____    ______ ____
ROOT
ATOM      1  C   UNL     1      49.389   6.692  15.354  0.00  0.00    +0.000 A 
ATOM      2  C   UNL     1      49.848   7.432  14.268  0.00  0.00    +0.000 A 
ATOM      3  C   UNL     1      49.121   7.408  13.078  0.00  0.00    +0.000 A 
ATOM      4  C   UNL     1      47.928   6.681  13.001  0.00  0.00    +0.000 A 
ATOM      5  N   UNL     1      47.244   6.702  11.769  0.00  0.00    +0.000 N 
ATOM      6  N   UNL     1      47.483   5.963  14.049  0.00  0.00    +0.000 NA
ATOM      7  C   UNL     1      48.218   5.969  15.191  0.00  0.00    +0.000 A 
ATOM      8  H   UNL     1      47.793   6.195  11.082  0.00  0.00    +0.000 HD
ENDROOT
BRANCH   1  10
ATOM      9  N   UNL     1      51.436   6.285  16.606  0.00  0.00    +0.000 N 
ATOM     10  C   UNL     1      50.107   6.609  16.644  0.00  0.00    +0.000 C 
ATOM     11  O   UNL     1      49.543   6.840  17.702  0.00  0.00    +0.000 OA
ATOM     12  H   UNL     1      51.926   6.315  17.492  0.00  0.00    +0.000 HD
ATOM     13  H   UNL     1      51.990   6.339  15.764  0.00  0.00    +0.000 HD
ENDBRANCH   1  10
BRANCH   5  14
ATOM     14  C   UNL     1      45.781   6.584  11.607  0.00  0.00    +0.000 C 
ATOM     15  C   UNL     1      44.895   7.795  11.369  0.00  0.00    +0.000 C 
ATOM     16  C   UNL     1      44.817   7.061  12.673  0.00  0.00    +0.000 C 
BRANCH  14  17
ATOM     17  C   UNL     1      45.411   5.313  10.836  0.00  0.00    +0.000 A 
ATOM     18  C   UNL     1      44.828   4.202  11.475  0.00  0.00    +0.000 A 
ATOM     19  C   UNL     1      44.472   3.055  10.755  0.00  0.00    +0.000 A 
ATOM     20  C   UNL     1      44.697   3.011   9.387  0.00  0.00    +0.000 A 
ATOM     21  F   UNL     1      44.335   1.925   8.691  0.00  0.00    +0.000 F 
ATOM     22  C   UNL     1      45.289   4.079   8.725  0.00  0.00    +0.000 A 
ATOM     23  C   UNL     1      45.653   5.214   9.449  0.00  0.00    +0.000 A 
ENDBRANCH  14  17
ENDBRANCH   5  14
TORSDOF 3
ENDMDL
MODEL 8
REMARK VINA RESULT:    -5.696      3.725      5.719
REMARK INTER + INTRA:          -6.858
REMARK INTER:                  -6.476
REMARK INTRA:                  -0.381
REMARK UNBOUND:                -0.162
REMARK  Name = 
REMARK  3 active torsions:
REMARK  status: ('A' for Active; 'I' for Inactive)
REMARK    1  A    between atoms: C_2  and  C_4
REMARK    2  A    between atoms: N_8  and  C_9
REMARK    3  A    between atoms: C_9  and  C_10
REMARK                            x       y       z     vdW  Elec       q    Type
REMARK                         _______ _______ _______ _____ _____    ______ ____
ROOT
ATOM      1  C   UNL     1      44.943   4.660  11.386  0.00  0.00    +0.000 A 
ATOM      2  C   UNL     1      45.426   4.099  12.564  0.00  0.00    +0.000 A 
ATOM      3  C   UNL     1      46.463   4.741  13.242  0.00  0.00    +0.000 A 
ATOM      4  C   UNL     1      46.974   5.949  12.759  0.00  0.00    +0.000 A 
ATOM      5  N   UNL     1      48.019   6.543  13.494  0.00  0.00    +0.000 N 
ATOM      6  N   UNL     1      46.509   6.493  11.617  0.00  0.00    +0.000 NA
ATOM      7  C   UNL     1      45.523   5.841  10.950  0.00  0.00    +0.000 A 
ATOM      8  H   UNL     1      48.849   5.965  13.407  0.00  0.00    +0.000 HD
ENDROOT
BRANCH   1  10
ATOM      9  N   UNL     1      43.837   4.369   9.238  0.00  0.00    +0.000 N 
ATOM     10  C   UNL     1      43.882   4.039  10.564  0.00  0.00    +0.000 C 
ATOM     11  O   UNL     1      43.088   3.243  11.044  0.00  0.00    +0.000 OA
ATOM     12  H   UNL     1      43.157   3.869   8.677  0.00  0.00    +0.000 HD
ATOM     13  H   UNL     1      44.608   4.806   8.754  0.00  0.00    +0.000 HD
ENDBRANCH   1  10
BRANCH   5  14
ATOM     14  C   UNL     1      48.278   7.994  13.582  0.00  0.00    +0.000 C 
ATOM     15  C   UNL     1      48.288   8.732  14.911  0.00  0.00    +0.000 C 
ATOM     16  C   UNL     1      47.184   8.982  13.928  0.00  0.00    +0.000 C 
BRANCH  14  17
ATOM     17  C   UNL     1      49.331   8.431  12.559  0.00  0.00    +0.000 A 
ATOM     18  C   UNL     1      49.423   9.765  12.115  0.00  0.00    +0.000 A 
ATOM     19  C   UNL     1      50.405  10.158  11.198  0.00  0.00    +0.000 A 
ATOM     20  C   UNL     1      51.304   9.217  10.716  0.00  0.00    +0.000 A 
ATOM     21  F   UNL     1      52.261   9.595   9.856  0.00  0.00    +0.000 F 
ATOM     22  C   UNL     1      51.231   7.889  11.114  0.00  0.00    +0.000 A 
ATOM     23  C   UNL     1      50.243   7.500  12.018  0.00  0.00    +0.000 A 
ENDBRANCH  14  17
ENDBRANCH   5  14
TORSDOF 3
ENDMDL
MODEL 9
REMARK VINA RESULT:    -5.647      2.515      4.090
REMARK INTER + INTRA:          -6.800
REMARK INTER:                  -6.347
REMARK INTRA:                  -0.453
REMARK UNBOUND:                -0.162
REMARK  Name = 
REMARK  3 active torsions:
REMARK  status: ('A' for Active; 'I' for Inactive)
REMARK    1  A    between atoms: C_2  and  C_4
REMARK    2  A    between atoms: N_8  and  C_9
REMARK    3  A    between atoms: C_9  and  C_10
REMARK                            x       y       z     vdW  Elec       q    Type
REMARK                         _______ _______ _______ _____ _____    ______ ____
ROOT
ATOM      1  C   UNL     1      44.601   4.259   9.837  0.00  0.00    +0.000 A 
ATOM      2  C   UNL     1      43.524   4.483  10.688  0.00  0.00    +0.000 A 
ATOM      3  C   UNL     1      43.534   5.611  11.510  0.00  0.00    +0.000 A 
ATOM      4  C   UNL     1      44.597   6.517  11.441  0.00  0.00    +0.000 A 
ATOM      5  N   UNL     1      44.543   7.635  12.297  0.00  0.00    +0.000 N 
ATOM      6  N   UNL     1      45.643   6.301  10.619  0.00  0.00    +0.000 NA
ATOM      7  C   UNL     1      45.635   5.183   9.850  0.00  0.00    +0.000 A 
ATOM      8  H   UNL     1      44.655   7.318  13.255  0.00  0.00    +0.000 HD
ENDROOT
BRANCH   1  10
ATOM      9  N   UNL     1      44.539   1.844   9.538  0.00  0.00    +0.000 N 
ATOM     10  C   UNL     1      44.714   3.073   8.962  0.00  0.00    +0.000 C 
ATOM     11  O   UNL     1      44.934   3.183   7.765  0.00  0.00    +0.000 OA
ATOM     12  H   UNL     1      44.537   1.053   8.906  0.00  0.00    +0.000 HD
ATOM     13  H   UNL     1      44.110   1.719  10.443  0.00  0.00    +0.000 HD
ENDBRANCH   1  10
BRANCH   5  14
ATOM     14  C   UNL     1      45.130   8.958  12.007  0.00  0.00    +0.000 C 
ATOM     15  C   UNL     1      44.328  10.242  12.138  0.00  0.00    +0.000 C 
ATOM     16  C   UNL     1      44.737   9.755  10.781  0.00  0.00    +0.000 C 
BRANCH  14  17
ATOM     17  C   UNL     1      46.592   9.025  12.457  0.00  0.00    +0.000 A 
ATOM     18  C   UNL     1      47.556   9.758  11.737  0.00  0.00    +0.000 A 
ATOM     19  C   UNL     1      48.884   9.832  12.172  0.00  0.00    +0.000 A 
ATOM     20  C   UNL     1      49.261   9.172  13.333  0.00  0.00    +0.000 A 
ATOM     21  F   UNL     1      50.526   9.260  13.765  0.00  0.00    +0.000 F 
ATOM     22  C   UNL     1      48.344   8.422  14.057  0.00  0.00    +0.000 A 
ATOM     23  C   UNL     1      47.024   8.340  13.613  0.00  0.00    +0.000 A 
ENDBRANCH  14  17
ENDBRANCH   5  14
TORSDOF 3
ENDMDL
