MODEL 1
REMARK VINA RESULT:    -6.502      0.000      0.000
REMARK INTER + INTRA:         -11.193
REMARK INTER:                  -9.733
REMARK INTRA:                  -1.460
REMARK UNBOUND:                -1.460
REMARK  Name = 
REMARK  9 active torsions:
REMARK  status: ('A' for Active; 'I' for Inactive)
REMARK    1  A    between atoms: N_1  and  C_2
REMARK    2  A    between atoms: C_2  and  C_3
REMARK    3  A    between atoms: C_3  and  N_4
REMARK    4  A    between atoms: N_4  and  C_5
REMARK    5  A    between atoms: C_5  and  C_6
REMARK    6  A    between atoms: C_9  and  C_10
REMARK    7  A    between atoms: C_11  and  C_12
REMARK    8  A    between atoms: C_12  and  N_13
REMARK    9  A    between atoms: C_20  and  C_22
REMARK                            x       y       z     vdW  Elec       q    Type
REMARK                         _______ _______ _______ _____ _____    ______ ____
ROOT
ATOM      1  N   UNL     1      45.902   7.100  11.910  0.00  0.00    +0.000 N 
ATOM      2  C   UNL     1      44.660   6.665  11.404  0.00  0.00    +0.000 C 
ATOM      3  O   UNL     1      43.825   7.470  10.991  0.00  0.00    +0.000 OA
ENDROOT
BRANCH   2   4
ATOM      4  C   UNL     1      44.360   5.226  11.372  0.00  0.00    +0.000 A 
ATOM      5  C   UNL     1      43.645   4.546  12.349  0.00  0.00    +0.000 A 
ATOM      6  S   UNL     1      43.416   2.889  12.017  0.00  0.00    +0.000 S 
ATOM      7  C   UNL     1      44.143   3.054  10.490  0.00  0.00    +0.000 A 
ATOM      8  N   UNL     1      44.175   2.001   9.625  0.00  0.00    +0.000 NA
ATOM      9  C   UNL     1      44.722   2.276   8.489  0.00  0.00    +0.000 A 
ATOM     10  N   UNL     1      45.266   3.485   8.152  0.00  0.00    +0.000 N 
ATOM     11  C   UNL     1      45.368   4.546   9.043  0.00  0.00    +0.000 A 
ATOM     12  O   UNL     1      46.076   5.511   8.771  0.00  0.00    +0.000 OA
ATOM     13  C   UNL     1      44.651   4.316  10.283  0.00  0.00    +0.000 A 
ATOM     14  H   UNL     1      45.749   3.608   7.272  0.00  0.00    +0.000 HD
ENDBRANCH   2   4
BRANCH   1  15
ATOM     15  C   UNL     1      46.138   8.561  11.896  0.00  0.00    +0.000 C 
BRANCH  15  16
ATOM     16  C   UNL     1      45.337   9.417  12.912  0.00  0.00    +0.000 C 
BRANCH  16  17
ATOM     17  N   UNL     1      44.193  10.161  12.368  0.00  0.00    +0.000 NA
ATOM     18  H   UNL     1      44.420  10.420  11.405  0.00  0.00    +0.000 HD
ATOM     19  H   UNL     1      44.106  11.050  12.862  0.00  0.00    +0.000 HD
ENDBRANCH  16  17
ENDBRANCH  15  16
ENDBRANCH   1  15
BRANCH   1  20
ATOM     20  C   UNL     1      46.988   6.147  12.202  0.00  0.00    +0.000 C 
BRANCH  20  21
ATOM     21  C   UNL     1      47.327   5.857  13.632  0.00  0.00    +0.000 A 
ATOM     22  C   UNL     1      48.183   6.713  14.332  0.00  0.00    +0.000 A 
ATOM     23  C   UNL     1      48.631   6.367  15.602  0.00  0.00    +0.000 A 
ATOM     24  C   UNL     1      48.239   5.157  16.188  0.00  0.00    +0.000 A 
ATOM     25  C   UNL     1      47.291   4.362  15.529  0.00  0.00    +0.000 A 
ATOM     26  C   UNL     1      46.819   4.720  14.268  0.00  0.00    +0.000 A 
BRANCH  24  27
ATOM     27  C   UNL     1      48.839   4.659  17.432  0.00  0.00    +0.000 C 
ATOM     28  C   UNL     1      50.088   4.953  17.821  0.00  0.00    +0.000 C 
BRANCH  28  29
ATOM     29  C   UNL     1      50.686   4.605  19.154  0.00  0.00    +0.000 C 
BRANCH  29  30
ATOM     30  N   UNL     1      52.117   4.893  19.082  0.00  0.00    +0.000 NA
ATOM     31  C   UNL     1      52.911   4.078  20.004  0.00  0.00    +0.000 C 
ATOM     32  C   UNL     1      53.469   2.943  19.175  0.00  0.00    +0.000 C 
ATOM     33  O   UNL     1      53.367   3.338  17.807  0.00  0.00    +0.000 OA
ATOM     34  C   UNL     1      52.697   4.597  17.782  0.00  0.00    +0.000 C 
ENDBRANCH  29  30
ENDBRANCH  28  29
ENDBRANCH  24  27
ENDBRANCH  20  21
ENDBRANCH   1  20
TORSDOF 9
ENDMDL
MODEL 2
REMARK VINA RESULT:    -6.088      3.718      8.345
REMARK INTER + INTRA:         -10.573
REMARK INTER:                  -8.843
REMARK INTRA:                  -1.730
REMARK UNBOUND:                -1.460
REMARK  Name = 
REMARK  9 active torsions:
REMARK  status: ('A' for Active; 'I' for Inactive)
REMARK    1  A    between atoms: N_1  and  C_2
REMARK    2  A    between atoms: C_2  and  C_3
REMARK    3  A    between atoms: C_3  and  N_4
REMARK    4  A    between atoms: N_4  and  C_5
REMARK    5  A    between atoms: C_5  and  C_6
REMARK    6  A    between atoms: C_9  and  C_10
REMARK    7  A    between atoms: C_11  and  C_12
REMARK    8  A    between atoms: C_12  and  N_13
REMARK    9  A    between atoms: C_20  and  C_22
REMARK                            x       y       z     vdW  Elec       q    Type
REMARK                         _______ _______ _______ _____ _____    ______ ____
ROOT
ATOM      1  N   UNL     1      48.584   8.064  18.302  0.00  0.00    +0.000 N 
ATOM      2  C   UNL     1      48.547   6.790  18.907  0.00  0.00    +0.000 C 
ATOM      3  O   UNL     1      47.673   6.501  19.725  0.00  0.00    +0.000 OA
ENDROOT
BRANCH   2   4
ATOM      4  C   UNL     1      49.570   5.796  18.555  0.00  0.00    +0.000 A 
ATOM      5  C   UNL     1      50.877   5.804  19.026  0.00  0.00    +0.000 A 
ATOM      6  S   UNL     1      51.823   4.496  18.478  0.00  0.00    +0.000 S 
ATOM      7  C   UNL     1      50.480   3.797  17.706  0.00  0.00    +0.000 A 
ATOM      8  N   UNL     1      50.585   2.573  17.116  0.00  0.00    +0.000 NA
ATOM      9  C   UNL     1      49.480   2.146  16.601  0.00  0.00    +0.000 A 
ATOM     10  N   UNL     1      48.300   2.837  16.590  0.00  0.00    +0.000 N 
ATOM     11  C   UNL     1      48.178   4.137  17.067  0.00  0.00    +0.000 A 
ATOM     12  O   UNL     1      47.172   4.793  16.813  0.00  0.00    +0.000 OA
ATOM     13  C   UNL     1      49.363   4.598  17.766  0.00  0.00    +0.000 A 
ATOM     14  H   UNL     1      47.493   2.476  16.100  0.00  0.00    +0.000 HD
ENDBRANCH   2   4
BRANCH   1  15
ATOM     15  C   UNL     1      47.513   9.006  18.697  0.00  0.00    +0.000 C 
BRANCH  15  16
ATOM     16  C   UNL     1      47.905  10.498  18.853  0.00  0.00    +0.000 C 
BRANCH  16  17
ATOM     17  N   UNL     1      47.473  11.396  17.773  0.00  0.00    +0.000 NA
ATOM     18  H   UNL     1      48.273  11.975  17.510  0.00  0.00    +0.000 HD
ATOM     19  H   UNL     1      46.785  12.054  18.140  0.00  0.00    +0.000 HD
ENDBRANCH  16  17
ENDBRANCH  15  16
ENDBRANCH   1  15
BRANCH   1  20
ATOM     20  C   UNL     1      49.485   8.350  17.171  0.00  0.00    +0.000 C 
BRANCH  20  21
ATOM     21  C   UNL     1      48.992   8.107  15.778  0.00  0.00    +0.000 A 
ATOM     22  C   UNL     1      48.023   8.951  15.225  0.00  0.00    +0.000 A 
ATOM     23  C   UNL     1      47.443   8.639  14.000  0.00  0.00    +0.000 A 
ATOM     24  C   UNL     1      47.814   7.477  13.314  0.00  0.00    +0.000 A 
ATOM     25  C   UNL     1      48.867   6.700  13.819  0.00  0.00    +0.000 A 
ATOM     26  C   UNL     1      49.469   7.025  15.033  0.00  0.00    +0.000 A 
BRANCH  24  27
ATOM     27  C   UNL     1      47.093   7.005  12.125  0.00  0.00    +0.000 C 
ATOM     28  C   UNL     1      46.223   5.984  12.144  0.00  0.00    +0.000 C 
BRANCH  28  29
ATOM     29  C   UNL     1      45.343   5.573  10.998  0.00  0.00    +0.000 C 
BRANCH  29  30
ATOM     30  N   UNL     1      44.007   5.329  11.536  0.00  0.00    +0.000 NA
ATOM     31  C   UNL     1      43.326   4.205  10.889  0.00  0.00    +0.000 C 
ATOM     32  C   UNL     1      43.515   3.022  11.810  0.00  0.00    +0.000 C 
ATOM     33  O   UNL     1      43.885   3.544  13.086  0.00  0.00    +0.000 OA
ATOM     34  C   UNL     1      44.013   4.957  12.942  0.00  0.00    +0.000 C 
ENDBRANCH  29  30
ENDBRANCH  28  29
ENDBRANCH  24  27
ENDBRANCH  20  21
ENDBRANCH   1  20
TORSDOF 9
ENDMDL
MODEL 3
REMARK VINA RESULT:    -5.724      3.380      8.574
REMARK INTER + INTRA:         -10.028
REMARK INTER:                  -8.156
REMARK INTRA:                  -1.872
REMARK UNBOUND:                -1.460
REMARK  Name = 
REMARK  9 active torsions:
REMARK  status: ('A' for Active; 'I' for Inactive)
REMARK    1  A    between atoms: N_1  and  C_2
REMARK    2  A    between atoms: C_2  and  C_3
REMARK    3  A    between atoms: C_3  and  N_4
REMARK    4  A    between atoms: N_4  and  C_5
REMARK    5  A    between atoms: C_5  and  C_6
REMARK    6  A    between atoms: C_9  and  C_10
REMARK    7  A    between atoms: C_11  and  C_12
REMARK    8  A    between atoms: C_12  and  N_13
REMARK    9  A    between atoms: C_20  and  C_22
REMARK                            x       y       z     vdW  Elec       q    Type
REMARK                         _______ _______ _______ _____ _____    ______ ____
ROOT
ATOM      1  N   UNL     1      50.685   8.681  16.812  0.00  0.00    +0.000 N 
ATOM      2  C   UNL     1      50.730   7.832  17.937  0.00  0.00    +0.000 C 
ATOM      3  O   UNL     1      51.798   7.570  18.493  0.00  0.00    +0.000 OA
ENDROOT
BRANCH   2   4
ATOM      4  C   UNL     1      49.482   7.249  18.450  0.00  0.00    +0.000 A 
ATOM      5  C   UNL     1      48.621   7.881  19.339  0.00  0.00    +0.000 A 
ATOM      6  S   UNL     1      47.228   6.975  19.721  0.00  0.00    +0.000 S 
ATOM      7  C   UNL     1      47.658   5.769  18.605  0.00  0.00    +0.000 A 
ATOM      8  N   UNL     1      46.815   4.727  18.358  0.00  0.00    +0.000 NA
ATOM      9  C   UNL     1      47.249   3.906  17.461  0.00  0.00    +0.000 A 
ATOM     10  N   UNL     1      48.452   4.009  16.819  0.00  0.00    +0.000 N 
ATOM     11  C   UNL     1      49.396   4.981  17.128  0.00  0.00    +0.000 A 
ATOM     12  O   UNL     1      50.543   4.881  16.701  0.00  0.00    +0.000 OA
ATOM     13  C   UNL     1      48.891   5.993  18.036  0.00  0.00    +0.000 A 
ATOM     14  H   UNL     1      48.764   3.286  16.184  0.00  0.00    +0.000 HD
ENDBRANCH   2   4
BRANCH   1  15
ATOM     15  C   UNL     1      51.980   9.240  16.362  0.00  0.00    +0.000 C 
BRANCH  15  16
ATOM     16  C   UNL     1      52.791   8.409  15.334  0.00  0.00    +0.000 C 
BRANCH  16  17
ATOM     17  N   UNL     1      52.732   6.950  15.495  0.00  0.00    +0.000 NA
ATOM     18  H   UNL     1      53.686   6.590  15.418  0.00  0.00    +0.000 HD
ATOM     19  H   UNL     1      52.237   6.545  14.699  0.00  0.00    +0.000 HD
ENDBRANCH  16  17
ENDBRANCH  15  16
ENDBRANCH   1  15
BRANCH   1  20
ATOM     20  C   UNL     1      49.404   9.173  16.273  0.00  0.00    +0.000 C 
BRANCH  20  21
ATOM     21  C   UNL     1      48.904   8.612  14.978  0.00  0.00    +0.000 A 
ATOM     22  C   UNL     1      47.948   9.316  14.238  0.00  0.00    +0.000 A 
ATOM     23  C   UNL     1      47.360   8.730  13.122  0.00  0.00    +0.000 A 
ATOM     24  C   UNL     1      47.710   7.431  12.735  0.00  0.00    +0.000 A 
ATOM     25  C   UNL     1      48.751   6.780  13.412  0.00  0.00    +0.000 A 
ATOM     26  C   UNL     1      49.361   7.376  14.514  0.00  0.00    +0.000 A 
BRANCH  24  27
ATOM     27  C   UNL     1      46.978   6.701  11.692  0.00  0.00    +0.000 C 
ATOM     28  C   UNL     1      45.803   6.090  11.902  0.00  0.00    +0.000 C 
BRANCH  28  29
ATOM     29  C   UNL     1      44.942   5.475  10.836  0.00  0.00    +0.000 C 
BRANCH  29  30
ATOM     30  N   UNL     1      45.118   4.026  10.911  0.00  0.00    +0.000 NA
ATOM     31  C   UNL     1      45.085   3.516  12.282  0.00  0.00    +0.000 C 
ATOM     32  C   UNL     1      43.684   2.989  12.493  0.00  0.00    +0.000 C 
ATOM     33  O   UNL     1      43.110   2.807  11.199  0.00  0.00    +0.000 OA
ATOM     34  C   UNL     1      44.059   3.285  10.247  0.00  0.00    +0.000 C 
ENDBRANCH  29  30
ENDBRANCH  28  29
ENDBRANCH  24  27
ENDBRANCH  20  21
ENDBRANCH   1  20
TORSDOF 9
ENDMDL
MODEL 4
REMARK VINA RESULT:    -5.577      2.906      8.753
REMARK INTER + INTRA:          -9.808
REMARK INTER:                  -8.136
REMARK INTRA:                  -1.672
REMARK UNBOUND:                -1.460
REMARK  Name = 
REMARK  9 active torsions:
REMARK  status: ('A' for Active; 'I' for Inactive)
REMARK    1  A    between atoms: N_1  and  C_2
REMARK    2  A    between atoms: C_2  and  C_3
REMARK    3  A    between atoms: C_3  and  N_4
REMARK    4  A    between atoms: N_4  and  C_5
REMARK    5  A    between atoms: C_5  and  C_6
REMARK    6  A    between atoms: C_9  and  C_10
REMARK    7  A    between atoms: C_11  and  C_12
REMARK    8  A    between atoms: C_12  and  N_13
REMARK    9  A    between atoms: C_20  and  C_22
REMARK                            x       y       z     vdW  Elec       q    Type
REMARK                         _______ _______ _______ _____ _____    ______ ____
ROOT
ATOM      1  N   UNL     1      49.225   7.611  18.521  0.00  0.00    +0.000 N 
ATOM      2  C   UNL     1      48.405   6.542  18.936  0.00  0.00    +0.000 C 
ATOM      3  O   UNL     1      47.636   6.664  19.890  0.00  0.00    +0.000 OA
ENDROOT
BRANCH   2   4
ATOM      4  C   UNL     1      48.473   5.261  18.217  0.00  0.00    +0.000 A 
ATOM      5  C   UNL     1      47.492   4.784  17.357  0.00  0.00    +0.000 A 
ATOM      6  S   UNL     1      47.870   3.287  16.634  0.00  0.00    +0.000 S 
ATOM      7  C   UNL     1      49.417   3.293  17.335  0.00  0.00    +0.000 A 
ATOM      8  N   UNL     1      50.317   2.317  17.028  0.00  0.00    +0.000 NA
ATOM      9  C   UNL     1      51.464   2.465  17.601  0.00  0.00    +0.000 A 
ATOM     10  N   UNL     1      51.782   3.470  18.474  0.00  0.00    +0.000 N 
ATOM     11  C   UNL     1      50.860   4.413  18.912  0.00  0.00    +0.000 A 
ATOM     12  O   UNL     1      51.127   5.133  19.870  0.00  0.00    +0.000 OA
ATOM     13  C   UNL     1      49.602   4.353  18.193  0.00  0.00    +0.000 A 
ATOM     14  H   UNL     1      52.675   3.481  18.947  0.00  0.00    +0.000 HD
ENDBRANCH   2   4
BRANCH   1  15
ATOM     15  C   UNL     1      49.090   8.872  19.285  0.00  0.00    +0.000 C 
BRANCH  15  16
ATOM     16  C   UNL     1      50.119   9.128  20.416  0.00  0.00    +0.000 C 
BRANCH  16  17
ATOM     17  N   UNL     1      51.107   8.065  20.642  0.00  0.00    +0.000 NA
ATOM     18  H   UNL     1      51.277   7.602  19.746  0.00  0.00    +0.000 HD
ATOM     19  H   UNL     1      50.693   7.343  21.233  0.00  0.00    +0.000 HD
ENDBRANCH  16  17
ENDBRANCH  15  16
ENDBRANCH   1  15
BRANCH   1  20
ATOM     20  C   UNL     1      49.983   7.552  17.259  0.00  0.00    +0.000 C 
BRANCH  20  21
ATOM     21  C   UNL     1      49.235   7.628  15.963  0.00  0.00    +0.000 A 
ATOM     22  C   UNL     1      48.354   8.689  15.731  0.00  0.00    +0.000 A 
ATOM     23  C   UNL     1      47.536   8.683  14.606  0.00  0.00    +0.000 A 
ATOM     24  C   UNL     1      47.580   7.615  13.703  0.00  0.00    +0.000 A 
ATOM     25  C   UNL     1      48.547   6.615  13.882  0.00  0.00    +0.000 A 
ATOM     26  C   UNL     1      49.387   6.633  14.994  0.00  0.00    +0.000 A 
BRANCH  24  27
ATOM     27  C   UNL     1      46.603   7.467  12.616  0.00  0.00    +0.000 C 
ATOM     28  C   UNL     1      46.166   6.280  12.170  0.00  0.00    +0.000 C 
BRANCH  28  29
ATOM     29  C   UNL     1      45.053   6.082  11.181  0.00  0.00    +0.000 C 
BRANCH  29  30
ATOM     30  N   UNL     1      43.882   5.620  11.925  0.00  0.00    +0.000 NA
ATOM     31  C   UNL     1      43.025   4.725  11.145  0.00  0.00    +0.000 C 
ATOM     32  C   UNL     1      43.395   3.324  11.573  0.00  0.00    +0.000 C 
ATOM     33  O   UNL     1      44.084   3.437  12.817  0.00  0.00    +0.000 OA
ATOM     34  C   UNL     1      44.221   4.829  13.096  0.00  0.00    +0.000 C 
ENDBRANCH  29  30
ENDBRANCH  28  29
ENDBRANCH  24  27
ENDBRANCH  20  21
ENDBRANCH   1  20
TORSDOF 9
ENDMDL
MODEL 5
REMARK VINA RESULT:    -5.544      3.656      9.728
REMARK INTER + INTRA:          -9.760
REMARK INTER:                  -8.820
REMARK INTRA:                  -0.940
REMARK UNBOUND:                -1.460
REMARK  Name = 
REMARK  9 active torsions:
REMARK  status: ('A' for Active; 'I' for Inactive)
REMARK    1  A    between atoms: N_1  and  C_2
REMARK    2  A    between atoms: C_2  and  C_3
REMARK    3  A    between atoms: C_3  and  N_4
REMARK    4  A    between atoms: N_4  and  C_5
REMARK    5  A    between atoms: C_5  and  C_6
REMARK    6  A    between atoms: C_9  and  C_10
REMARK    7  A    between atoms: C_11  and  C_12
REMARK    8  A    between atoms: C_12  and  N_13
REMARK    9  A    between atoms: C_20  and  C_22
REMARK                            x       y       z     vdW  Elec       q    Type
REMARK                         _______ _______ _______ _____ _____    ______ ____
ROOT
ATOM      1  N   UNL     1      50.030   4.792  18.007  0.00  0.00    +0.000 N 
ATOM      2  C   UNL     1      50.764   5.794  18.674  0.00  0.00    +0.000 C 
ATOM      3  O   UNL     1      51.992   5.735  18.754  0.00  0.00    +0.000 OA
ENDROOT
BRANCH   2   4
ATOM      4  C   UNL     1      50.050   6.925  19.284  0.00  0.00    +0.000 A 
ATOM      5  C   UNL     1      49.342   6.862  20.477  0.00  0.00    +0.000 A 
ATOM      6  S   UNL     1      48.654   8.347  20.957  0.00  0.00    +0.000 S 
ATOM      7  C   UNL     1      49.397   9.155  19.660  0.00  0.00    +0.000 A 
ATOM      8  N   UNL     1      49.297  10.510  19.545  0.00  0.00    +0.000 NA
ATOM      9  C   UNL     1      49.940  10.996  18.537  0.00  0.00    +0.000 A 
ATOM     10  N   UNL     1      50.638  10.258  17.620  0.00  0.00    +0.000 N 
ATOM     11  C   UNL     1      50.663   8.868  17.627  0.00  0.00    +0.000 A 
ATOM     12  O   UNL     1      51.094   8.258  16.653  0.00  0.00    +0.000 OA
ATOM     13  C   UNL     1      50.060   8.296  18.815  0.00  0.00    +0.000 A 
ATOM     14  H   UNL     1      51.053  10.698  16.810  0.00  0.00    +0.000 HD
ENDBRANCH   2   4
BRANCH   1  15
ATOM     15  C   UNL     1      50.820   3.693  17.407  0.00  0.00    +0.000 C 
BRANCH  15  16
ATOM     16  C   UNL     1      50.184   2.279  17.414  0.00  0.00    +0.000 C 
BRANCH  16  17
ATOM     17  N   UNL     1      49.767   1.753  16.107  0.00  0.00    +0.000 NA
ATOM     18  H   UNL     1      50.509   1.135  15.769  0.00  0.00    +0.000 HD
ATOM     19  H   UNL     1      49.738   2.517  15.432  0.00  0.00    +0.000 HD
ENDBRANCH  16  17
ENDBRANCH  15  16
ENDBRANCH   1  15
BRANCH   1  20
ATOM     20  C   UNL     1      48.594   4.958  17.716  0.00  0.00    +0.000 C 
BRANCH  20  21
ATOM     21  C   UNL     1      48.164   5.149  16.294  0.00  0.00    +0.000 A 
ATOM     22  C   UNL     1      48.620   6.256  15.572  0.00  0.00    +0.000 A 
ATOM     23  C   UNL     1      48.101   6.529  14.311  0.00  0.00    +0.000 A 
ATOM     24  C   UNL     1      47.113   5.706  13.757  0.00  0.00    +0.000 A 
ATOM     25  C   UNL     1      46.747   4.535  14.437  0.00  0.00    +0.000 A 
ATOM     26  C   UNL     1      47.287   4.245  15.689  0.00  0.00    +0.000 A 
BRANCH  24  27
ATOM     27  C   UNL     1      46.396   6.062  12.526  0.00  0.00    +0.000 C 
ATOM     28  C   UNL     1      45.698   5.181  11.795  0.00  0.00    +0.000 C 
BRANCH  28  29
ATOM     29  C   UNL     1      44.819   5.527  10.627  0.00  0.00    +0.000 C 
BRANCH  29  30
ATOM     30  N   UNL     1      43.550   4.825  10.810  0.00  0.00    +0.000 NA
ATOM     31  C   UNL     1      43.691   3.573  11.557  0.00  0.00    +0.000 C 
ATOM     32  C   UNL     1      43.298   3.896  12.981  0.00  0.00    +0.000 C 
ATOM     33  O   UNL     1      42.565   5.119  12.943  0.00  0.00    +0.000 OA
ATOM     34  C   UNL     1      42.584   5.580  11.593  0.00  0.00    +0.000 C 
ENDBRANCH  29  30
ENDBRANCH  28  29
ENDBRANCH  24  27
ENDBRANCH  20  21
ENDBRANCH   1  20
TORSDOF 9
ENDMDL
MODEL 6
REMARK VINA RESULT:    -5.266      3.917      5.095
REMARK INTER + INTRA:          -9.343
REMARK INTER:                  -8.252
REMARK INTRA:                  -1.092
REMARK UNBOUND:                -1.460
REMARK  Name = 
REMARK  9 active torsions:
REMARK  status: ('A' for Active; 'I' for Inactive)
REMARK    1  A    between atoms: N_1  and  C_2
REMARK    2  A    between atoms: C_2  and  C_3
REMARK    3  A    between atoms: C_3  and  N_4
REMARK    4  A    between atoms: N_4  and  C_5
REMARK    5  A    between atoms: C_5  and  C_6
REMARK    6  A    between atoms: C_9  and  C_10
REMARK    7  A    between atoms: C_11  and  C_12
REMARK    8  A    between atoms: C_12  and  N_13
REMARK    9  A    between atoms: C_20  and  C_22
REMARK                            x       y       z     vdW  Elec       q    Type
REMARK                         _______ _______ _______ _____ _____    ______ ____
ROOT
ATOM      1  N   UNL     1      45.127   7.081  12.517  0.00  0.00    +0.000 N 
ATOM      2  C   UNL     1      44.062   6.505  11.794  0.00  0.00    +0.000 C 
ATOM      3  O   UNL     1      43.136   7.196  11.369  0.00  0.00    +0.000 OA
ENDROOT
BRANCH   2   4
ATOM      4  C   UNL     1      44.060   5.056  11.548  0.00  0.00    +0.000 A 
ATOM      5  C   UNL     1      43.383   4.123  12.324  0.00  0.00    +0.000 A 
ATOM      6  S   UNL     1      43.530   2.518  11.767  0.00  0.00    +0.000 S 
ATOM      7  C   UNL     1      44.386   3.031  10.392  0.00  0.00    +0.000 A 
ATOM      8  N   UNL     1      44.730   2.137   9.422  0.00  0.00    +0.000 NA
ATOM      9  C   UNL     1      45.342   2.669   8.417  0.00  0.00    +0.000 A 
ATOM     10  N   UNL     1      45.671   3.992   8.308  0.00  0.00    +0.000 N 
ATOM     11  C   UNL     1      45.453   4.914   9.325  0.00  0.00    +0.000 A 
ATOM     12  O   UNL     1      45.983   6.020   9.275  0.00  0.00    +0.000 OA
ATOM     13  C   UNL     1      44.654   4.380  10.412  0.00  0.00    +0.000 A 
ATOM     14  H   UNL     1      46.221   4.327   7.528  0.00  0.00    +0.000 HD
ENDBRANCH   2   4
BRANCH   1  15
ATOM     15  C   UNL     1      45.067   8.547  12.712  0.00  0.00    +0.000 C 
BRANCH  15  16
ATOM     16  C   UNL     1      45.289   9.438  11.462  0.00  0.00    +0.000 C 
BRANCH  16  17
ATOM     17  N   UNL     1      46.219  10.563  11.629  0.00  0.00    +0.000 NA
ATOM     18  H   UNL     1      45.850  11.353  11.096  0.00  0.00    +0.000 HD
ATOM     19  H   UNL     1      47.105  10.335  11.176  0.00  0.00    +0.000 HD
ENDBRANCH  16  17
ENDBRANCH  15  16
ENDBRANCH   1  15
BRANCH   1  20
ATOM     20  C   UNL     1      46.341   6.309  12.841  0.00  0.00    +0.000 C 
BRANCH  20  21
ATOM     21  C   UNL     1      47.672   6.990  12.757  0.00  0.00    +0.000 A 
ATOM     22  C   UNL     1      48.188   7.357  11.509  0.00  0.00    +0.000 A 
ATOM     23  C   UNL     1      49.488   7.839  11.406  0.00  0.00    +0.000 A 
ATOM     24  C   UNL     1      50.295   7.953  12.545  0.00  0.00    +0.000 A 
ATOM     25  C   UNL     1      49.732   7.693  13.802  0.00  0.00    +0.000 A 
ATOM     26  C   UNL     1      48.421   7.236  13.911  0.00  0.00    +0.000 A 
BRANCH  24  27
ATOM     27  C   UNL     1      51.728   8.265  12.461  0.00  0.00    +0.000 C 
ATOM     28  C   UNL     1      52.439   8.178  11.327  0.00  0.00    +0.000 C 
BRANCH  28  29
ATOM     29  C   UNL     1      53.858   8.641  11.156  0.00  0.00    +0.000 C 
BRANCH  29  30
ATOM     30  N   UNL     1      54.235   8.393   9.766  0.00  0.00    +0.000 NA
ATOM     31  C   UNL     1      55.543   7.749   9.634  0.00  0.00    +0.000 C 
ATOM     32  C   UNL     1      55.261   6.277   9.436  0.00  0.00    +0.000 C 
ATOM     33  O   UNL     1      53.895   6.166   9.038  0.00  0.00    +0.000 OA
ATOM     34  C   UNL     1      53.336   7.479   9.081  0.00  0.00    +0.000 C 
ENDBRANCH  29  30
ENDBRANCH  28  29
ENDBRANCH  24  27
ENDBRANCH  20  21
ENDBRANCH   1  20
TORSDOF 9
ENDMDL
MODEL 7
REMARK VINA RESULT:    -5.225      3.307      9.030
REMARK INTER + INTRA:          -9.282
REMARK INTER:                  -7.777
REMARK INTRA:                  -1.505
REMARK UNBOUND:                -1.460
REMARK  Name = 
REMARK  9 active torsions:
REMARK  status: ('A' for Active; 'I' for Inactive)
REMARK    1  A    between atoms: N_1  and  C_2
REMARK    2  A    between atoms: C_2  and  C_3
REMARK    3  A    between atoms: C_3  and  N_4
REMARK    4  A    between atoms: N_4  and  C_5
REMARK    5  A    between atoms: C_5  and  C_6
REMARK    6  A    between atoms: C_9  and  C_10
REMARK    7  A    between atoms: C_11  and  C_12
REMARK    8  A    between atoms: C_12  and  N_13
REMARK    9  A    between atoms: C_20  and  C_22
REMARK                            x       y       z     vdW  Elec       q    Type
REMARK                         _______ _______ _______ _____ _____    ______ ____
ROOT
ATOM      1  N   UNL     1      51.255   7.385  16.038  0.00  0.00    +0.000 N 
ATOM      2  C   UNL     1      51.080   6.245  16.849  0.00  0.00    +0.000 C 
ATOM      3  O   UNL     1      52.038   5.536  17.163  0.00  0.00    +0.000 OA
ENDROOT
BRANCH   2   4
ATOM      4  C   UNL     1      49.733   5.897  17.324  0.00  0.00    +0.000 A 
ATOM      5  C   UNL     1      48.892   4.975  16.713  0.00  0.00    +0.000 A 
ATOM      6  S   UNL     1      47.406   4.749  17.518  0.00  0.00    +0.000 S 
ATOM      7  C   UNL     1      47.892   5.770  18.786  0.00  0.00    +0.000 A 
ATOM      8  N   UNL     1      47.100   5.930  19.883  0.00  0.00    +0.000 NA
ATOM      9  C   UNL     1      47.608   6.702  20.785  0.00  0.00    +0.000 A 
ATOM     10  N   UNL     1      48.807   7.352  20.678  0.00  0.00    +0.000 N 
ATOM     11  C   UNL     1      49.588   7.318  19.528  0.00  0.00    +0.000 A 
ATOM     12  O   UNL     1      50.520   8.106  19.396  0.00  0.00    +0.000 OA
ATOM     13  C   UNL     1      49.112   6.361  18.548  0.00  0.00    +0.000 A 
ATOM     14  H   UNL     1      49.108   8.004  21.389  0.00  0.00    +0.000 HD
ENDBRANCH   2   4
BRANCH   1  15
ATOM     15  C   UNL     1      52.641   7.678  15.611  0.00  0.00    +0.000 C 
BRANCH  15  16
ATOM     16  C   UNL     1      52.837   8.813  14.572  0.00  0.00    +0.000 C 
BRANCH  16  17
ATOM     17  N   UNL     1      53.338  10.090  15.099  0.00  0.00    +0.000 NA
ATOM     18  H   UNL     1      54.128  10.378  14.518  0.00  0.00    +0.000 HD
ATOM     19  H   UNL     1      53.738   9.936  16.025  0.00  0.00    +0.000 HD
ENDBRANCH  16  17
ENDBRANCH  15  16
ENDBRANCH   1  15
BRANCH   1  20
ATOM     20  C   UNL     1      50.164   8.356  15.835  0.00  0.00    +0.000 C 
BRANCH  20  21
ATOM     21  C   UNL     1      49.238   8.168  14.673  0.00  0.00    +0.000 A 
ATOM     22  C   UNL     1      48.015   8.846  14.641  0.00  0.00    +0.000 A 
ATOM     23  C   UNL     1      47.082   8.555  13.652  0.00  0.00    +0.000 A 
ATOM     24  C   UNL     1      47.352   7.578  12.686  0.00  0.00    +0.000 A 
ATOM     25  C   UNL     1      48.624   6.988  12.657  0.00  0.00    +0.000 A 
ATOM     26  C   UNL     1      49.572   7.298  13.631  0.00  0.00    +0.000 A 
BRANCH  24  27
ATOM     27  C   UNL     1      46.328   7.098  11.750  0.00  0.00    +0.000 C 
ATOM     28  C   UNL     1      46.187   5.809  11.404  0.00  0.00    +0.000 C 
BRANCH  28  29
ATOM     29  C   UNL     1      45.060   5.250  10.584  0.00  0.00    +0.000 C 
BRANCH  29  30
ATOM     30  N   UNL     1      45.101   3.795  10.717  0.00  0.00    +0.000 NA
ATOM     31  C   UNL     1      45.141   3.348  12.110  0.00  0.00    +0.000 C 
ATOM     32  C   UNL     1      43.720   2.974  12.465  0.00  0.00    +0.000 C 
ATOM     33  O   UNL     1      43.018   2.797  11.235  0.00  0.00    +0.000 OA
ATOM     34  C   UNL     1      43.919   3.136  10.183  0.00  0.00    +0.000 C 
ENDBRANCH  29  30
ENDBRANCH  28  29
ENDBRANCH  24  27
ENDBRANCH  20  21
ENDBRANCH   1  20
TORSDOF 9
ENDMDL
MODEL 8
REMARK VINA RESULT:    -5.180      2.169      4.311
REMARK INTER + INTRA:          -9.215
REMARK INTER:                  -8.035
REMARK INTRA:                  -1.179
REMARK UNBOUND:                -1.460
REMARK  Name = 
REMARK  9 active torsions:
REMARK  status: ('A' for Active; 'I' for Inactive)
REMARK    1  A    between atoms: N_1  and  C_2
REMARK    2  A    between atoms: C_2  and  C_3
REMARK    3  A    between atoms: C_3  and  N_4
REMARK    4  A    between atoms: N_4  and  C_5
REMARK    5  A    between atoms: C_5  and  C_6
REMARK    6  A    between atoms: C_9  and  C_10
REMARK    7  A    between atoms: C_11  and  C_12
REMARK    8  A    between atoms: C_12  and  N_13
REMARK    9  A    between atoms: C_20  and  C_22
REMARK                            x       y       z     vdW  Elec       q    Type
REMARK                         _______ _______ _______ _____ _____    ______ ____
ROOT
ATOM      1  N   UNL     1      45.598   4.614  12.297  0.00  0.00    +0.000 N 
ATOM      2  C   UNL     1      45.748   5.556  11.259  0.00  0.00    +0.000 C 
ATOM      3  O   UNL     1      45.646   5.221  10.078  0.00  0.00    +0.000 OA
ENDROOT
BRANCH   2   4
ATOM      4  C   UNL     1      46.032   6.959  11.594  0.00  0.00    +0.000 A 
ATOM      5  C   UNL     1      47.291   7.460  11.898  0.00  0.00    +0.000 A 
ATOM      6  S   UNL     1      47.316   9.138  12.203  0.00  0.00    +0.000 S 
ATOM      7  C   UNL     1      45.671   9.276  11.801  0.00  0.00    +0.000 A 
ATOM      8  N   UNL     1      45.074  10.500  11.755  0.00  0.00    +0.000 NA
ATOM      9  C   UNL     1      43.833  10.463  11.399  0.00  0.00    +0.000 A 
ATOM     10  N   UNL     1      43.130   9.322  11.123  0.00  0.00    +0.000 N 
ATOM     11  C   UNL     1      43.662   8.047  11.279  0.00  0.00    +0.000 A 
ATOM     12  O   UNL     1      42.922   7.067  11.255  0.00  0.00    +0.000 OA
ATOM     13  C   UNL     1      45.086   8.056  11.552  0.00  0.00    +0.000 A 
ATOM     14  H   UNL     1      42.139   9.360  10.927  0.00  0.00    +0.000 HD
ENDBRANCH   2   4
BRANCH   1  15
ATOM     15  C   UNL     1      45.300   3.225  11.882  0.00  0.00    +0.000 C 
BRANCH  15  16
ATOM     16  C   UNL     1      43.809   2.800  11.849  0.00  0.00    +0.000 C 
BRANCH  16  17
ATOM     17  N   UNL     1      42.864   3.803  11.340  0.00  0.00    +0.000 NA
ATOM     18  H   UNL     1      41.925   3.405  11.402  0.00  0.00    +0.000 HD
ATOM     19  H   UNL     1      43.024   3.936  10.341  0.00  0.00    +0.000 HD
ENDBRANCH  16  17
ENDBRANCH  15  16
ENDBRANCH   1  15
BRANCH   1  20
ATOM     20  C   UNL     1      45.502   5.035  13.707  0.00  0.00    +0.000 C 
BRANCH  20  21
ATOM     21  C   UNL     1      46.715   4.921  14.578  0.00  0.00    +0.000 A 
ATOM     22  C   UNL     1      46.934   3.753  15.316  0.00  0.00    +0.000 A 
ATOM     23  C   UNL     1      47.964   3.700  16.248  0.00  0.00    +0.000 A 
ATOM     24  C   UNL     1      48.785   4.814  16.464  0.00  0.00    +0.000 A 
ATOM     25  C   UNL     1      48.631   5.937  15.639  0.00  0.00    +0.000 A 
ATOM     26  C   UNL     1      47.617   5.983  14.685  0.00  0.00    +0.000 A 
BRANCH  24  27
ATOM     27  C   UNL     1      49.750   4.874  17.568  0.00  0.00    +0.000 C 
ATOM     28  C   UNL     1      50.568   3.861  17.892  0.00  0.00    +0.000 C 
BRANCH  28  29
ATOM     29  C   UNL     1      51.679   3.932  18.901  0.00  0.00    +0.000 C 
BRANCH  29  30
ATOM     30  N   UNL     1      52.900   3.470  18.242  0.00  0.00    +0.000 NA
ATOM     31  C   UNL     1      54.113   3.794  18.995  0.00  0.00    +0.000 C 
ATOM     32  C   UNL     1      54.479   2.536  19.748  0.00  0.00    +0.000 C 
ATOM     33  O   UNL     1      53.786   1.458  19.119  0.00  0.00    +0.000 OA
ATOM     34  C   UNL     1      52.963   2.025  18.101  0.00  0.00    +0.000 C 
ENDBRANCH  29  30
ENDBRANCH  28  29
ENDBRANCH  24  27
ENDBRANCH  20  21
ENDBRANCH   1  20
TORSDOF 9
ENDMDL
MODEL 9
REMARK VINA RESULT:    -5.146      3.375      9.839
REMARK INTER + INTRA:          -9.163
REMARK INTER:                  -8.393
REMARK INTRA:                  -0.770
REMARK UNBOUND:                -1.460
REMARK  Name = 
REMARK  9 active torsions:
REMARK  status: ('A' for Active; 'I' for Inactive)
REMARK    1  A    between atoms: N_1  and  C_2
REMARK    2  A    between atoms: C_2  and  C_3
REMARK    3  A    between atoms: C_3  and  N_4
REMARK    4  A    between atoms: N_4  and  C_5
REMARK    5  A    between atoms: C_5  and  C_6
REMARK    6  A    between atoms: C_9  and  C_10
REMARK    7  A    between atoms: C_11  and  C_12
REMARK    8  A    between atoms: C_12  and  N_13
REMARK    9  A    between atoms: C_20  and  C_22
REMARK                            x       y       z     vdW  Elec       q    Type
REMARK                         _______ _______ _______ _____ _____    ______ ____
ROOT
ATOM      1  N   UNL     1      49.868   4.866  17.480  0.00  0.00    +0.000 N 
ATOM      2  C   UNL     1      51.217   5.263  17.380  0.00  0.00    +0.000 C 
ATOM      3  O   UNL     1      52.131   4.448  17.515  0.00  0.00    +0.000 OA
ENDROOT
BRANCH   2   4
ATOM      4  C   UNL     1      51.535   6.673  17.112  0.00  0.00    +0.000 A 
ATOM      5  C   UNL     1      51.975   7.166  15.890  0.00  0.00    +0.000 A 
ATOM      6  S   UNL     1      52.221   8.853  15.868  0.00  0.00    +0.000 S 
ATOM      7  C   UNL     1      51.614   9.001  17.448  0.00  0.00    +0.000 A 
ATOM      8  N   UNL     1      51.451  10.233  18.011  0.00  0.00    +0.000 NA
ATOM      9  C   UNL     1      50.947  10.201  19.199  0.00  0.00    +0.000 A 
ATOM     10  N   UNL     1      50.626   9.061  19.885  0.00  0.00    +0.000 N 
ATOM     11  C   UNL     1      50.891   7.785  19.403  0.00  0.00    +0.000 A 
ATOM     12  O   UNL     1      50.811   6.816  20.153  0.00  0.00    +0.000 OA
ATOM     13  C   UNL     1      51.338   7.782  18.023  0.00  0.00    +0.000 A 
ATOM     14  H   UNL     1      50.308   9.107  20.844  0.00  0.00    +0.000 HD
ENDBRANCH   2   4
BRANCH   1  15
ATOM     15  C   UNL     1      49.627   3.428  17.738  0.00  0.00    +0.000 C 
BRANCH  15  16
ATOM     16  C   UNL     1      48.384   3.060  18.588  0.00  0.00    +0.000 C 
BRANCH  16  17
ATOM     17  N   UNL     1      48.428   3.459  20.001  0.00  0.00    +0.000 NA
ATOM     18  H   UNL     1      48.673   2.632  20.551  0.00  0.00    +0.000 HD
ATOM     19  H   UNL     1      47.487   3.706  20.309  0.00  0.00    +0.000 HD
ENDBRANCH  16  17
ENDBRANCH  15  16
ENDBRANCH   1  15
BRANCH   1  20
ATOM     20  C   UNL     1      48.770   5.777  17.109  0.00  0.00    +0.000 C 
BRANCH  20  21
ATOM     21  C   UNL     1      48.228   5.722  15.714  0.00  0.00    +0.000 A 
ATOM     22  C   UNL     1      48.559   6.725  14.798  0.00  0.00    +0.000 A 
ATOM     23  C   UNL     1      47.933   6.771  13.557  0.00  0.00    +0.000 A 
ATOM     24  C   UNL     1      46.963   5.821  13.216  0.00  0.00    +0.000 A 
ATOM     25  C   UNL     1      46.723   4.754  14.092  0.00  0.00    +0.000 A 
ATOM     26  C   UNL     1      47.368   4.690  15.325  0.00  0.00    +0.000 A 
BRANCH  24  27
ATOM     27  C   UNL     1      46.138   5.944  12.007  0.00  0.00    +0.000 C 
ATOM     28  C   UNL     1      45.501   4.910  11.438  0.00  0.00    +0.000 C 
BRANCH  28  29
ATOM     29  C   UNL     1      44.520   5.013  10.305  0.00  0.00    +0.000 C 
BRANCH  29  30
ATOM     30  N   UNL     1      43.242   4.486  10.782  0.00  0.00    +0.000 NA
ATOM     31  C   UNL     1      43.396   3.360  11.705  0.00  0.00    +0.000 C 
ATOM     32  C   UNL     1      43.257   3.943  13.093  0.00  0.00    +0.000 C 
ATOM     33  O   UNL     1      42.628   5.215  12.949  0.00  0.00    +0.000 OA
ATOM     34  C   UNL     1      42.474   5.452  11.550  0.00  0.00    +0.000 C 
ENDBRANCH  29  30
ENDBRANCH  28  29
ENDBRANCH  24  27
ENDBRANCH  20  21
ENDBRANCH   1  20
TORSDOF 9
ENDMDL
