MODEL 1
REMARK VINA RESULT:    -6.852      0.000      0.000
REMARK INTER + INTRA:         -11.047
REMARK INTER:                 -10.057
REMARK INTRA:                  -0.991
REMARK UNBOUND:                -0.991
REMARK  Name = 
REMARK  9 active torsions:
REMARK  status: ('A' for Active; 'I' for Inactive)
REMARK    1  A    between atoms: C_1  and  O_2
REMARK    2  A    between atoms: O_2  and  C_3
REMARK    3  A    between atoms: C_10  and  C_11
REMARK    4  A    between atoms: N_13  and  C_14
REMARK    5  A    between atoms: C_14  and  C_15
REMARK    6  A    between atoms: C_18  and  N_19
REMARK    7  A    between atoms: N_19  and  C_20
REMARK    8  A    between atoms: C_20  and  C_21
REMARK    9  A    between atoms: C_21  and  N_22
REMARK                            x       y       z     vdW  Elec       q    Type
REMARK                         _______ _______ _______ _____ _____    ______ ____
ROOT
ATOM      1  C   UNL     1      48.748   7.650  15.533  0.00  0.00    +0.000 C 
ENDROOT
BRANCH   1   2
ATOM      2  C   UNL     1      48.021   7.129  14.324  0.00  0.00    +0.000 A 
ATOM      3  C   UNL     1      47.569   5.806  14.285  0.00  0.00    +0.000 A 
ATOM      4  C   UNL     1      46.861   5.325  13.178  0.00  0.00    +0.000 A 
ATOM      5  C   UNL     1      46.562   6.156  12.094  0.00  0.00    +0.000 A 
ATOM      6  C   UNL     1      47.099   7.449  12.100  0.00  0.00    +0.000 A 
ATOM      7  C   UNL     1      47.810   7.938  13.202  0.00  0.00    +0.000 A 
BRANCH   5   8
ATOM      8  N   UNL     1      45.894   5.725  10.937  0.00  0.00    +0.000 N 
ATOM      9  H   UNL     1      46.582   5.308  10.310  0.00  0.00    +0.000 HD
BRANCH   8  10
ATOM     10  C   UNL     1      44.723   4.845  11.082  0.00  0.00    +0.000 C 
BRANCH  10  11
ATOM     11  C   UNL     1      45.046   3.400  10.632  0.00  0.00    +0.000 C 
BRANCH  11  12
ATOM     12  N   UNL     1      44.386   2.999   9.370  0.00  0.00    +0.000 NA
ATOM     13  C   UNL     1      44.759   1.652   8.889  0.00  0.00    +0.000 C 
ATOM     14  C   UNL     1      46.162   1.557   8.263  0.00  0.00    +0.000 C 
ATOM     15  O   UNL     1      46.340   2.520   7.218  0.00  0.00    +0.000 OA
ATOM     16  C   UNL     1      46.093   3.846   7.702  0.00  0.00    +0.000 C 
ATOM     17  C   UNL     1      44.675   3.968   8.286  0.00  0.00    +0.000 C 
ENDBRANCH  11  12
ENDBRANCH  10  11
ENDBRANCH   8  10
ENDBRANCH   5   8
ENDBRANCH   1   2
BRANCH   1  20
ATOM     18  C   UNL     1      49.696   6.108  17.178  0.00  0.00    +0.000 C 
ATOM     19  O   UNL     1      48.749   6.309  17.938  0.00  0.00    +0.000 OA
ATOM     20  N   UNL     1      49.775   6.736  15.966  0.00  0.00    +0.000 N 
ATOM     21  H   UNL     1      50.577   6.602  15.366  0.00  0.00    +0.000 HD
BRANCH  18  29
ATOM     22  C   UNL     1      50.082   2.689  17.012  0.00  0.00    +0.000 A 
ATOM     23  N   UNL     1      50.503   1.408  17.049  0.00  0.00    +0.000 NA
ATOM     24  C   UNL     1      51.723   1.160  17.532  0.00  0.00    +0.000 A 
ATOM     25  N   UNL     1      52.596   2.050  17.996  0.00  0.00    +0.000 NA
ATOM     26  C   UNL     1      52.141   3.312  17.935  0.00  0.00    +0.000 A 
ATOM     27  S   UNL     1      53.124   4.581  18.492  0.00  0.00    +0.000 S 
ATOM     28  C   UNL     1      51.938   5.733  18.108  0.00  0.00    +0.000 A 
ATOM     29  C   UNL     1      50.786   5.191  17.547  0.00  0.00    +0.000 A 
ATOM     30  C   UNL     1      50.907   3.739  17.453  0.00  0.00    +0.000 A 
BRANCH  22  32
ATOM     31  C   UNL     1      47.799   2.902  17.462  0.00  0.00    +0.000 C 
ATOM     32  O   UNL     1      48.834   2.945  16.482  0.00  0.00    +0.000 OA
ENDBRANCH  22  32
ENDBRANCH  18  29
ENDBRANCH   1  20
TORSDOF 8
ENDMDL
MODEL 2
REMARK VINA RESULT:    -6.564      2.176      2.854
REMARK INTER + INTRA:         -10.625
REMARK INTER:                  -9.677
REMARK INTRA:                  -0.948
REMARK UNBOUND:                -0.991
REMARK  Name = 
REMARK  9 active torsions:
REMARK  status: ('A' for Active; 'I' for Inactive)
REMARK    1  A    between atoms: C_1  and  O_2
REMARK    2  A    between atoms: O_2  and  C_3
REMARK    3  A    between atoms: C_10  and  C_11
REMARK    4  A    between atoms: N_13  and  C_14
REMARK    5  A    between atoms: C_14  and  C_15
REMARK    6  A    between atoms: C_18  and  N_19
REMARK    7  A    between atoms: N_19  and  C_20
REMARK    8  A    between atoms: C_20  and  C_21
REMARK    9  A    between atoms: C_21  and  N_22
REMARK                            x       y       z     vdW  Elec       q    Type
REMARK                         _______ _______ _______ _____ _____    ______ ____
ROOT
ATOM      1  C   UNL     1      47.516   7.620  13.521  0.00  0.00    +0.000 C 
ENDROOT
BRANCH   1   2
ATOM      2  C   UNL     1      46.570   6.471  13.300  0.00  0.00    +0.000 A 
ATOM      3  C   UNL     1      45.256   6.706  12.886  0.00  0.00    +0.000 A 
ATOM      4  C   UNL     1      44.382   5.641  12.644  0.00  0.00    +0.000 A 
ATOM      5  C   UNL     1      44.802   4.315  12.783  0.00  0.00    +0.000 A 
ATOM      6  C   UNL     1      46.088   4.091  13.288  0.00  0.00    +0.000 A 
ATOM      7  C   UNL     1      46.970   5.151  13.533  0.00  0.00    +0.000 A 
BRANCH   5   8
ATOM      8  N   UNL     1      43.965   3.203  12.597  0.00  0.00    +0.000 N 
ATOM      9  H   UNL     1      43.151   3.315  13.201  0.00  0.00    +0.000 HD
BRANCH   8  10
ATOM     10  C   UNL     1      43.552   2.849  11.229  0.00  0.00    +0.000 C 
BRANCH  10  11
ATOM     11  C   UNL     1      44.723   3.003  10.230  0.00  0.00    +0.000 C 
BRANCH  11  12
ATOM     12  N   UNL     1      44.387   2.613   8.843  0.00  0.00    +0.000 NA
ATOM     13  C   UNL     1      45.004   1.344   8.400  0.00  0.00    +0.000 C 
ATOM     14  C   UNL     1      46.506   1.436   8.081  0.00  0.00    +0.000 C 
ATOM     15  O   UNL     1      46.783   2.474   7.135  0.00  0.00    +0.000 OA
ATOM     16  C   UNL     1      46.291   3.735   7.606  0.00  0.00    +0.000 C 
ATOM     17  C   UNL     1      44.779   3.671   7.881  0.00  0.00    +0.000 C 
ENDBRANCH  11  12
ENDBRANCH  10  11
ENDBRANCH   8  10
ENDBRANCH   5   8
ENDBRANCH   1   2
BRANCH   1  20
ATOM     18  C   UNL     1      49.285   7.371  15.191  0.00  0.00    +0.000 C 
ATOM     19  O   UNL     1      50.091   7.057  14.317  0.00  0.00    +0.000 OA
ATOM     20  N   UNL     1      47.985   7.663  14.883  0.00  0.00    +0.000 N 
ATOM     21  H   UNL     1      47.317   7.877  15.611  0.00  0.00    +0.000 HD
BRANCH  18  29
ATOM     22  C   UNL     1      49.328   5.072  17.756  0.00  0.00    +0.000 A 
ATOM     23  N   UNL     1      49.465   4.392  18.913  0.00  0.00    +0.000 NA
ATOM     24  C   UNL     1      49.941   5.047  19.975  0.00  0.00    +0.000 A 
ATOM     25  N   UNL     1      50.304   6.325  20.030  0.00  0.00    +0.000 NA
ATOM     26  C   UNL     1      50.159   6.964  18.857  0.00  0.00    +0.000 A 
ATOM     27  S   UNL     1      50.570   8.607  18.745  0.00  0.00    +0.000 S 
ATOM     28  C   UNL     1      50.138   8.654  17.104  0.00  0.00    +0.000 A 
ATOM     29  C   UNL     1      49.685   7.437  16.606  0.00  0.00    +0.000 A 
ATOM     30  C   UNL     1      49.691   6.427  17.661  0.00  0.00    +0.000 A 
BRANCH  22  32
ATOM     31  C   UNL     1      47.682   3.638  16.923  0.00  0.00    +0.000 C 
ATOM     32  O   UNL     1      48.867   4.384  16.652  0.00  0.00    +0.000 OA
ENDBRANCH  22  32
ENDBRANCH  18  29
ENDBRANCH   1  20
TORSDOF 8
ENDMDL
MODEL 3
REMARK VINA RESULT:    -6.532      1.958      3.449
REMARK INTER + INTRA:         -10.578
REMARK INTER:                  -9.477
REMARK INTRA:                  -1.101
REMARK UNBOUND:                -0.991
REMARK  Name = 
REMARK  9 active torsions:
REMARK  status: ('A' for Active; 'I' for Inactive)
REMARK    1  A    between atoms: C_1  and  O_2
REMARK    2  A    between atoms: O_2  and  C_3
REMARK    3  A    between atoms: C_10  and  C_11
REMARK    4  A    between atoms: N_13  and  C_14
REMARK    5  A    between atoms: C_14  and  C_15
REMARK    6  A    between atoms: C_18  and  N_19
REMARK    7  A    between atoms: N_19  and  C_20
REMARK    8  A    between atoms: C_20  and  C_21
REMARK    9  A    between atoms: C_21  and  N_22
REMARK                            x       y       z     vdW  Elec       q    Type
REMARK                         _______ _______ _______ _____ _____    ______ ____
ROOT
ATOM      1  C   UNL     1      47.651   3.583  17.213  0.00  0.00    +0.000 C 
ENDROOT
BRANCH   1   2
ATOM      2  C   UNL     1      47.532   4.319  15.906  0.00  0.00    +0.000 A 
ATOM      3  C   UNL     1      48.060   5.606  15.768  0.00  0.00    +0.000 A 
ATOM      4  C   UNL     1      47.986   6.282  14.545  0.00  0.00    +0.000 A 
ATOM      5  C   UNL     1      47.407   5.683  13.423  0.00  0.00    +0.000 A 
ATOM      6  C   UNL     1      46.798   4.434  13.594  0.00  0.00    +0.000 A 
ATOM      7  C   UNL     1      46.867   3.751  14.814  0.00  0.00    +0.000 A 
BRANCH   5   8
ATOM      8  N   UNL     1      47.262   6.321  12.180  0.00  0.00    +0.000 N 
ATOM      9  H   UNL     1      47.901   5.878  11.520  0.00  0.00    +0.000 HD
BRANCH   8  10
ATOM     10  C   UNL     1      45.915   6.439  11.599  0.00  0.00    +0.000 C 
BRANCH  10  11
ATOM     11  C   UNL     1      45.768   5.560  10.334  0.00  0.00    +0.000 C 
BRANCH  11  12
ATOM     12  N   UNL     1      44.367   5.249   9.976  0.00  0.00    +0.000 NA
ATOM     13  C   UNL     1      43.510   4.885  11.124  0.00  0.00    +0.000 C 
ATOM     14  C   UNL     1      43.750   3.472  11.684  0.00  0.00    +0.000 C 
ATOM     15  O   UNL     1      43.652   2.474  10.661  0.00  0.00    +0.000 OA
ATOM     16  C   UNL     1      44.564   2.753   9.591  0.00  0.00    +0.000 C 
ATOM     17  C   UNL     1      44.301   4.144   8.989  0.00  0.00    +0.000 C 
ENDBRANCH  11  12
ENDBRANCH  10  11
ENDBRANCH   8  10
ENDBRANCH   5   8
ENDBRANCH   1   2
BRANCH   1  20
ATOM     18  C   UNL     1      49.798   2.432  16.994  0.00  0.00    +0.000 C 
ATOM     19  O   UNL     1      49.333   1.695  16.125  0.00  0.00    +0.000 OA
ATOM     20  N   UNL     1      49.030   3.394  17.588  0.00  0.00    +0.000 N 
ATOM     21  H   UNL     1      49.404   3.966  18.333  0.00  0.00    +0.000 HD
BRANCH  18  29
ATOM     22  C   UNL     1      52.237   4.705  17.859  0.00  0.00    +0.000 A 
ATOM     23  N   UNL     1      53.351   5.355  18.255  0.00  0.00    +0.000 NA
ATOM     24  C   UNL     1      54.425   4.627  18.573  0.00  0.00    +0.000 A 
ATOM     25  N   UNL     1      54.530   3.301  18.543  0.00  0.00    +0.000 NA
ATOM     26  C   UNL     1      53.398   2.693  18.150  0.00  0.00    +0.000 A 
ATOM     27  S   UNL     1      53.354   0.999  18.048  0.00  0.00    +0.000 S 
ATOM     28  C   UNL     1      51.737   1.024  17.531  0.00  0.00    +0.000 A 
ATOM     29  C   UNL     1      51.196   2.302  17.434  0.00  0.00    +0.000 A 
ATOM     30  C   UNL     1      52.197   3.301  17.797  0.00  0.00    +0.000 A 
BRANCH  22  32
ATOM     31  C   UNL     1      51.359   6.422  16.539  0.00  0.00    +0.000 C 
ATOM     32  O   UNL     1      51.120   5.459  17.563  0.00  0.00    +0.000 OA
ENDBRANCH  22  32
ENDBRANCH  18  29
ENDBRANCH   1  20
TORSDOF 8
ENDMDL
MODEL 4
REMARK VINA RESULT:    -6.377      2.399      2.917
REMARK INTER + INTRA:         -10.351
REMARK INTER:                  -9.321
REMARK INTRA:                  -1.030
REMARK UNBOUND:                -0.991
REMARK  Name = 
REMARK  9 active torsions:
REMARK  status: ('A' for Active; 'I' for Inactive)
REMARK    1  A    between atoms: C_1  and  O_2
REMARK    2  A    between atoms: O_2  and  C_3
REMARK    3  A    between atoms: C_10  and  C_11
REMARK    4  A    between atoms: N_13  and  C_14
REMARK    5  A    between atoms: C_14  and  C_15
REMARK    6  A    between atoms: C_18  and  N_19
REMARK    7  A    between atoms: N_19  and  C_20
REMARK    8  A    between atoms: C_20  and  C_21
REMARK    9  A    between atoms: C_21  and  N_22
REMARK                            x       y       z     vdW  Elec       q    Type
REMARK                         _______ _______ _______ _____ _____    ______ ____
ROOT
ATOM      1  C   UNL     1      48.984   7.089  13.771  0.00  0.00    +0.000 C 
ENDROOT
BRANCH   1   2
ATOM      2  C   UNL     1      47.553   6.740  13.466  0.00  0.00    +0.000 A 
ATOM      3  C   UNL     1      47.055   5.469  13.769  0.00  0.00    +0.000 A 
ATOM      4  C   UNL     1      45.716   5.149  13.522  0.00  0.00    +0.000 A 
ATOM      5  C   UNL     1      44.832   6.094  12.993  0.00  0.00    +0.000 A 
ATOM      6  C   UNL     1      45.361   7.332  12.606  0.00  0.00    +0.000 A 
ATOM      7  C   UNL     1      46.700   7.660  12.848  0.00  0.00    +0.000 A 
BRANCH   5   8
ATOM      8  N   UNL     1      43.489   5.826  12.682  0.00  0.00    +0.000 N 
ATOM      9  H   UNL     1      42.903   6.415  13.273  0.00  0.00    +0.000 HD
BRANCH   8  10
ATOM     10  C   UNL     1      43.058   5.909  11.276  0.00  0.00    +0.000 C 
BRANCH  10  11
ATOM     11  C   UNL     1      43.390   4.607  10.508  0.00  0.00    +0.000 C 
BRANCH  11  12
ATOM     12  N   UNL     1      44.830   4.271  10.484  0.00  0.00    +0.000 NA
ATOM     13  C   UNL     1      45.561   4.802   9.313  0.00  0.00    +0.000 C 
ATOM     14  C   UNL     1      45.296   4.051   7.996  0.00  0.00    +0.000 C 
ATOM     15  O   UNL     1      45.537   2.646   8.131  0.00  0.00    +0.000 OA
ATOM     16  C   UNL     1      44.745   2.095   9.191  0.00  0.00    +0.000 C 
ATOM     17  C   UNL     1      45.037   2.804  10.525  0.00  0.00    +0.000 C 
ENDBRANCH  11  12
ENDBRANCH  10  11
ENDBRANCH   8  10
ENDBRANCH   5   8
ENDBRANCH   1   2
BRANCH   1  20
ATOM     18  C   UNL     1      48.974   7.885  16.084  0.00  0.00    +0.000 C 
ATOM     19  O   UNL     1      48.438   8.936  15.737  0.00  0.00    +0.000 OA
ATOM     20  N   UNL     1      49.283   6.915  15.170  0.00  0.00    +0.000 N 
ATOM     21  H   UNL     1      49.765   6.073  15.454  0.00  0.00    +0.000 HD
BRANCH  18  29
ATOM     22  C   UNL     1      48.450   5.228  18.213  0.00  0.00    +0.000 A 
ATOM     23  N   UNL     1      48.398   4.352  19.237  0.00  0.00    +0.000 NA
ATOM     24  C   UNL     1      48.942   4.712  20.402  0.00  0.00    +0.000 A 
ATOM     25  N   UNL     1      49.545   5.865  20.681  0.00  0.00    +0.000 NA
ATOM     26  C   UNL     1      49.581   6.706  19.635  0.00  0.00    +0.000 A 
ATOM     27  S   UNL     1      50.309   8.229  19.813  0.00  0.00    +0.000 S 
ATOM     28  C   UNL     1      49.971   8.634  18.199  0.00  0.00    +0.000 A 
ATOM     29  C   UNL     1      49.314   7.632  17.493  0.00  0.00    +0.000 A 
ATOM     30  C   UNL     1      49.073   6.480  18.358  0.00  0.00    +0.000 A 
BRANCH  22  32
ATOM     31  C   UNL     1      47.404   3.510  17.025  0.00  0.00    +0.000 C 
ATOM     32  O   UNL     1      47.916   4.841  17.002  0.00  0.00    +0.000 OA
ENDBRANCH  22  32
ENDBRANCH  18  29
ENDBRANCH   1  20
TORSDOF 8
ENDMDL
MODEL 5
REMARK VINA RESULT:    -6.246      1.699      2.043
REMARK INTER + INTRA:         -10.158
REMARK INTER:                  -9.273
REMARK INTRA:                  -0.885
REMARK UNBOUND:                -0.991
REMARK  Name = 
REMARK  9 active torsions:
REMARK  status: ('A' for Active; 'I' for Inactive)
REMARK    1  A    between atoms: C_1  and  O_2
REMARK    2  A    between atoms: O_2  and  C_3
REMARK    3  A    between atoms: C_10  and  C_11
REMARK    4  A    between atoms: N_13  and  C_14
REMARK    5  A    between atoms: C_14  and  C_15
REMARK    6  A    between atoms: C_18  and  N_19
REMARK    7  A    between atoms: N_19  and  C_20
REMARK    8  A    between atoms: C_20  and  C_21
REMARK    9  A    between atoms: C_21  and  N_22
REMARK                            x       y       z     vdW  Elec       q    Type
REMARK                         _______ _______ _______ _____ _____    ______ ____
ROOT
ATOM      1  C   UNL     1      48.473   8.122  13.485  0.00  0.00    +0.000 C 
ENDROOT
BRANCH   1   2
ATOM      2  C   UNL     1      47.254   7.270  13.258  0.00  0.00    +0.000 A 
ATOM      3  C   UNL     1      47.230   5.940  13.686  0.00  0.00    +0.000 A 
ATOM      4  C   UNL     1      46.086   5.153  13.512  0.00  0.00    +0.000 A 
ATOM      5  C   UNL     1      44.929   5.679  12.931  0.00  0.00    +0.000 A 
ATOM      6  C   UNL     1      44.992   6.981  12.421  0.00  0.00    +0.000 A 
ATOM      7  C   UNL     1      46.133   7.775  12.590  0.00  0.00    +0.000 A 
BRANCH   5   8
ATOM      8  N   UNL     1      43.764   4.933  12.688  0.00  0.00    +0.000 N 
ATOM      9  H   UNL     1      43.273   5.359  11.902  0.00  0.00    +0.000 HD
BRANCH   8  10
ATOM     10  C   UNL     1      43.882   3.478  12.499  0.00  0.00    +0.000 C 
BRANCH  10  11
ATOM     11  C   UNL     1      44.792   3.138  11.295  0.00  0.00    +0.000 C 
BRANCH  11  12
ATOM     12  N   UNL     1      44.071   3.021  10.008  0.00  0.00    +0.000 NA
ATOM     13  C   UNL     1      44.473   1.858   9.189  0.00  0.00    +0.000 C 
ATOM     14  C   UNL     1      45.835   2.004   8.487  0.00  0.00    +0.000 C 
ATOM     15  O   UNL     1      45.901   3.203   7.707  0.00  0.00    +0.000 OA
ATOM     16  C   UNL     1      45.626   4.353   8.518  0.00  0.00    +0.000 C 
ATOM     17  C   UNL     1      44.245   4.242   9.185  0.00  0.00    +0.000 C 
ENDBRANCH  11  12
ENDBRANCH  10  11
ENDBRANCH   8  10
ENDBRANCH   5   8
ENDBRANCH   1   2
BRANCH   1  20
ATOM     18  C   UNL     1      50.060   7.849  15.326  0.00  0.00    +0.000 C 
ATOM     19  O   UNL     1      49.688   8.909  15.826  0.00  0.00    +0.000 OA
ATOM     20  N   UNL     1      49.511   7.386  14.162  0.00  0.00    +0.000 N 
ATOM     21  H   UNL     1      49.852   6.538  13.731  0.00  0.00    +0.000 HD
BRANCH  18  29
ATOM     22  C   UNL     1      50.030   5.056  17.343  0.00  0.00    +0.000 A 
ATOM     23  N   UNL     1      50.311   3.984  18.110  0.00  0.00    +0.000 NA
ATOM     24  C   UNL     1      51.594   3.706  18.360  0.00  0.00    +0.000 A 
ATOM     25  N   UNL     1      52.656   4.381  17.930  0.00  0.00    +0.000 NA
ATOM     26  C   UNL     1      52.334   5.436  17.164  0.00  0.00    +0.000 A 
ATOM     27  S   UNL     1      53.568   6.418  16.533  0.00  0.00    +0.000 S 
ATOM     28  C   UNL     1      52.439   7.424  15.761  0.00  0.00    +0.000 A 
ATOM     29  C   UNL     1      51.117   7.040  15.954  0.00  0.00    +0.000 A 
ATOM     30  C   UNL     1      51.056   5.853  16.803  0.00  0.00    +0.000 A 
BRANCH  22  32
ATOM     31  C   UNL     1      47.934   4.136  16.877  0.00  0.00    +0.000 C 
ATOM     32  O   UNL     1      48.706   5.321  17.060  0.00  0.00    +0.000 OA
ENDBRANCH  22  32
ENDBRANCH  18  29
ENDBRANCH   1  20
TORSDOF 8
ENDMDL
MODEL 6
REMARK VINA RESULT:    -6.204      1.662      2.392
REMARK INTER + INTRA:         -10.096
REMARK INTER:                  -8.912
REMARK INTRA:                  -1.184
REMARK UNBOUND:                -0.991
REMARK  Name = 
REMARK  9 active torsions:
REMARK  status: ('A' for Active; 'I' for Inactive)
REMARK    1  A    between atoms: C_1  and  O_2
REMARK    2  A    between atoms: O_2  and  C_3
REMARK    3  A    between atoms: C_10  and  C_11
REMARK    4  A    between atoms: N_13  and  C_14
REMARK    5  A    between atoms: C_14  and  C_15
REMARK    6  A    between atoms: C_18  and  N_19
REMARK    7  A    between atoms: N_19  and  C_20
REMARK    8  A    between atoms: C_20  and  C_21
REMARK    9  A    between atoms: C_21  and  N_22
REMARK                            x       y       z     vdW  Elec       q    Type
REMARK                         _______ _______ _______ _____ _____    ______ ____
ROOT
ATOM      1  C   UNL     1      49.660   7.560  16.916  0.00  0.00    +0.000 C 
ENDROOT
BRANCH   1   2
ATOM      2  C   UNL     1      48.992   7.474  15.571  0.00  0.00    +0.000 A 
ATOM      3  C   UNL     1      48.966   8.584  14.721  0.00  0.00    +0.000 A 
ATOM      4  C   UNL     1      48.379   8.501  13.454  0.00  0.00    +0.000 A 
ATOM      5  C   UNL     1      47.826   7.304  12.991  0.00  0.00    +0.000 A 
ATOM      6  C   UNL     1      47.772   6.226  13.883  0.00  0.00    +0.000 A 
ATOM      7  C   UNL     1      48.356   6.301  15.153  0.00  0.00    +0.000 A 
BRANCH   5   8
ATOM      8  N   UNL     1      47.184   7.164  11.750  0.00  0.00    +0.000 N 
ATOM      9  H   UNL     1      47.762   6.567  11.159  0.00  0.00    +0.000 HD
BRANCH   8  10
ATOM     10  C   UNL     1      45.782   6.717  11.725  0.00  0.00    +0.000 C 
BRANCH  10  11
ATOM     11  C   UNL     1      45.606   5.465  10.833  0.00  0.00    +0.000 C 
BRANCH  11  12
ATOM     12  N   UNL     1      44.214   5.228  10.394  0.00  0.00    +0.000 NA
ATOM     13  C   UNL     1      43.256   5.005  11.498  0.00  0.00    +0.000 C 
ATOM     14  C   UNL     1      43.352   3.621  12.163  0.00  0.00    +0.000 C 
ATOM     15  O   UNL     1      43.250   2.564  11.202  0.00  0.00    +0.000 OA
ATOM     16  C   UNL     1      44.250   2.704  10.186  0.00  0.00    +0.000 C 
ATOM     17  C   UNL     1      44.133   4.065   9.478  0.00  0.00    +0.000 C 
ENDBRANCH  11  12
ENDBRANCH  10  11
ENDBRANCH   8  10
ENDBRANCH   5   8
ENDBRANCH   1   2
BRANCH   1  20
ATOM     18  C   UNL     1      50.884   6.073  18.424  0.00  0.00    +0.000 C 
ATOM     19  O   UNL     1      50.508   6.724  19.398  0.00  0.00    +0.000 OA
ATOM     20  N   UNL     1      50.512   6.423  17.155  0.00  0.00    +0.000 N 
ATOM     21  H   UNL     1      50.861   5.912  16.356  0.00  0.00    +0.000 HD
BRANCH  18  29
ATOM     22  C   UNL     1      50.674   2.797  17.379  0.00  0.00    +0.000 A 
ATOM     23  N   UNL     1      50.857   1.492  17.095  0.00  0.00    +0.000 NA
ATOM     24  C   UNL     1      51.965   0.898  17.547  0.00  0.00    +0.000 A 
ATOM     25  N   UNL     1      52.935   1.457  18.265  0.00  0.00    +0.000 NA
ATOM     26  C   UNL     1      52.718   2.757  18.520  0.00  0.00    +0.000 A 
ATOM     27  S   UNL     1      53.854   3.630  19.432  0.00  0.00    +0.000 S 
ATOM     28  C   UNL     1      52.930   5.049  19.315  0.00  0.00    +0.000 A 
ATOM     29  C   UNL     1      51.757   4.900  18.584  0.00  0.00    +0.000 A 
ATOM     30  C   UNL     1      51.628   3.522  18.115  0.00  0.00    +0.000 A 
BRANCH  22  32
ATOM     31  C   UNL     1      48.407   3.244  17.727  0.00  0.00    +0.000 C 
ATOM     32  O   UNL     1      49.544   3.416  16.883  0.00  0.00    +0.000 OA
ENDBRANCH  22  32
ENDBRANCH  18  29
ENDBRANCH   1  20
TORSDOF 8
ENDMDL
MODEL 7
REMARK VINA RESULT:    -6.051      2.874      8.510
REMARK INTER + INTRA:          -9.872
REMARK INTER:                  -8.762
REMARK INTRA:                  -1.111
REMARK UNBOUND:                -0.991
REMARK  Name = 
REMARK  9 active torsions:
REMARK  status: ('A' for Active; 'I' for Inactive)
REMARK    1  A    between atoms: C_1  and  O_2
REMARK    2  A    between atoms: O_2  and  C_3
REMARK    3  A    between atoms: C_10  and  C_11
REMARK    4  A    between atoms: N_13  and  C_14
REMARK    5  A    between atoms: C_14  and  C_15
REMARK    6  A    between atoms: C_18  and  N_19
REMARK    7  A    between atoms: N_19  and  C_20
REMARK    8  A    between atoms: C_20  and  C_21
REMARK    9  A    between atoms: C_21  and  N_22
REMARK                            x       y       z     vdW  Elec       q    Type
REMARK                         _______ _______ _______ _____ _____    ______ ____
ROOT
ATOM      1  C   UNL     1      47.736   7.705  11.773  0.00  0.00    +0.000 C 
ENDROOT
BRANCH   1   2
ATOM      2  C   UNL     1      48.406   7.908  13.104  0.00  0.00    +0.000 A 
ATOM      3  C   UNL     1      47.732   8.553  14.145  0.00  0.00    +0.000 A 
ATOM      4  C   UNL     1      48.336   8.712  15.398  0.00  0.00    +0.000 A 
ATOM      5  C   UNL     1      49.615   8.210  15.652  0.00  0.00    +0.000 A 
ATOM      6  C   UNL     1      50.318   7.649  14.579  0.00  0.00    +0.000 A 
ATOM      7  C   UNL     1      49.722   7.487  13.323  0.00  0.00    +0.000 A 
BRANCH   5   8
ATOM      8  N   UNL     1      50.294   8.373  16.871  0.00  0.00    +0.000 N 
ATOM      9  H   UNL     1      49.749   9.007  17.455  0.00  0.00    +0.000 HD
BRANCH   8  10
ATOM     10  C   UNL     1      50.683   7.173  17.630  0.00  0.00    +0.000 C 
BRANCH  10  11
ATOM     11  C   UNL     1      49.481   6.219  17.829  0.00  0.00    +0.000 C 
BRANCH  11  12
ATOM     12  N   UNL     1      49.456   5.076  16.890  0.00  0.00    +0.000 NA
ATOM     13  C   UNL     1      48.156   4.867  16.217  0.00  0.00    +0.000 C 
ATOM     14  C   UNL     1      47.064   4.246  17.105  0.00  0.00    +0.000 C 
ATOM     15  O   UNL     1      47.506   3.026  17.711  0.00  0.00    +0.000 OA
ATOM     16  C   UNL     1      48.706   3.239  18.465  0.00  0.00    +0.000 C 
ATOM     17  C   UNL     1      49.823   3.813  17.576  0.00  0.00    +0.000 C 
ENDBRANCH  11  12
ENDBRANCH  10  11
ENDBRANCH   8  10
ENDBRANCH   5   8
ENDBRANCH   1   2
BRANCH   1  20
ATOM     18  C   UNL     1      45.643   6.465  11.519  0.00  0.00    +0.000 C 
ATOM     19  O   UNL     1      45.022   7.514  11.350  0.00  0.00    +0.000 OA
ATOM     20  N   UNL     1      46.992   6.471  11.739  0.00  0.00    +0.000 N 
ATOM     21  H   UNL     1      47.489   5.610  11.922  0.00  0.00    +0.000 HD
BRANCH  18  29
ATOM     22  C   UNL     1      45.300   3.995   9.143  0.00  0.00    +0.000 A 
ATOM     23  N   UNL     1      45.022   2.887   8.427  0.00  0.00    +0.000 NA
ATOM     24  C   UNL     1      44.283   1.934   9.002  0.00  0.00    +0.000 A 
ATOM     25  N   UNL     1      43.773   1.950  10.230  0.00  0.00    +0.000 NA
ATOM     26  C   UNL     1      44.079   3.066  10.912  0.00  0.00    +0.000 A 
ATOM     27  S   UNL     1      43.505   3.259  12.499  0.00  0.00    +0.000 S 
ATOM     28  C   UNL     1      44.255   4.776  12.637  0.00  0.00    +0.000 A 
ATOM     29  C   UNL     1      44.956   5.164  11.501  0.00  0.00    +0.000 A 
ATOM     30  C   UNL     1      44.842   4.141  10.464  0.00  0.00    +0.000 A 
BRANCH  22  32
ATOM     31  C   UNL     1      46.843   4.465   7.452  0.00  0.00    +0.000 C 
ATOM     32  O   UNL     1      46.091   4.962   8.558  0.00  0.00    +0.000 OA
ENDBRANCH  22  32
ENDBRANCH  18  29
ENDBRANCH   1  20
TORSDOF 8
ENDMDL
MODEL 8
REMARK VINA RESULT:    -5.887      6.048      7.757
REMARK INTER + INTRA:          -9.630
REMARK INTER:                  -8.553
REMARK INTRA:                  -1.077
REMARK UNBOUND:                -0.991
REMARK  Name = 
REMARK  9 active torsions:
REMARK  status: ('A' for Active; 'I' for Inactive)
REMARK    1  A    between atoms: C_1  and  O_2
REMARK    2  A    between atoms: O_2  and  C_3
REMARK    3  A    between atoms: C_10  and  C_11
REMARK    4  A    between atoms: N_13  and  C_14
REMARK    5  A    between atoms: C_14  and  C_15
REMARK    6  A    between atoms: C_18  and  N_19
REMARK    7  A    between atoms: N_19  and  C_20
REMARK    8  A    between atoms: C_20  and  C_21
REMARK    9  A    between atoms: C_21  and  N_22
REMARK                            x       y       z     vdW  Elec       q    Type
REMARK                         _______ _______ _______ _____ _____    ______ ____
ROOT
ATOM      1  C   UNL     1      51.737   9.000  11.846  0.00  0.00    +0.000 C 
ENDROOT
BRANCH   1   2
ATOM      2  C   UNL     1      50.608   8.258  12.507  0.00  0.00    +0.000 A 
ATOM      3  C   UNL     1      49.545   7.764  11.745  0.00  0.00    +0.000 A 
ATOM      4  C   UNL     1      48.509   7.040  12.347  0.00  0.00    +0.000 A 
ATOM      5  C   UNL     1      48.520   6.768  13.718  0.00  0.00    +0.000 A 
ATOM      6  C   UNL     1      49.538   7.346  14.487  0.00  0.00    +0.000 A 
ATOM      7  C   UNL     1      50.577   8.072  13.893  0.00  0.00    +0.000 A 
BRANCH   5   8
ATOM      8  N   UNL     1      47.493   6.087  14.392  0.00  0.00    +0.000 N 
ATOM      9  H   UNL     1      46.834   6.779  14.748  0.00  0.00    +0.000 HD
BRANCH   8  10
ATOM     10  C   UNL     1      46.782   5.006  13.689  0.00  0.00    +0.000 C 
BRANCH  10  11
ATOM     11  C   UNL     1      45.326   5.413  13.357  0.00  0.00    +0.000 C 
BRANCH  11  12
ATOM     12  N   UNL     1      44.380   4.278  13.303  0.00  0.00    +0.000 NA
ATOM     13  C   UNL     1      44.783   3.192  12.383  0.00  0.00    +0.000 C 
ATOM     14  C   UNL     1      44.590   3.510  10.890  0.00  0.00    +0.000 C 
ATOM     15  O   UNL     1      43.248   3.923  10.606  0.00  0.00    +0.000 OA
ATOM     16  C   UNL     1      42.884   5.052  11.411  0.00  0.00    +0.000 C 
ATOM     17  C   UNL     1      43.024   4.731  12.909  0.00  0.00    +0.000 C 
ENDBRANCH  11  12
ENDBRANCH  10  11
ENDBRANCH   8  10
ENDBRANCH   5   8
ENDBRANCH   1   2
BRANCH   1  20
ATOM     18  C   UNL     1      52.919   9.096   9.707  0.00  0.00    +0.000 C 
ATOM     19  O   UNL     1      53.580  10.058  10.096  0.00  0.00    +0.000 OA
ATOM     20  N   UNL     1      51.980   8.513  10.512  0.00  0.00    +0.000 N 
ATOM     21  H   UNL     1      51.408   7.752  10.171  0.00  0.00    +0.000 HD
BRANCH  18  29
ATOM     22  C   UNL     1      53.510   5.921   8.507  0.00  0.00    +0.000 A 
ATOM     23  N   UNL     1      53.725   4.810   7.774  0.00  0.00    +0.000 NA
ATOM     24  C   UNL     1      53.798   4.935   6.446  0.00  0.00    +0.000 A 
ATOM     25  N   UNL     1      53.683   6.057   5.741  0.00  0.00    +0.000 NA
ATOM     26  C   UNL     1      53.464   7.138   6.507  0.00  0.00    +0.000 A 
ATOM     27  S   UNL     1      53.297   8.661   5.773  0.00  0.00    +0.000 S 
ATOM     28  C   UNL     1      53.070   9.415   7.277  0.00  0.00    +0.000 A 
ATOM     29  C   UNL     1      53.106   8.540   8.357  0.00  0.00    +0.000 A 
ATOM     30  C   UNL     1      53.351   7.177   7.894  0.00  0.00    +0.000 A 
BRANCH  22  32
ATOM     31  C   UNL     1      54.671   5.710  10.523  0.00  0.00    +0.000 C 
ATOM     32  O   UNL     1      53.403   5.784   9.875  0.00  0.00    +0.000 OA
ENDBRANCH  22  32
ENDBRANCH  18  29
ENDBRANCH   1  20
TORSDOF 8
ENDMDL
MODEL 9
REMARK VINA RESULT:    -5.542      3.978      8.510
REMARK INTER + INTRA:          -9.124
REMARK INTER:                  -7.646
REMARK INTRA:                  -1.478
REMARK UNBOUND:                -0.991
REMARK  Name = 
REMARK  9 active torsions:
REMARK  status: ('A' for Active; 'I' for Inactive)
REMARK    1  A    between atoms: C_1  and  O_2
REMARK    2  A    between atoms: O_2  and  C_3
REMARK    3  A    between atoms: C_10  and  C_11
REMARK    4  A    between atoms: N_13  and  C_14
REMARK    5  A    between atoms: C_14  and  C_15
REMARK    6  A    between atoms: C_18  and  N_19
REMARK    7  A    between atoms: N_19  and  C_20
REMARK    8  A    between atoms: C_20  and  C_21
REMARK    9  A    between atoms: C_21  and  N_22
REMARK                            x       y       z     vdW  Elec       q    Type
REMARK                         _______ _______ _______ _____ _____    ______ ____
ROOT
ATOM      1  C   UNL     1      49.319   8.992  14.466  0.00  0.00    +0.000 C 
ENDROOT
BRANCH   1   2
ATOM      2  C   UNL     1      49.210   9.131  15.960  0.00  0.00    +0.000 A 
ATOM      3  C   UNL     1      50.329   8.929  16.773  0.00  0.00    +0.000 A 
ATOM      4  C   UNL     1      50.244   9.092  18.160  0.00  0.00    +0.000 A 
ATOM      5  C   UNL     1      49.049   9.486  18.769  0.00  0.00    +0.000 A 
ATOM      6  C   UNL     1      47.911   9.593  17.960  0.00  0.00    +0.000 A 
ATOM      7  C   UNL     1      47.988   9.431  16.571  0.00  0.00    +0.000 A 
BRANCH   5   8
ATOM      8  N   UNL     1      48.884   9.625  20.157  0.00  0.00    +0.000 N 
ATOM      9  H   UNL     1      48.574  10.578  20.345  0.00  0.00    +0.000 HD
BRANCH   8  10
ATOM     10  C   UNL     1      48.040   8.654  20.871  0.00  0.00    +0.000 C 
BRANCH  10  11
ATOM     11  C   UNL     1      48.765   7.298  21.044  0.00  0.00    +0.000 C 
BRANCH  11  12
ATOM     12  N   UNL     1      47.912   6.119  20.776  0.00  0.00    +0.000 NA
ATOM     13  C   UNL     1      48.620   4.824  20.857  0.00  0.00    +0.000 C 
ATOM     14  C   UNL     1      49.537   4.515  19.661  0.00  0.00    +0.000 C 
ATOM     15  O   UNL     1      48.834   4.615  18.417  0.00  0.00    +0.000 OA
ATOM     16  C   UNL     1      48.239   5.910  18.273  0.00  0.00    +0.000 C 
ATOM     17  C   UNL     1      47.280   6.211  19.438  0.00  0.00    +0.000 C 
ENDBRANCH  11  12
ENDBRANCH  10  11
ENDBRANCH   8  10
ENDBRANCH   5   8
ENDBRANCH   1   2
BRANCH   1  20
ATOM     18  C   UNL     1      48.023   7.274  13.303  0.00  0.00    +0.000 C 
ATOM     19  O   UNL     1      49.011   6.544  13.244  0.00  0.00    +0.000 OA
ATOM     20  N   UNL     1      48.090   8.507  13.890  0.00  0.00    +0.000 N 
ATOM     21  H   UNL     1      47.286   9.120  13.895  0.00  0.00    +0.000 HD
BRANCH  18  29
ATOM     22  C   UNL     1      46.333   4.273  13.216  0.00  0.00    +0.000 A 
ATOM     23  N   UNL     1      45.463   3.256  13.048  0.00  0.00    +0.000 NA
ATOM     24  C   UNL     1      44.327   3.502  12.390  0.00  0.00    +0.000 A 
ATOM     25  N   UNL     1      43.942   4.662  11.865  0.00  0.00    +0.000 NA
ATOM     26  C   UNL     1      44.832   5.649  12.060  0.00  0.00    +0.000 A 
ATOM     27  S   UNL     1      44.505   7.200  11.451  0.00  0.00    +0.000 S 
ATOM     28  C   UNL     1      45.972   7.800  12.059  0.00  0.00    +0.000 A 
ATOM     29  C   UNL     1      46.731   6.853  12.737  0.00  0.00    +0.000 A 
ATOM     30  C   UNL     1      46.049   5.561  12.729  0.00  0.00    +0.000 A 
BRANCH  22  32
ATOM     31  C   UNL     1      47.260   3.872  15.323  0.00  0.00    +0.000 C 
ATOM     32  O   UNL     1      47.491   4.024  13.924  0.00  0.00    +0.000 OA
ENDBRANCH  22  32
ENDBRANCH  18  29
ENDBRANCH   1  20
TORSDOF 8
ENDMDL
