MODEL 1
REMARK VINA RESULT:    -7.338      0.000      0.000
REMARK INTER + INTRA:         -10.312
REMARK INTER:                  -9.697
REMARK INTRA:                  -0.615
REMARK UNBOUND:                -0.615
REMARK  Name = 
REMARK  6 active torsions:
REMARK  status: ('A' for Active; 'I' for Inactive)
REMARK    1  A    between atoms: N_1  and  C_2
REMARK    2  A    between atoms: C_2  and  C_3
REMARK    3  A    between atoms: C_7  and  O_8
REMARK    4  A    between atoms: O_8  and  C_9
REMARK    5  A    between atoms: C_9  and  C_10
REMARK    6  A    between atoms: C_10  and  C_11
REMARK                            x       y       z     vdW  Elec       q    Type
REMARK                         _______ _______ _______ _____ _____    ______ ____
ROOT
ATOM      1  C   UNL     1      46.594   5.090  13.403  0.00  0.00    +0.000 A 
ATOM      2  C   UNL     1      47.225   6.166  12.762  0.00  0.00    +0.000 A 
ATOM      3  C   UNL     1      46.772   6.618  11.525  0.00  0.00    +0.000 A 
ATOM      4  C   UNL     1      45.689   5.993  10.904  0.00  0.00    +0.000 A 
ATOM      5  C   UNL     1      45.052   4.914  11.519  0.00  0.00    +0.000 A 
ATOM      6  C   UNL     1      45.506   4.472  12.767  0.00  0.00    +0.000 A 
ENDROOT
BRANCH   1   7
ATOM      7  C   UNL     1      47.107   4.586  14.728  0.00  0.00    +0.000 C 
BRANCH   7   8
ATOM      8  N   UNL     1      47.492   3.180  14.662  0.00  0.00    +0.000 NA
ATOM      9  H   UNL     1      48.299   3.085  14.050  0.00  0.00    +0.000 HD
ATOM     10  H   UNL     1      46.735   2.656  14.225  0.00  0.00    +0.000 HD
ENDBRANCH   7   8
ENDBRANCH   1   7
BRANCH   5  11
ATOM     11  O   UNL     1      43.989   4.217  11.004  0.00  0.00    +0.000 OA
BRANCH  11  12
ATOM     12  C   UNL     1      44.083   3.854   9.623  0.00  0.00    +0.000 C 
BRANCH  12  13
ATOM     13  C   UNL     1      44.728   2.474   9.510  0.00  0.00    +0.000 C 
BRANCH  13  14
ATOM     14  C   UNL     1      45.701   2.413   8.358  0.00  0.00    +0.000 A 
ATOM     15  C   UNL     1      45.919   3.537   7.551  0.00  0.00    +0.000 A 
ATOM     16  C   UNL     1      46.798   3.472   6.469  0.00  0.00    +0.000 A 
ATOM     17  C   UNL     1      47.464   2.283   6.180  0.00  0.00    +0.000 A 
ATOM     18  C   UNL     1      47.246   1.155   6.970  0.00  0.00    +0.000 A 
ATOM     19  C   UNL     1      46.367   1.218   8.052  0.00  0.00    +0.000 A 
ENDBRANCH  13  14
ENDBRANCH  12  13
ENDBRANCH  11  12
ENDBRANCH   5  11
TORSDOF 6
ENDMDL
MODEL 2
REMARK VINA RESULT:    -7.115      2.204      5.726
REMARK INTER + INTRA:         -10.018
REMARK INTER:                  -9.290
REMARK INTRA:                  -0.729
REMARK UNBOUND:                -0.615
REMARK  Name = 
REMARK  6 active torsions:
REMARK  status: ('A' for Active; 'I' for Inactive)
REMARK    1  A    between atoms: N_1  and  C_2
REMARK    2  A    between atoms: C_2  and  C_3
REMARK    3  A    between atoms: C_7  and  O_8
REMARK    4  A    between atoms: O_8  and  C_9
REMARK    5  A    between atoms: C_9  and  C_10
REMARK    6  A    between atoms: C_10  and  C_11
REMARK                            x       y       z     vdW  Elec       q    Type
REMARK                         _______ _______ _______ _____ _____    ______ ____
ROOT
ATOM      1  C   UNL     1      46.396   2.066   7.835  0.00  0.00    +0.000 A 
ATOM      2  C   UNL     1      46.612   3.390   7.427  0.00  0.00    +0.000 A 
ATOM      3  C   UNL     1      45.892   4.435   8.003  0.00  0.00    +0.000 A 
ATOM      4  C   UNL     1      44.938   4.170   8.987  0.00  0.00    +0.000 A 
ATOM      5  C   UNL     1      44.700   2.858   9.401  0.00  0.00    +0.000 A 
ATOM      6  C   UNL     1      45.434   1.815   8.825  0.00  0.00    +0.000 A 
ENDROOT
BRANCH   1   7
ATOM      7  C   UNL     1      47.156   0.937   7.187  0.00  0.00    +0.000 C 
BRANCH   7   8
ATOM      8  N   UNL     1      46.808  -0.355   7.768  0.00  0.00    +0.000 NA
ATOM      9  H   UNL     1      46.442  -0.211   8.706  0.00  0.00    +0.000 HD
ATOM     10  H   UNL     1      47.659  -0.905   7.872  0.00  0.00    +0.000 HD
ENDBRANCH   7   8
ENDBRANCH   1   7
BRANCH   5  11
ATOM     11  O   UNL     1      43.785   2.475  10.348  0.00  0.00    +0.000 OA
BRANCH  11  12
ATOM     12  C   UNL     1      43.395   3.480  11.290  0.00  0.00    +0.000 C 
BRANCH  12  13
ATOM     13  C   UNL     1      44.269   3.365  12.537  0.00  0.00    +0.000 C 
BRANCH  13  14
ATOM     14  C   UNL     1      45.099   4.608  12.745  0.00  0.00    +0.000 A 
ATOM     15  C   UNL     1      44.614   5.861  12.352  0.00  0.00    +0.000 A 
ATOM     16  C   UNL     1      45.394   7.007  12.518  0.00  0.00    +0.000 A 
ATOM     17  C   UNL     1      46.668   6.910  13.075  0.00  0.00    +0.000 A 
ATOM     18  C   UNL     1      47.165   5.666  13.459  0.00  0.00    +0.000 A 
ATOM     19  C   UNL     1      46.387   4.519  13.292  0.00  0.00    +0.000 A 
ENDBRANCH  13  14
ENDBRANCH  12  13
ENDBRANCH  11  12
ENDBRANCH   5  11
TORSDOF 6
ENDMDL
MODEL 3
REMARK VINA RESULT:    -6.816      1.606      2.207
REMARK INTER + INTRA:          -9.623
REMARK INTER:                  -9.154
REMARK INTRA:                  -0.468
REMARK UNBOUND:                -0.615
REMARK  Name = 
REMARK  6 active torsions:
REMARK  status: ('A' for Active; 'I' for Inactive)
REMARK    1  A    between atoms: N_1  and  C_2
REMARK    2  A    between atoms: C_2  and  C_3
REMARK    3  A    between atoms: C_7  and  O_8
REMARK    4  A    between atoms: O_8  and  C_9
REMARK    5  A    between atoms: C_9  and  C_10
REMARK    6  A    between atoms: C_10  and  C_11
REMARK                            x       y       z     vdW  Elec       q    Type
REMARK                         _______ _______ _______ _____ _____    ______ ____
ROOT
ATOM      1  C   UNL     1      46.590   6.554  12.725  0.00  0.00    +0.000 A 
ATOM      2  C   UNL     1      47.041   5.571  13.617  0.00  0.00    +0.000 A 
ATOM      3  C   UNL     1      46.518   4.281  13.574  0.00  0.00    +0.000 A 
ATOM      4  C   UNL     1      45.527   3.958  12.646  0.00  0.00    +0.000 A 
ATOM      5  C   UNL     1      45.055   4.923  11.755  0.00  0.00    +0.000 A 
ATOM      6  C   UNL     1      45.593   6.214  11.797  0.00  0.00    +0.000 A 
ENDROOT
BRANCH   1   7
ATOM      7  C   UNL     1      47.137   7.957  12.796  0.00  0.00    +0.000 C 
BRANCH   7   8
ATOM      8  N   UNL     1      46.356   8.801  13.693  0.00  0.00    +0.000 NA
ATOM      9  H   UNL     1      46.988   9.390  14.230  0.00  0.00    +0.000 HD
ATOM     10  H   UNL     1      45.876   8.204  14.365  0.00  0.00    +0.000 HD
ENDBRANCH   7   8
ENDBRANCH   1   7
BRANCH   5  11
ATOM     11  O   UNL     1      44.081   4.726  10.809  0.00  0.00    +0.000 OA
BRANCH  11  12
ATOM     12  C   UNL     1      44.231   3.568   9.982  0.00  0.00    +0.000 C 
BRANCH  12  13
ATOM     13  C   UNL     1      44.621   4.005   8.571  0.00  0.00    +0.000 C 
BRANCH  13  14
ATOM     14  C   UNL     1      45.677   3.100   7.986  0.00  0.00    +0.000 A 
ATOM     15  C   UNL     1      46.539   3.568   6.985  0.00  0.00    +0.000 A 
ATOM     16  C   UNL     1      47.497   2.722   6.424  0.00  0.00    +0.000 A 
ATOM     17  C   UNL     1      47.600   1.400   6.854  0.00  0.00    +0.000 A 
ATOM     18  C   UNL     1      46.740   0.922   7.841  0.00  0.00    +0.000 A 
ATOM     19  C   UNL     1      45.780   1.766   8.403  0.00  0.00    +0.000 A 
ENDBRANCH  13  14
ENDBRANCH  12  13
ENDBRANCH  11  12
ENDBRANCH   5  11
TORSDOF 6
ENDMDL
MODEL 4
REMARK VINA RESULT:    -6.664      2.470      6.258
REMARK INTER + INTRA:          -9.422
REMARK INTER:                  -8.904
REMARK INTRA:                  -0.518
REMARK UNBOUND:                -0.615
REMARK  Name = 
REMARK  6 active torsions:
REMARK  status: ('A' for Active; 'I' for Inactive)
REMARK    1  A    between atoms: N_1  and  C_2
REMARK    2  A    between atoms: C_2  and  C_3
REMARK    3  A    between atoms: C_7  and  O_8
REMARK    4  A    between atoms: O_8  and  C_9
REMARK    5  A    between atoms: C_9  and  C_10
REMARK    6  A    between atoms: C_10  and  C_11
REMARK                            x       y       z     vdW  Elec       q    Type
REMARK                         _______ _______ _______ _____ _____    ______ ____
ROOT
ATOM      1  C   UNL     1      46.647   2.584   6.754  0.00  0.00    +0.000 A 
ATOM      2  C   UNL     1      46.619   1.311   7.341  0.00  0.00    +0.000 A 
ATOM      3  C   UNL     1      45.869   1.077   8.491  0.00  0.00    +0.000 A 
ATOM      4  C   UNL     1      45.145   2.116   9.078  0.00  0.00    +0.000 A 
ATOM      5  C   UNL     1      45.165   3.393   8.517  0.00  0.00    +0.000 A 
ATOM      6  C   UNL     1      45.913   3.618   7.356  0.00  0.00    +0.000 A 
ENDROOT
BRANCH   1   7
ATOM      7  C   UNL     1      47.484   2.840   5.527  0.00  0.00    +0.000 C 
BRANCH   7   8
ATOM      8  N   UNL     1      48.507   1.816   5.344  0.00  0.00    +0.000 NA
ATOM      9  H   UNL     1      48.113   1.044   4.811  0.00  0.00    +0.000 HD
ATOM     10  H   UNL     1      48.756   1.438   6.257  0.00  0.00    +0.000 HD
ENDBRANCH   7   8
ENDBRANCH   1   7
BRANCH   5  11
ATOM     11  O   UNL     1      44.504   4.490   9.008  0.00  0.00    +0.000 OA
BRANCH  11  12
ATOM     12  C   UNL     1      43.734   4.283  10.196  0.00  0.00    +0.000 C 
BRANCH  12  13
ATOM     13  C   UNL     1      43.800   5.538  11.064  0.00  0.00    +0.000 C 
BRANCH  13  14
ATOM     14  C   UNL     1      45.108   5.625  11.810  0.00  0.00    +0.000 A 
ATOM     15  C   UNL     1      45.334   4.833  12.944  0.00  0.00    +0.000 A 
ATOM     16  C   UNL     1      46.534   4.934  13.651  0.00  0.00    +0.000 A 
ATOM     17  C   UNL     1      47.516   5.830  13.235  0.00  0.00    +0.000 A 
ATOM     18  C   UNL     1      47.298   6.630  12.115  0.00  0.00    +0.000 A 
ATOM     19  C   UNL     1      46.098   6.532  11.407  0.00  0.00    +0.000 A 
ENDBRANCH  13  14
ENDBRANCH  12  13
ENDBRANCH  11  12
ENDBRANCH   5  11
TORSDOF 6
ENDMDL
MODEL 5
REMARK VINA RESULT:    -6.381      1.263      1.460
REMARK INTER + INTRA:          -9.048
REMARK INTER:                  -8.706
REMARK INTRA:                  -0.341
REMARK UNBOUND:                -0.615
REMARK  Name = 
REMARK  6 active torsions:
REMARK  status: ('A' for Active; 'I' for Inactive)
REMARK    1  A    between atoms: N_1  and  C_2
REMARK    2  A    between atoms: C_2  and  C_3
REMARK    3  A    between atoms: C_7  and  O_8
REMARK    4  A    between atoms: O_8  and  C_9
REMARK    5  A    between atoms: C_9  and  C_10
REMARK    6  A    between atoms: C_10  and  C_11
REMARK                            x       y       z     vdW  Elec       q    Type
REMARK                         _______ _______ _______ _____ _____    ______ ____
ROOT
ATOM      1  C   UNL     1      45.626   4.724  13.278  0.00  0.00    +0.000 A 
ATOM      2  C   UNL     1      44.851   5.891  13.226  0.00  0.00    +0.000 A 
ATOM      3  C   UNL     1      43.864   6.042  12.254  0.00  0.00    +0.000 A 
ATOM      4  C   UNL     1      43.645   5.034  11.315  0.00  0.00    +0.000 A 
ATOM      5  C   UNL     1      44.411   3.868  11.341  0.00  0.00    +0.000 A 
ATOM      6  C   UNL     1      45.394   3.718  12.327  0.00  0.00    +0.000 A 
ENDROOT
BRANCH   1   7
ATOM      7  C   UNL     1      46.713   4.577  14.312  0.00  0.00    +0.000 C 
BRANCH   7   8
ATOM      8  N   UNL     1      47.299   3.241  14.299  0.00  0.00    +0.000 NA
ATOM      9  H   UNL     1      47.753   3.068  15.193  0.00  0.00    +0.000 HD
ATOM     10  H   UNL     1      48.033   3.215  13.593  0.00  0.00    +0.000 HD
ENDBRANCH   7   8
ENDBRANCH   1   7
BRANCH   5  11
ATOM     11  O   UNL     1      44.295   2.817  10.468  0.00  0.00    +0.000 OA
BRANCH  11  12
ATOM     12  C   UNL     1      44.026   3.159   9.104  0.00  0.00    +0.000 C 
BRANCH  12  13
ATOM     13  C   UNL     1      45.200   3.962   8.547  0.00  0.00    +0.000 C 
BRANCH  13  14
ATOM     14  C   UNL     1      46.098   3.105   7.690  0.00  0.00    +0.000 A 
ATOM     15  C   UNL     1      46.592   3.589   6.471  0.00  0.00    +0.000 A 
ATOM     16  C   UNL     1      47.400   2.785   5.665  0.00  0.00    +0.000 A 
ATOM     17  C   UNL     1      47.718   1.489   6.067  0.00  0.00    +0.000 A 
ATOM     18  C   UNL     1      47.222   0.993   7.271  0.00  0.00    +0.000 A 
ATOM     19  C   UNL     1      46.413   1.795   8.079  0.00  0.00    +0.000 A 
ENDBRANCH  13  14
ENDBRANCH  12  13
ENDBRANCH  11  12
ENDBRANCH   5  11
TORSDOF 6
ENDMDL
MODEL 6
REMARK VINA RESULT:    -6.031      1.695      2.308
REMARK INTER + INTRA:          -8.585
REMARK INTER:                  -8.377
REMARK INTRA:                  -0.208
REMARK UNBOUND:                -0.615
REMARK  Name = 
REMARK  6 active torsions:
REMARK  status: ('A' for Active; 'I' for Inactive)
REMARK    1  A    between atoms: N_1  and  C_2
REMARK    2  A    between atoms: C_2  and  C_3
REMARK    3  A    between atoms: C_7  and  O_8
REMARK    4  A    between atoms: O_8  and  C_9
REMARK    5  A    between atoms: C_9  and  C_10
REMARK    6  A    between atoms: C_10  and  C_11
REMARK                            x       y       z     vdW  Elec       q    Type
REMARK                         _______ _______ _______ _____ _____    ______ ____
ROOT
ATOM      1  C   UNL     1      45.980   6.569  12.301  0.00  0.00    +0.000 A 
ATOM      2  C   UNL     1      44.884   7.389  11.999  0.00  0.00    +0.000 A 
ATOM      3  C   UNL     1      43.729   6.849  11.439  0.00  0.00    +0.000 A 
ATOM      4  C   UNL     1      43.657   5.483  11.162  0.00  0.00    +0.000 A 
ATOM      5  C   UNL     1      44.739   4.649  11.446  0.00  0.00    +0.000 A 
ATOM      6  C   UNL     1      45.893   5.197  12.018  0.00  0.00    +0.000 A 
ENDROOT
BRANCH   1   7
ATOM      7  C   UNL     1      47.240   7.163  12.879  0.00  0.00    +0.000 C 
BRANCH   7   8
ATOM      8  N   UNL     1      48.266   7.356  11.861  0.00  0.00    +0.000 NA
ATOM      9  H   UNL     1      48.151   8.277  11.443  0.00  0.00    +0.000 HD
ATOM     10  H   UNL     1      48.116   6.679  11.115  0.00  0.00    +0.000 HD
ENDBRANCH   7   8
ENDBRANCH   1   7
BRANCH   5  11
ATOM     11  O   UNL     1      44.789   3.299  11.211  0.00  0.00    +0.000 OA
BRANCH  11  12
ATOM     12  C   UNL     1      44.187   2.849   9.993  0.00  0.00    +0.000 C 
BRANCH  12  13
ATOM     13  C   UNL     1      44.715   3.688   8.831  0.00  0.00    +0.000 C 
BRANCH  13  14
ATOM     14  C   UNL     1      45.676   2.901   7.974  0.00  0.00    +0.000 A 
ATOM     15  C   UNL     1      46.032   1.592   8.325  0.00  0.00    +0.000 A 
ATOM     16  C   UNL     1      46.942   0.874   7.547  0.00  0.00    +0.000 A 
ATOM     17  C   UNL     1      47.508   1.458   6.415  0.00  0.00    +0.000 A 
ATOM     18  C   UNL     1      47.169   2.764   6.065  0.00  0.00    +0.000 A 
ATOM     19  C   UNL     1      46.260   3.484   6.841  0.00  0.00    +0.000 A 
ENDBRANCH  13  14
ENDBRANCH  12  13
ENDBRANCH  11  12
ENDBRANCH   5  11
TORSDOF 6
ENDMDL
MODEL 7
REMARK VINA RESULT:    -5.755      2.394      6.135
REMARK INTER + INTRA:          -8.221
REMARK INTER:                  -7.696
REMARK INTRA:                  -0.525
REMARK UNBOUND:                -0.615
REMARK  Name = 
REMARK  6 active torsions:
REMARK  status: ('A' for Active; 'I' for Inactive)
REMARK    1  A    between atoms: N_1  and  C_2
REMARK    2  A    between atoms: C_2  and  C_3
REMARK    3  A    between atoms: C_7  and  O_8
REMARK    4  A    between atoms: O_8  and  C_9
REMARK    5  A    between atoms: C_9  and  C_10
REMARK    6  A    between atoms: C_10  and  C_11
REMARK                            x       y       z     vdW  Elec       q    Type
REMARK                         _______ _______ _______ _____ _____    ______ ____
ROOT
ATOM      1  C   UNL     1      45.994   3.504   7.946  0.00  0.00    +0.000 A 
ATOM      2  C   UNL     1      45.711   2.148   8.166  0.00  0.00    +0.000 A 
ATOM      3  C   UNL     1      44.819   1.764   9.165  0.00  0.00    +0.000 A 
ATOM      4  C   UNL     1      44.206   2.728   9.965  0.00  0.00    +0.000 A 
ATOM      5  C   UNL     1      44.479   4.083   9.771  0.00  0.00    +0.000 A 
ATOM      6  C   UNL     1      45.369   4.463   8.759  0.00  0.00    +0.000 A 
ENDROOT
BRANCH   1   7
ATOM      7  C   UNL     1      46.983   3.913   6.884  0.00  0.00    +0.000 C 
BRANCH   7   8
ATOM      8  N   UNL     1      47.950   2.858   6.606  0.00  0.00    +0.000 NA
ATOM      9  H   UNL     1      47.999   2.232   7.406  0.00  0.00    +0.000 HD
ATOM     10  H   UNL     1      48.873   3.279   6.511  0.00  0.00    +0.000 HD
ENDBRANCH   7   8
ENDBRANCH   1   7
BRANCH   5  11
ATOM     11  O   UNL     1      43.947   5.117  10.498  0.00  0.00    +0.000 OA
BRANCH  11  12
ATOM     12  C   UNL     1      44.178   5.078  11.910  0.00  0.00    +0.000 C 
BRANCH  12  13
ATOM     13  C   UNL     1      45.681   5.129  12.175  0.00  0.00    +0.000 C 
BRANCH  13  14
ATOM     14  C   UNL     1      46.181   6.551  12.241  0.00  0.00    +0.000 A 
ATOM     15  C   UNL     1      45.295   7.606  12.496  0.00  0.00    +0.000 A 
ATOM     16  C   UNL     1      45.753   8.924  12.529  0.00  0.00    +0.000 A 
ATOM     17  C   UNL     1      47.100   9.201  12.302  0.00  0.00    +0.000 A 
ATOM     18  C   UNL     1      47.988   8.161  12.036  0.00  0.00    +0.000 A 
ATOM     19  C   UNL     1      47.532   6.842  12.002  0.00  0.00    +0.000 A 
ENDBRANCH  13  14
ENDBRANCH  12  13
ENDBRANCH  11  12
ENDBRANCH   5  11
TORSDOF 6
ENDMDL
MODEL 8
REMARK VINA RESULT:    -5.559      3.584      7.617
REMARK INTER + INTRA:          -7.962
REMARK INTER:                  -7.643
REMARK INTRA:                  -0.319
REMARK UNBOUND:                -0.615
REMARK  Name = 
REMARK  6 active torsions:
REMARK  status: ('A' for Active; 'I' for Inactive)
REMARK    1  A    between atoms: N_1  and  C_2
REMARK    2  A    between atoms: C_2  and  C_3
REMARK    3  A    between atoms: C_7  and  O_8
REMARK    4  A    between atoms: O_8  and  C_9
REMARK    5  A    between atoms: C_9  and  C_10
REMARK    6  A    between atoms: C_10  and  C_11
REMARK                            x       y       z     vdW  Elec       q    Type
REMARK                         _______ _______ _______ _____ _____    ______ ____
ROOT
ATOM      1  C   UNL     1      45.205   4.781  11.645  0.00  0.00    +0.000 A 
ATOM      2  C   UNL     1      45.811   6.026  11.431  0.00  0.00    +0.000 A 
ATOM      3  C   UNL     1      46.808   6.485  12.290  0.00  0.00    +0.000 A 
ATOM      4  C   UNL     1      47.204   5.711  13.381  0.00  0.00    +0.000 A 
ATOM      5  C   UNL     1      46.608   4.472  13.619  0.00  0.00    +0.000 A 
ATOM      6  C   UNL     1      45.614   4.012  12.746  0.00  0.00    +0.000 A 
ENDROOT
BRANCH   1   7
ATOM      7  C   UNL     1      44.106   4.301  10.731  0.00  0.00    +0.000 C 
BRANCH   7   8
ATOM      8  N   UNL     1      43.326   5.409  10.191  0.00  0.00    +0.000 NA
ATOM      9  H   UNL     1      42.365   5.329  10.515  0.00  0.00    +0.000 HD
ATOM     10  H   UNL     1      43.297   5.321   9.176  0.00  0.00    +0.000 HD
ENDBRANCH   7   8
ENDBRANCH   1   7
BRANCH   5  11
ATOM     11  O   UNL     1      46.906   3.630  14.660  0.00  0.00    +0.000 OA
BRANCH  11  12
ATOM     12  C   UNL     1      47.294   4.257  15.886  0.00  0.00    +0.000 C 
BRANCH  12  13
ATOM     13  C   UNL     1      47.629   3.181  16.917  0.00  0.00    +0.000 C 
BRANCH  13  14
ATOM     14  C   UNL     1      49.105   3.158  17.230  0.00  0.00    +0.000 A 
ATOM     15  C   UNL     1      49.857   1.995  17.021  0.00  0.00    +0.000 A 
ATOM     16  C   UNL     1      51.217   1.965  17.337  0.00  0.00    +0.000 A 
ATOM     17  C   UNL     1      51.836   3.094  17.869  0.00  0.00    +0.000 A 
ATOM     18  C   UNL     1      51.094   4.253  18.091  0.00  0.00    +0.000 A 
ATOM     19  C   UNL     1      49.734   4.285  17.777  0.00  0.00    +0.000 A 
ENDBRANCH  13  14
ENDBRANCH  12  13
ENDBRANCH  11  12
ENDBRANCH   5  11
TORSDOF 6
ENDMDL
MODEL 9
REMARK VINA RESULT:    -5.249      1.710      3.050
REMARK INTER + INTRA:          -7.551
REMARK INTER:                  -7.176
REMARK INTRA:                  -0.376
REMARK UNBOUND:                -0.615
REMARK  Name = 
REMARK  6 active torsions:
REMARK  status: ('A' for Active; 'I' for Inactive)
REMARK    1  A    between atoms: N_1  and  C_2
REMARK    2  A    between atoms: C_2  and  C_3
REMARK    3  A    between atoms: C_7  and  O_8
REMARK    4  A    between atoms: O_8  and  C_9
REMARK    5  A    between atoms: C_9  and  C_10
REMARK    6  A    between atoms: C_10  and  C_11
REMARK                            x       y       z     vdW  Elec       q    Type
REMARK                         _______ _______ _______ _____ _____    ______ ____
ROOT
ATOM      1  C   UNL     1      47.869   4.345  15.822  0.00  0.00    +0.000 A 
ATOM      2  C   UNL     1      48.664   5.426  16.227  0.00  0.00    +0.000 A 
ATOM      3  C   UNL     1      48.702   6.598  15.475  0.00  0.00    +0.000 A 
ATOM      4  C   UNL     1      47.954   6.702  14.301  0.00  0.00    +0.000 A 
ATOM      5  C   UNL     1      47.162   5.635  13.874  0.00  0.00    +0.000 A 
ATOM      6  C   UNL     1      47.121   4.464  14.640  0.00  0.00    +0.000 A 
ENDROOT
BRANCH   1   7
ATOM      7  C   UNL     1      47.855   3.068  16.623  0.00  0.00    +0.000 C 
BRANCH   7   8
ATOM      8  N   UNL     1      48.838   2.108  16.132  0.00  0.00    +0.000 NA
ATOM      9  H   UNL     1      49.702   2.599  15.915  0.00  0.00    +0.000 HD
ATOM     10  H   UNL     1      48.500   1.716  15.255  0.00  0.00    +0.000 HD
ENDBRANCH   7   8
ENDBRANCH   1   7
BRANCH   5  11
ATOM     11  O   UNL     1      46.394   5.617  12.738  0.00  0.00    +0.000 OA
BRANCH  11  12
ATOM     12  C   UNL     1      45.478   4.524  12.615  0.00  0.00    +0.000 C 
BRANCH  12  13
ATOM     13  C   UNL     1      44.507   4.809  11.470  0.00  0.00    +0.000 C 
BRANCH  13  14
ATOM     14  C   UNL     1      44.937   4.119  10.199  0.00  0.00    +0.000 A 
ATOM     15  C   UNL     1      45.573   4.839   9.179  0.00  0.00    +0.000 A 
ATOM     16  C   UNL     1      45.946   4.207   7.991  0.00  0.00    +0.000 A 
ATOM     17  C   UNL     1      45.681   2.851   7.810  0.00  0.00    +0.000 A 
ATOM     18  C   UNL     1      45.039   2.127   8.813  0.00  0.00    +0.000 A 
ATOM     19  C   UNL     1      44.665   2.758  10.001  0.00  0.00    +0.000 A 
ENDBRANCH  13  14
ENDBRANCH  12  13
ENDBRANCH  11  12
ENDBRANCH   5  11
TORSDOF 6
ENDMDL
