MODEL 1
REMARK VINA RESULT:    -7.418      0.000      0.000
REMARK INTER + INTRA:          -9.898
REMARK INTER:                  -9.369
REMARK INTRA:                  -0.529
REMARK UNBOUND:                -0.529
REMARK  Name = 
REMARK  6 active torsions:
REMARK  status: ('A' for Active; 'I' for Inactive)
REMARK    1  A    between atoms: C_1  and  C_2
REMARK    2  A    between atoms: N_9  and  C_10
REMARK    3  A    between atoms: C_10  and  C_11
REMARK    4  A    between atoms: C_14  and  C_15
REMARK    5  A    between atoms: C_15  and  C_16
REMARK    6  A    between atoms: C_16  and  N_17
REMARK                            x       y       z     vdW  Elec       q    Type
REMARK                         _______ _______ _______ _____ _____    ______ ____
ROOT
ATOM      1  C   UNL     1      44.352   4.752  11.404  0.00  0.00    +0.000 C 
ENDROOT
BRANCH   1  10
ATOM      2  C   UNL     1      48.603   8.873  14.426  0.00  0.00    +0.000 C 
ATOM      3  C   UNL     1      47.721   7.792  13.882  0.00  0.00    +0.000 A 
ATOM      4  C   UNL     1      46.666   8.074  13.015  0.00  0.00    +0.000 A 
ATOM      5  N   UNL     1      45.823   7.167  12.454  0.00  0.00    +0.000 NA
ATOM      6  C   UNL     1      46.088   5.896  12.826  0.00  0.00    +0.000 A 
ATOM      7  C   UNL     1      47.097   5.478  13.693  0.00  0.00    +0.000 A 
ATOM      8  C   UNL     1      47.003   4.064  13.794  0.00  0.00    +0.000 A 
ATOM      9  C   UNL     1      45.965   3.655  12.985  0.00  0.00    +0.000 A 
ATOM     10  N   UNL     1      45.414   4.774  12.402  0.00  0.00    +0.000 N 
ATOM     11  C   UNL     1      47.940   6.458  14.240  0.00  0.00    +0.000 A 
ENDBRANCH   1  10
BRANCH   1  12
ATOM     12  C   UNL     1      44.853   4.315  10.058  0.00  0.00    +0.000 A 
ATOM     13  C   UNL     1      44.600   3.032   9.569  0.00  0.00    +0.000 A 
ATOM     14  C   UNL     1      45.129   2.640   8.341  0.00  0.00    +0.000 A 
ATOM     15  C   UNL     1      45.907   3.542   7.621  0.00  0.00    +0.000 A 
ATOM     16  N   UNL     1      46.147   4.799   8.063  0.00  0.00    +0.000 NA
ATOM     17  C   UNL     1      45.620   5.155   9.258  0.00  0.00    +0.000 A 
BRANCH  15  18
ATOM     18  C   UNL     1      46.570   3.127   6.331  0.00  0.00    +0.000 C 
BRANCH  18  19
ATOM     19  C   UNL     1      47.361   1.827   6.510  0.00  0.00    +0.000 C 
BRANCH  19  20
ATOM     20  N   UNL     1      48.580   1.820   5.695  0.00  0.00    +0.000 NA
ATOM     21  H   UNL     1      48.642   2.680   5.153  0.00  0.00    +0.000 HD
ATOM     22  H   UNL     1      48.525   1.057   5.021  0.00  0.00    +0.000 HD
ENDBRANCH  19  20
ENDBRANCH  18  19
ENDBRANCH  15  18
ENDBRANCH   1  12
TORSDOF 5
ENDMDL
MODEL 2
REMARK VINA RESULT:    -7.027      1.001      1.905
REMARK INTER + INTRA:          -9.404
REMARK INTER:                  -9.174
REMARK INTRA:                  -0.230
REMARK UNBOUND:                -0.529
REMARK  Name = 
REMARK  6 active torsions:
REMARK  status: ('A' for Active; 'I' for Inactive)
REMARK    1  A    between atoms: C_1  and  C_2
REMARK    2  A    between atoms: N_9  and  C_10
REMARK    3  A    between atoms: C_10  and  C_11
REMARK    4  A    between atoms: C_14  and  C_15
REMARK    5  A    between atoms: C_15  and  C_16
REMARK    6  A    between atoms: C_16  and  N_17
REMARK                            x       y       z     vdW  Elec       q    Type
REMARK                         _______ _______ _______ _____ _____    ______ ____
ROOT
ATOM      1  C   UNL     1      44.374   4.892  11.464  0.00  0.00    +0.000 C 
ENDROOT
BRANCH   1  10
ATOM      2  C   UNL     1      49.202   7.772  15.008  0.00  0.00    +0.000 C 
ATOM      3  C   UNL     1      48.078   7.323  14.129  0.00  0.00    +0.000 A 
ATOM      4  C   UNL     1      47.821   5.971  13.900  0.00  0.00    +0.000 A 
ATOM      5  N   UNL     1      46.817   5.462  13.138  0.00  0.00    +0.000 NA
ATOM      6  C   UNL     1      46.044   6.416  12.573  0.00  0.00    +0.000 A 
ATOM      7  C   UNL     1      46.197   7.795  12.706  0.00  0.00    +0.000 A 
ATOM      8  C   UNL     1      45.166   8.407  11.945  0.00  0.00    +0.000 A 
ATOM      9  C   UNL     1      44.407   7.401  11.385  0.00  0.00    +0.000 A 
ATOM     10  N   UNL     1      44.948   6.195  11.772  0.00  0.00    +0.000 N 
ATOM     11  C   UNL     1      47.249   8.264  13.510  0.00  0.00    +0.000 A 
ENDBRANCH   1  10
BRANCH   1  12
ATOM     12  C   UNL     1      44.850   4.366  10.140  0.00  0.00    +0.000 A 
ATOM     13  C   UNL     1      44.577   3.058   9.736  0.00  0.00    +0.000 A 
ATOM     14  C   UNL     1      45.083   2.584   8.527  0.00  0.00    +0.000 A 
ATOM     15  C   UNL     1      45.857   3.432   7.740  0.00  0.00    +0.000 A 
ATOM     16  N   UNL     1      46.115   4.712   8.099  0.00  0.00    +0.000 NA
ATOM     17  C   UNL     1      45.611   5.147   9.277  0.00  0.00    +0.000 A 
BRANCH  15  18
ATOM     18  C   UNL     1      46.495   2.930   6.468  0.00  0.00    +0.000 C 
BRANCH  18  19
ATOM     19  C   UNL     1      47.546   1.855   6.765  0.00  0.00    +0.000 C 
BRANCH  19  20
ATOM     20  N   UNL     1      48.575   1.804   5.722  0.00  0.00    +0.000 NA
ATOM     21  H   UNL     1      49.472   1.546   6.129  0.00  0.00    +0.000 HD
ATOM     22  H   UNL     1      48.695   2.736   5.326  0.00  0.00    +0.000 HD
ENDBRANCH  19  20
ENDBRANCH  18  19
ENDBRANCH  15  18
ENDBRANCH   1  12
TORSDOF 5
ENDMDL
MODEL 3
REMARK VINA RESULT:    -7.023      1.905      6.882
REMARK INTER + INTRA:          -9.400
REMARK INTER:                  -8.841
REMARK INTRA:                  -0.559
REMARK UNBOUND:                -0.529
REMARK  Name = 
REMARK  6 active torsions:
REMARK  status: ('A' for Active; 'I' for Inactive)
REMARK    1  A    between atoms: C_1  and  C_2
REMARK    2  A    between atoms: N_9  and  C_10
REMARK    3  A    between atoms: C_10  and  C_11
REMARK    4  A    between atoms: C_14  and  C_15
REMARK    5  A    between atoms: C_15  and  C_16
REMARK    6  A    between atoms: C_16  and  N_17
REMARK                            x       y       z     vdW  Elec       q    Type
REMARK                         _______ _______ _______ _____ _____    ______ ____
ROOT
ATOM      1  C   UNL     1      44.619   5.249  10.895  0.00  0.00    +0.000 C 
ENDROOT
BRANCH   1  10
ATOM      2  C   UNL     1      47.342   2.804   5.346  0.00  0.00    +0.000 C 
ATOM      3  C   UNL     1      46.673   3.148   6.640  0.00  0.00    +0.000 A 
ATOM      4  C   UNL     1      46.817   4.405   7.229  0.00  0.00    +0.000 A 
ATOM      5  N   UNL     1      46.237   4.820   8.386  0.00  0.00    +0.000 NA
ATOM      6  C   UNL     1      45.474   3.870   8.969  0.00  0.00    +0.000 A 
ATOM      7  C   UNL     1      45.257   2.576   8.498  0.00  0.00    +0.000 A 
ATOM      8  C   UNL     1      44.393   1.932   9.424  0.00  0.00    +0.000 A 
ATOM      9  C   UNL     1      44.094   2.841  10.416  0.00  0.00    +0.000 A 
ATOM     10  N   UNL     1      44.755   4.014  10.132  0.00  0.00    +0.000 N 
ATOM     11  C   UNL     1      45.877   2.203   7.294  0.00  0.00    +0.000 A 
ENDBRANCH   1  10
BRANCH   1  12
ATOM     12  C   UNL     1      45.433   5.224  12.156  0.00  0.00    +0.000 A 
ATOM     13  C   UNL     1      46.614   5.959  12.275  0.00  0.00    +0.000 A 
ATOM     14  C   UNL     1      47.375   5.867  13.439  0.00  0.00    +0.000 A 
ATOM     15  C   UNL     1      46.939   5.038  14.468  0.00  0.00    +0.000 A 
ATOM     16  N   UNL     1      45.785   4.334  14.386  0.00  0.00    +0.000 NA
ATOM     17  C   UNL     1      45.064   4.442  13.245  0.00  0.00    +0.000 A 
BRANCH  15  18
ATOM     18  C   UNL     1      47.778   4.844  15.707  0.00  0.00    +0.000 C 
BRANCH  18  19
ATOM     19  C   UNL     1      47.633   3.421  16.255  0.00  0.00    +0.000 C 
BRANCH  19  20
ATOM     20  N   UNL     1      46.630   3.352  17.321  0.00  0.00    +0.000 NA
ATOM     21  H   UNL     1      45.733   3.057  16.938  0.00  0.00    +0.000 HD
ATOM     22  H   UNL     1      46.487   4.286  17.704  0.00  0.00    +0.000 HD
ENDBRANCH  19  20
ENDBRANCH  18  19
ENDBRANCH  15  18
ENDBRANCH   1  12
TORSDOF 5
ENDMDL
MODEL 4
REMARK VINA RESULT:    -6.931      1.737      2.418
REMARK INTER + INTRA:          -9.283
REMARK INTER:                  -8.717
REMARK INTRA:                  -0.567
REMARK UNBOUND:                -0.529
REMARK  Name = 
REMARK  6 active torsions:
REMARK  status: ('A' for Active; 'I' for Inactive)
REMARK    1  A    between atoms: C_1  and  C_2
REMARK    2  A    between atoms: N_9  and  C_10
REMARK    3  A    between atoms: C_10  and  C_11
REMARK    4  A    between atoms: C_14  and  C_15
REMARK    5  A    between atoms: C_15  and  C_16
REMARK    6  A    between atoms: C_16  and  N_17
REMARK                            x       y       z     vdW  Elec       q    Type
REMARK                         _______ _______ _______ _____ _____    ______ ____
ROOT
ATOM      1  C   UNL     1      43.837   4.886  10.866  0.00  0.00    +0.000 C 
ENDROOT
BRANCH   1  10
ATOM      2  C   UNL     1      45.497  11.229  11.957  0.00  0.00    +0.000 C 
ATOM      3  C   UNL     1      45.247   9.755  11.885  0.00  0.00    +0.000 A 
ATOM      4  C   UNL     1      44.253   9.218  11.067  0.00  0.00    +0.000 A 
ATOM      5  N   UNL     1      43.963   7.899  10.916  0.00  0.00    +0.000 NA
ATOM      6  C   UNL     1      44.744   7.094  11.669  0.00  0.00    +0.000 A 
ATOM      7  C   UNL     1      45.759   7.497  12.536  0.00  0.00    +0.000 A 
ATOM      8  C   UNL     1      46.309   6.321  13.112  0.00  0.00    +0.000 A 
ATOM      9  C   UNL     1      45.638   5.241  12.579  0.00  0.00    +0.000 A 
ATOM     10  N   UNL     1      44.689   5.720  11.704  0.00  0.00    +0.000 N 
ATOM     11  C   UNL     1      46.018   8.872  12.648  0.00  0.00    +0.000 A 
ENDBRANCH   1  10
BRANCH   1  12
ATOM     12  C   UNL     1      44.634   4.074   9.886  0.00  0.00    +0.000 A 
ATOM     13  C   UNL     1      45.411   4.683   8.898  0.00  0.00    +0.000 A 
ATOM     14  C   UNL     1      46.091   3.899   7.969  0.00  0.00    +0.000 A 
ATOM     15  C   UNL     1      45.982   2.514   8.044  0.00  0.00    +0.000 A 
ATOM     16  N   UNL     1      45.254   1.899   9.006  0.00  0.00    +0.000 NA
ATOM     17  C   UNL     1      44.604   2.684   9.897  0.00  0.00    +0.000 A 
BRANCH  15  18
ATOM     18  C   UNL     1      46.632   1.634   7.004  0.00  0.00    +0.000 C 
BRANCH  18  19
ATOM     19  C   UNL     1      47.139   2.463   5.819  0.00  0.00    +0.000 C 
BRANCH  19  20
ATOM     20  N   UNL     1      48.511   2.098   5.453  0.00  0.00    +0.000 NA
ATOM     21  H   UNL     1      48.917   2.818   4.858  0.00  0.00    +0.000 HD
ATOM     22  H   UNL     1      48.491   1.242   4.897  0.00  0.00    +0.000 HD
ENDBRANCH  19  20
ENDBRANCH  18  19
ENDBRANCH  15  18
ENDBRANCH   1  12
TORSDOF 5
ENDMDL
MODEL 5
REMARK VINA RESULT:    -6.915      1.639      2.640
REMARK INTER + INTRA:          -9.263
REMARK INTER:                  -8.824
REMARK INTRA:                  -0.439
REMARK UNBOUND:                -0.529
REMARK  Name = 
REMARK  6 active torsions:
REMARK  status: ('A' for Active; 'I' for Inactive)
REMARK    1  A    between atoms: C_1  and  C_2
REMARK    2  A    between atoms: N_9  and  C_10
REMARK    3  A    between atoms: C_10  and  C_11
REMARK    4  A    between atoms: C_14  and  C_15
REMARK    5  A    between atoms: C_15  and  C_16
REMARK    6  A    between atoms: C_16  and  N_17
REMARK                            x       y       z     vdW  Elec       q    Type
REMARK                         _______ _______ _______ _____ _____    ______ ____
ROOT
ATOM      1  C   UNL     1      43.787   4.352  10.555  0.00  0.00    +0.000 C 
ENDROOT
BRANCH   1  10
ATOM      2  C   UNL     1      47.909   4.409  15.769  0.00  0.00    +0.000 C 
ATOM      3  C   UNL     1      47.016   4.611  14.585  0.00  0.00    +0.000 A 
ATOM      4  C   UNL     1      46.529   3.537  13.841  0.00  0.00    +0.000 A 
ATOM      5  N   UNL     1      45.700   3.613  12.766  0.00  0.00    +0.000 NA
ATOM      6  C   UNL     1      45.369   4.882  12.441  0.00  0.00    +0.000 A 
ATOM      7  C   UNL     1      45.794   6.042  13.087  0.00  0.00    +0.000 A 
ATOM      8  C   UNL     1      45.201   7.141  12.409  0.00  0.00    +0.000 A 
ATOM      9  C   UNL     1      44.425   6.632  11.389  0.00  0.00    +0.000 A 
ATOM     10  N   UNL     1      44.534   5.260  11.416  0.00  0.00    +0.000 N 
ATOM     11  C   UNL     1      46.646   5.902  14.194  0.00  0.00    +0.000 A 
ENDBRANCH   1  10
BRANCH   1  12
ATOM     12  C   UNL     1      44.682   3.625   9.593  0.00  0.00    +0.000 A 
ATOM     13  C   UNL     1      45.366   4.302   8.583  0.00  0.00    +0.000 A 
ATOM     14  C   UNL     1      46.143   3.589   7.671  0.00  0.00    +0.000 A 
ATOM     15  C   UNL     1      46.220   2.204   7.788  0.00  0.00    +0.000 A 
ATOM     16  N   UNL     1      45.585   1.527   8.773  0.00  0.00    +0.000 NA
ATOM     17  C   UNL     1      44.839   2.244   9.646  0.00  0.00    +0.000 A 
BRANCH  15  18
ATOM     18  C   UNL     1      46.979   1.389   6.769  0.00  0.00    +0.000 C 
BRANCH  18  19
ATOM     19  C   UNL     1      48.282   2.085   6.364  0.00  0.00    +0.000 C 
BRANCH  19  20
ATOM     20  N   UNL     1      48.253   2.510   4.961  0.00  0.00    +0.000 NA
ATOM     21  H   UNL     1      47.844   3.440   4.886  0.00  0.00    +0.000 HD
ATOM     22  H   UNL     1      47.643   1.883   4.436  0.00  0.00    +0.000 HD
ENDBRANCH  19  20
ENDBRANCH  18  19
ENDBRANCH  15  18
ENDBRANCH   1  12
TORSDOF 5
ENDMDL
MODEL 6
REMARK VINA RESULT:    -6.856      1.586      6.729
REMARK INTER + INTRA:          -9.188
REMARK INTER:                  -8.422
REMARK INTRA:                  -0.766
REMARK UNBOUND:                -0.529
REMARK  Name = 
REMARK  6 active torsions:
REMARK  status: ('A' for Active; 'I' for Inactive)
REMARK    1  A    between atoms: C_1  and  C_2
REMARK    2  A    between atoms: N_9  and  C_10
REMARK    3  A    between atoms: C_10  and  C_11
REMARK    4  A    between atoms: C_14  and  C_15
REMARK    5  A    between atoms: C_15  and  C_16
REMARK    6  A    between atoms: C_16  and  N_17
REMARK                            x       y       z     vdW  Elec       q    Type
REMARK                         _______ _______ _______ _____ _____    ______ ____
ROOT
ATOM      1  C   UNL     1      44.408   5.207  10.793  0.00  0.00    +0.000 C 
ENDROOT
BRANCH   1  10
ATOM      2  C   UNL     1      47.449   2.662   5.459  0.00  0.00    +0.000 C 
ATOM      3  C   UNL     1      46.720   3.028   6.714  0.00  0.00    +0.000 A 
ATOM      4  C   UNL     1      46.764   4.320   7.238  0.00  0.00    +0.000 A 
ATOM      5  N   UNL     1      46.124   4.757   8.355  0.00  0.00    +0.000 NA
ATOM      6  C   UNL     1      45.408   3.789   8.968  0.00  0.00    +0.000 A 
ATOM      7  C   UNL     1      45.290   2.460   8.563  0.00  0.00    +0.000 A 
ATOM      8  C   UNL     1      44.444   1.810   9.500  0.00  0.00    +0.000 A 
ATOM      9  C   UNL     1      44.056   2.747  10.433  0.00  0.00    +0.000 A 
ATOM     10  N   UNL     1      44.647   3.946  10.103  0.00  0.00    +0.000 N 
ATOM     11  C   UNL     1      45.970   2.067   7.398  0.00  0.00    +0.000 A 
ENDBRANCH   1  10
BRANCH   1  12
ATOM     12  C   UNL     1      45.517   5.546  11.747  0.00  0.00    +0.000 A 
ATOM     13  C   UNL     1      45.713   4.819  12.922  0.00  0.00    +0.000 A 
ATOM     14  C   UNL     1      46.715   5.196  13.814  0.00  0.00    +0.000 A 
ATOM     15  C   UNL     1      47.508   6.300  13.511  0.00  0.00    +0.000 A 
ATOM     16  N   UNL     1      47.353   7.006  12.366  0.00  0.00    +0.000 NA
ATOM     17  C   UNL     1      46.373   6.617  11.518  0.00  0.00    +0.000 A 
BRANCH  15  18
ATOM     18  C   UNL     1      48.545   6.793  14.491  0.00  0.00    +0.000 C 
BRANCH  18  19
ATOM     19  C   UNL     1      48.569   8.323  14.545  0.00  0.00    +0.000 C 
BRANCH  19  20
ATOM     20  N   UNL     1      47.232   8.877  14.777  0.00  0.00    +0.000 NA
ATOM     21  H   UNL     1      46.881   9.310  13.925  0.00  0.00    +0.000 HD
ATOM     22  H   UNL     1      47.296   9.620  15.473  0.00  0.00    +0.000 HD
ENDBRANCH  19  20
ENDBRANCH  18  19
ENDBRANCH  15  18
ENDBRANCH   1  12
TORSDOF 5
ENDMDL
MODEL 7
REMARK VINA RESULT:    -5.893      1.723      3.016
REMARK INTER + INTRA:          -7.972
REMARK INTER:                  -7.497
REMARK INTRA:                  -0.475
REMARK UNBOUND:                -0.529
REMARK  Name = 
REMARK  6 active torsions:
REMARK  status: ('A' for Active; 'I' for Inactive)
REMARK    1  A    between atoms: C_1  and  C_2
REMARK    2  A    between atoms: N_9  and  C_10
REMARK    3  A    between atoms: C_10  and  C_11
REMARK    4  A    between atoms: C_14  and  C_15
REMARK    5  A    between atoms: C_15  and  C_16
REMARK    6  A    between atoms: C_16  and  N_17
REMARK                            x       y       z     vdW  Elec       q    Type
REMARK                         _______ _______ _______ _____ _____    ______ ____
ROOT
ATOM      1  C   UNL     1      45.375   6.197  12.720  0.00  0.00    +0.000 C 
ENDROOT
BRANCH   1  10
ATOM      2  C   UNL     1      51.238   9.270  12.119  0.00  0.00    +0.000 C 
ATOM      3  C   UNL     1      49.830   8.767  12.191  0.00  0.00    +0.000 A 
ATOM      4  C   UNL     1      49.541   7.410  12.337  0.00  0.00    +0.000 A 
ATOM      5  N   UNL     1      48.303   6.857  12.432  0.00  0.00    +0.000 NA
ATOM      6  C   UNL     1      47.309   7.769  12.358  0.00  0.00    +0.000 A 
ATOM      7  C   UNL     1      47.455   9.146  12.199  0.00  0.00    +0.000 A 
ATOM      8  C   UNL     1      46.149   9.706  12.174  0.00  0.00    +0.000 A 
ATOM      9  C   UNL     1      45.249   8.674  12.334  0.00  0.00    +0.000 A 
ATOM     10  N   UNL     1      45.962   7.501  12.444  0.00  0.00    +0.000 N 
ATOM     11  C   UNL     1      48.758   9.662  12.111  0.00  0.00    +0.000 A 
ENDBRANCH   1  10
BRANCH   1  12
ATOM     12  C   UNL     1      45.202   5.382  11.470  0.00  0.00    +0.000 A 
ATOM     13  C   UNL     1      44.577   4.134  11.496  0.00  0.00    +0.000 A 
ATOM     14  C   UNL     1      44.484   3.379  10.329  0.00  0.00    +0.000 A 
ATOM     15  C   UNL     1      45.022   3.888   9.150  0.00  0.00    +0.000 A 
ATOM     16  N   UNL     1      45.611   5.106   9.095  0.00  0.00    +0.000 NA
ATOM     17  C   UNL     1      45.686   5.819  10.243  0.00  0.00    +0.000 A 
BRANCH  15  18
ATOM     18  C   UNL     1      45.020   3.065   7.886  0.00  0.00    +0.000 C 
BRANCH  18  19
ATOM     19  C   UNL     1      46.439   2.905   7.329  0.00  0.00    +0.000 C 
BRANCH  19  20
ATOM     20  N   UNL     1      46.824   4.047   6.496  0.00  0.00    +0.000 NA
ATOM     21  H   UNL     1      47.648   4.501   6.886  0.00  0.00    +0.000 HD
ATOM     22  H   UNL     1      46.076   4.741   6.515  0.00  0.00    +0.000 HD
ENDBRANCH  19  20
ENDBRANCH  18  19
ENDBRANCH  15  18
ENDBRANCH   1  12
TORSDOF 5
ENDMDL
MODEL 8
REMARK VINA RESULT:    -5.729      3.763      5.731
REMARK INTER + INTRA:          -7.765
REMARK INTER:                  -7.041
REMARK INTRA:                  -0.723
REMARK UNBOUND:                -0.529
REMARK  Name = 
REMARK  6 active torsions:
REMARK  status: ('A' for Active; 'I' for Inactive)
REMARK    1  A    between atoms: C_1  and  C_2
REMARK    2  A    between atoms: N_9  and  C_10
REMARK    3  A    between atoms: C_10  and  C_11
REMARK    4  A    between atoms: C_14  and  C_15
REMARK    5  A    between atoms: C_15  and  C_16
REMARK    6  A    between atoms: C_16  and  N_17
REMARK                            x       y       z     vdW  Elec       q    Type
REMARK                         _______ _______ _______ _____ _____    ______ ____
ROOT
ATOM      1  C   UNL     1      48.575   6.650  13.613  0.00  0.00    +0.000 C 
ENDROOT
BRANCH   1  10
ATOM      2  C   UNL     1      49.599   5.261  20.032  0.00  0.00    +0.000 C 
ATOM      3  C   UNL     1      49.373   5.783  18.648  0.00  0.00    +0.000 A 
ATOM      4  C   UNL     1      49.465   4.957  17.528  0.00  0.00    +0.000 A 
ATOM      5  N   UNL     1      49.259   5.328  16.236  0.00  0.00    +0.000 NA
ATOM      6  C   UNL     1      48.952   6.637  16.103  0.00  0.00    +0.000 A 
ATOM      7  C   UNL     1      48.843   7.573  17.131  0.00  0.00    +0.000 A 
ATOM      8  C   UNL     1      48.505   8.815  16.532  0.00  0.00    +0.000 A 
ATOM      9  C   UNL     1      48.401   8.609  15.173  0.00  0.00    +0.000 A 
ATOM     10  N   UNL     1      48.675   7.284  14.922  0.00  0.00    +0.000 N 
ATOM     11  C   UNL     1      49.062   7.131  18.446  0.00  0.00    +0.000 A 
ENDBRANCH   1  10
BRANCH   1  12
ATOM     12  C   UNL     1      47.198   6.112  13.352  0.00  0.00    +0.000 A 
ATOM     13  C   UNL     1      46.176   6.930  12.868  0.00  0.00    +0.000 A 
ATOM     14  C   UNL     1      44.895   6.412  12.692  0.00  0.00    +0.000 A 
ATOM     15  C   UNL     1      44.657   5.077  13.005  0.00  0.00    +0.000 A 
ATOM     16  N   UNL     1      45.637   4.257  13.453  0.00  0.00    +0.000 NA
ATOM     17  C   UNL     1      46.873   4.785  13.614  0.00  0.00    +0.000 A 
BRANCH  15  18
ATOM     18  C   UNL     1      43.265   4.502  12.912  0.00  0.00    +0.000 C 
BRANCH  18  19
ATOM     19  C   UNL     1      43.190   3.410  11.840  0.00  0.00    +0.000 C 
BRANCH  19  20
ATOM     20  N   UNL     1      43.537   2.094  12.384  0.00  0.00    +0.000 NA
ATOM     21  H   UNL     1      42.920   1.864  13.161  0.00  0.00    +0.000 HD
ATOM     22  H   UNL     1      44.482   2.131  12.766  0.00  0.00    +0.000 HD
ENDBRANCH  19  20
ENDBRANCH  18  19
ENDBRANCH  15  18
ENDBRANCH   1  12
TORSDOF 5
ENDMDL
MODEL 9
REMARK VINA RESULT:    -5.181      3.523      8.369
REMARK INTER + INTRA:          -7.072
REMARK INTER:                  -6.349
REMARK INTRA:                  -0.723
REMARK UNBOUND:                -0.529
REMARK  Name = 
REMARK  6 active torsions:
REMARK  status: ('A' for Active; 'I' for Inactive)
REMARK    1  A    between atoms: C_1  and  C_2
REMARK    2  A    between atoms: N_9  and  C_10
REMARK    3  A    between atoms: C_10  and  C_11
REMARK    4  A    between atoms: C_14  and  C_15
REMARK    5  A    between atoms: C_15  and  C_16
REMARK    6  A    between atoms: C_16  and  N_17
REMARK                            x       y       z     vdW  Elec       q    Type
REMARK                         _______ _______ _______ _____ _____    ______ ____
ROOT
ATOM      1  C   UNL     1      48.643   6.640  14.215  0.00  0.00    +0.000 C 
ENDROOT
BRANCH   1  10
ATOM      2  C   UNL     1      43.503   3.379  11.546  0.00  0.00    +0.000 C 
ATOM      3  C   UNL     1      44.538   4.293  12.125  0.00  0.00    +0.000 A 
ATOM      4  C   UNL     1      45.664   3.801  12.785  0.00  0.00    +0.000 A 
ATOM      5  N   UNL     1      46.667   4.544  13.325  0.00  0.00    +0.000 NA
ATOM      6  C   UNL     1      46.480   5.873  13.179  0.00  0.00    +0.000 A 
ATOM      7  C   UNL     1      45.399   6.496  12.557  0.00  0.00    +0.000 A 
ATOM      8  C   UNL     1      45.621   7.897  12.635  0.00  0.00    +0.000 A 
ATOM      9  C   UNL     1      46.823   8.094  13.280  0.00  0.00    +0.000 A 
ATOM     10  N   UNL     1      47.338   6.860  13.607  0.00  0.00    +0.000 N 
ATOM     11  C   UNL     1      44.395   5.679  12.013  0.00  0.00    +0.000 A 
ENDBRANCH   1  10
BRANCH   1  12
ATOM     12  C   UNL     1      48.562   6.569  15.713  0.00  0.00    +0.000 A 
ATOM     13  C   UNL     1      48.719   7.707  16.505  0.00  0.00    +0.000 A 
ATOM     14  C   UNL     1      48.695   7.596  17.894  0.00  0.00    +0.000 A 
ATOM     15  C   UNL     1      48.514   6.341  18.468  0.00  0.00    +0.000 A 
ATOM     16  N   UNL     1      48.336   5.226  17.721  0.00  0.00    +0.000 NA
ATOM     17  C   UNL     1      48.362   5.362  16.375  0.00  0.00    +0.000 A 
BRANCH  15  18
ATOM     18  C   UNL     1      48.570   6.166  19.966  0.00  0.00    +0.000 C 
BRANCH  18  19
ATOM     19  C   UNL     1      49.310   4.879  20.344  0.00  0.00    +0.000 C 
BRANCH  19  20
ATOM     20  N   UNL     1      48.385   3.753  20.507  0.00  0.00    +0.000 NA
ATOM     21  H   UNL     1      47.655   3.796  19.799  0.00  0.00    +0.000 HD
ATOM     22  H   UNL     1      47.918   3.834  21.410  0.00  0.00    +0.000 HD
ENDBRANCH  19  20
ENDBRANCH  18  19
ENDBRANCH  15  18
ENDBRANCH   1  12
TORSDOF 5
ENDMDL
