MODEL 1
REMARK VINA RESULT:    -9.263      0.000      0.000
REMARK INTER + INTRA:         -12.792
REMARK INTER:                 -11.971
REMARK INTRA:                  -0.821
REMARK UNBOUND:                -0.821
REMARK  Name = 
REMARK  5 active torsions:
REMARK  status: ('A' for Active; 'I' for Inactive)
REMARK    1  A    between atoms: C_2  and  C_4
REMARK    2  A    between atoms: C_7  and  O_8
REMARK    3  A    between atoms: O_8  and  C_9
REMARK    4  A    between atoms: C_9  and  C_10
REMARK    5  A    between atoms: C_14  and  C_15
REMARK                            x       y       z     vdW  Elec       q    Type
REMARK                         _______ _______ _______ _____ _____    ______ ____
ROOT
ATOM      1  C   UNL     1      44.017   4.833  11.436  0.00  0.00    +0.000 C 
ATOM      2  C   UNL     1      42.734   4.895  12.253  0.00  0.00    +0.000 C 
ATOM      3  C   UNL     1      43.003   5.940  11.229  0.00  0.00    +0.000 C 
ENDROOT
BRANCH   1   4
ATOM      4  C   UNL     1      45.354   5.154  12.080  0.00  0.00    +0.000 A 
ATOM      5  C   UNL     1      46.125   6.245  11.655  0.00  0.00    +0.000 A 
ATOM      6  C   UNL     1      47.267   6.639  12.352  0.00  0.00    +0.000 A 
ATOM      7  C   UNL     1      47.658   5.952  13.504  0.00  0.00    +0.000 A 
ATOM      8  C   UNL     1      46.938   4.838  13.966  0.00  0.00    +0.000 A 
ATOM      9  C   UNL     1      45.814   4.445  13.210  0.00  0.00    +0.000 A 
BRANCH   8  10
ATOM     10  C   UNL     1      47.288   4.148  15.225  0.00  0.00    +0.000 A 
ATOM     11  N   UNL     1      47.867   2.932  15.139  0.00  0.00    +0.000 NA
ATOM     12  C   UNL     1      48.264   2.370  16.296  0.00  0.00    +0.000 A 
ATOM     13  C   UNL     1      48.102   2.963  17.525  0.00  0.00    +0.000 A 
ATOM     14  C   UNL     1      47.493   4.193  17.510  0.00  0.00    +0.000 A 
ATOM     15  N   UNL     1      47.085   4.810  16.385  0.00  0.00    +0.000 NA
ENDBRANCH   8  10
ENDBRANCH   1   4
BRANCH   1  16
ATOM     16  O   UNL     1      43.983   3.650  10.611  0.00  0.00    +0.000 OA
BRANCH  16  20
ATOM     17  C   UNL     1      46.469   2.715   7.480  0.00  0.00    +0.000 A 
ATOM     18  C   UNL     1      46.126   4.056   7.639  0.00  0.00    +0.000 A 
ATOM     19  C   UNL     1      45.308   4.435   8.709  0.00  0.00    +0.000 A 
ATOM     20  C   UNL     1      44.858   3.459   9.585  0.00  0.00    +0.000 A 
ATOM     21  N   UNL     1      45.204   2.159   9.455  0.00  0.00    +0.000 NA
ATOM     22  C   UNL     1      45.987   1.810   8.409  0.00  0.00    +0.000 A 
BRANCH  17  24
ATOM     23  N   UNL     1      47.376   2.992   5.239  0.00  0.00    +0.000 N 
ATOM     24  C   UNL     1      47.265   2.199   6.346  0.00  0.00    +0.000 C 
ATOM     25  O   UNL     1      47.838   1.118   6.405  0.00  0.00    +0.000 OA
ATOM     26  H   UNL     1      48.000   2.661   4.517  0.00  0.00    +0.000 HD
ATOM     27  H   UNL     1      47.141   3.974   5.244  0.00  0.00    +0.000 HD
ENDBRANCH  17  24
ENDBRANCH  16  20
ENDBRANCH   1  16
TORSDOF 5
ENDMDL
MODEL 2
REMARK VINA RESULT:    -8.451      2.027      3.214
REMARK INTER + INTRA:         -11.743
REMARK INTER:                 -10.768
REMARK INTRA:                  -0.974
REMARK UNBOUND:                -0.821
REMARK  Name = 
REMARK  5 active torsions:
REMARK  status: ('A' for Active; 'I' for Inactive)
REMARK    1  A    between atoms: C_2  and  C_4
REMARK    2  A    between atoms: C_7  and  O_8
REMARK    3  A    between atoms: O_8  and  C_9
REMARK    4  A    between atoms: C_9  and  C_10
REMARK    5  A    between atoms: C_14  and  C_15
REMARK                            x       y       z     vdW  Elec       q    Type
REMARK                         _______ _______ _______ _____ _____    ______ ____
ROOT
ATOM      1  C   UNL     1      43.740   5.099  11.249  0.00  0.00    +0.000 C 
ATOM      2  C   UNL     1      42.369   5.428  11.823  0.00  0.00    +0.000 C 
ATOM      3  C   UNL     1      43.089   6.448  11.014  0.00  0.00    +0.000 C 
ENDROOT
BRANCH   1   4
ATOM      4  C   UNL     1      44.951   5.003  12.160  0.00  0.00    +0.000 A 
ATOM      5  C   UNL     1      45.328   3.786  12.745  0.00  0.00    +0.000 A 
ATOM      6  C   UNL     1      46.529   3.661  13.444  0.00  0.00    +0.000 A 
ATOM      7  C   UNL     1      47.388   4.756  13.562  0.00  0.00    +0.000 A 
ATOM      8  C   UNL     1      47.054   6.006  13.016  0.00  0.00    +0.000 A 
ATOM      9  C   UNL     1      45.812   6.103  12.355  0.00  0.00    +0.000 A 
BRANCH   8  10
ATOM     10  C   UNL     1      47.984   7.154  13.062  0.00  0.00    +0.000 A 
ATOM     11  N   UNL     1      47.936   7.964  14.139  0.00  0.00    +0.000 NA
ATOM     12  C   UNL     1      48.859   8.942  14.201  0.00  0.00    +0.000 A 
ATOM     13  C   UNL     1      49.815   9.148  13.236  0.00  0.00    +0.000 A 
ATOM     14  C   UNL     1      49.776   8.279  12.173  0.00  0.00    +0.000 A 
ATOM     15  N   UNL     1      48.885   7.276  12.063  0.00  0.00    +0.000 NA
ENDBRANCH   8  10
ENDBRANCH   1   4
BRANCH   1  16
ATOM     16  O   UNL     1      43.594   4.041  10.281  0.00  0.00    +0.000 OA
BRANCH  16  20
ATOM     17  C   UNL     1      46.489   2.550   7.779  0.00  0.00    +0.000 A 
ATOM     18  C   UNL     1      46.312   3.933   7.792  0.00  0.00    +0.000 A 
ATOM     19  C   UNL     1      45.362   4.497   8.651  0.00  0.00    +0.000 A 
ATOM     20  C   UNL     1      44.617   3.659   9.467  0.00  0.00    +0.000 A 
ATOM     21  N   UNL     1      44.797   2.319   9.480  0.00  0.00    +0.000 NA
ATOM     22  C   UNL     1      45.713   1.791   8.636  0.00  0.00    +0.000 A 
BRANCH  17  24
ATOM     23  N   UNL     1      48.483   2.550   6.384  0.00  0.00    +0.000 N 
ATOM     24  C   UNL     1      47.411   1.849   6.861  0.00  0.00    +0.000 C 
ATOM     25  O   UNL     1      47.248   0.672   6.565  0.00  0.00    +0.000 OA
ATOM     26  H   UNL     1      49.149   2.023   5.836  0.00  0.00    +0.000 HD
ATOM     27  H   UNL     1      48.793   3.420   6.792  0.00  0.00    +0.000 HD
ENDBRANCH  17  24
ENDBRANCH  16  20
ENDBRANCH   1  16
TORSDOF 5
ENDMDL
MODEL 3
REMARK VINA RESULT:    -7.596      2.519      7.700
REMARK INTER + INTRA:         -10.637
REMARK INTER:                  -9.746
REMARK INTRA:                  -0.891
REMARK UNBOUND:                -0.821
REMARK  Name = 
REMARK  5 active torsions:
REMARK  status: ('A' for Active; 'I' for Inactive)
REMARK    1  A    between atoms: C_2  and  C_4
REMARK    2  A    between atoms: C_7  and  O_8
REMARK    3  A    between atoms: O_8  and  C_9
REMARK    4  A    between atoms: C_9  and  C_10
REMARK    5  A    between atoms: C_14  and  C_15
REMARK                            x       y       z     vdW  Elec       q    Type
REMARK                         _______ _______ _______ _____ _____    ______ ____
ROOT
ATOM      1  C   UNL     1      46.445   7.189  12.543  0.00  0.00    +0.000 C 
ATOM      2  C   UNL     1      46.775   8.553  11.955  0.00  0.00    +0.000 C 
ATOM      3  C   UNL     1      45.937   8.466  13.182  0.00  0.00    +0.000 C 
ENDROOT
BRANCH   1   4
ATOM      4  C   UNL     1      45.466   6.265  11.839  0.00  0.00    +0.000 A 
ATOM      5  C   UNL     1      44.083   6.392  12.024  0.00  0.00    +0.000 A 
ATOM      6  C   UNL     1      43.181   5.657  11.255  0.00  0.00    +0.000 A 
ATOM      7  C   UNL     1      43.648   4.783  10.270  0.00  0.00    +0.000 A 
ATOM      8  C   UNL     1      45.023   4.599  10.053  0.00  0.00    +0.000 A 
ATOM      9  C   UNL     1      45.903   5.327  10.880  0.00  0.00    +0.000 A 
BRANCH   8  10
ATOM     10  C   UNL     1      45.535   3.741   8.964  0.00  0.00    +0.000 A 
ATOM     11  N   UNL     1      46.072   4.346   7.883  0.00  0.00    +0.000 NA
ATOM     12  C   UNL     1      46.618   3.542   6.952  0.00  0.00    +0.000 A 
ATOM     13  C   UNL     1      46.644   2.171   7.050  0.00  0.00    +0.000 A 
ATOM     14  C   UNL     1      46.063   1.650   8.180  0.00  0.00    +0.000 A 
ATOM     15  N   UNL     1      45.512   2.404   9.150  0.00  0.00    +0.000 NA
ENDBRANCH   8  10
ENDBRANCH   1   4
BRANCH   1  16
ATOM     16  O   UNL     1      47.666   6.578  13.007  0.00  0.00    +0.000 OA
BRANCH  16  20
ATOM     17  C   UNL     1      47.894   4.715  16.659  0.00  0.00    +0.000 A 
ATOM     18  C   UNL     1      47.077   4.126  15.696  0.00  0.00    +0.000 A 
ATOM     19  C   UNL     1      46.988   4.701  14.423  0.00  0.00    +0.000 A 
ATOM     20  C   UNL     1      47.719   5.849  14.156  0.00  0.00    +0.000 A 
ATOM     21  N   UNL     1      48.534   6.415  15.074  0.00  0.00    +0.000 NA
ATOM     22  C   UNL     1      48.599   5.851  16.302  0.00  0.00    +0.000 A 
BRANCH  17  24
ATOM     23  N   UNL     1      47.404   4.977  19.028  0.00  0.00    +0.000 N 
ATOM     24  C   UNL     1      48.003   4.232  18.052  0.00  0.00    +0.000 C 
ATOM     25  O   UNL     1      48.573   3.183  18.323  0.00  0.00    +0.000 OA
ATOM     26  H   UNL     1      47.411   4.579  19.957  0.00  0.00    +0.000 HD
ATOM     27  H   UNL     1      46.722   5.694  18.828  0.00  0.00    +0.000 HD
ENDBRANCH  17  24
ENDBRANCH  16  20
ENDBRANCH   1  16
TORSDOF 5
ENDMDL
MODEL 4
REMARK VINA RESULT:    -6.938      1.805      2.435
REMARK INTER + INTRA:          -9.787
REMARK INTER:                  -9.047
REMARK INTRA:                  -0.740
REMARK UNBOUND:                -0.821
REMARK  Name = 
REMARK  5 active torsions:
REMARK  status: ('A' for Active; 'I' for Inactive)
REMARK    1  A    between atoms: C_2  and  C_4
REMARK    2  A    between atoms: C_7  and  O_8
REMARK    3  A    between atoms: O_8  and  C_9
REMARK    4  A    between atoms: C_9  and  C_10
REMARK    5  A    between atoms: C_14  and  C_15
REMARK                            x       y       z     vdW  Elec       q    Type
REMARK                         _______ _______ _______ _____ _____    ______ ____
ROOT
ATOM      1  C   UNL     1      43.980   5.310  11.727  0.00  0.00    +0.000 C 
ATOM      2  C   UNL     1      42.866   5.086  12.739  0.00  0.00    +0.000 C 
ATOM      3  C   UNL     1      42.538   5.642  11.398  0.00  0.00    +0.000 C 
ENDROOT
BRANCH   1   4
ATOM      4  C   UNL     1      44.980   6.436  11.923  0.00  0.00    +0.000 A 
ATOM      5  C   UNL     1      44.712   7.736  11.474  0.00  0.00    +0.000 A 
ATOM      6  C   UNL     1      45.552   8.801  11.799  0.00  0.00    +0.000 A 
ATOM      7  C   UNL     1      46.679   8.587  12.596  0.00  0.00    +0.000 A 
ATOM      8  C   UNL     1      47.011   7.303  13.057  0.00  0.00    +0.000 A 
ATOM      9  C   UNL     1      46.161   6.246  12.671  0.00  0.00    +0.000 A 
BRANCH   8  10
ATOM     10  C   UNL     1      48.153   7.070  13.966  0.00  0.00    +0.000 A 
ATOM     11  N   UNL     1      49.203   7.915  13.892  0.00  0.00    +0.000 NA
ATOM     12  C   UNL     1      50.184   7.738  14.796  0.00  0.00    +0.000 A 
ATOM     13  C   UNL     1      50.165   6.757  15.758  0.00  0.00    +0.000 A 
ATOM     14  C   UNL     1      49.061   5.940  15.745  0.00  0.00    +0.000 A 
ATOM     15  N   UNL     1      48.044   6.076  14.874  0.00  0.00    +0.000 NA
ENDBRANCH   8  10
ENDBRANCH   1   4
BRANCH   1  16
ATOM     16  O   UNL     1      44.535   4.031  11.359  0.00  0.00    +0.000 OA
BRANCH  16  20
ATOM     17  C   UNL     1      46.249   3.096   7.746  0.00  0.00    +0.000 A 
ATOM     18  C   UNL     1      46.106   4.449   8.050  0.00  0.00    +0.000 A 
ATOM     19  C   UNL     1      45.559   4.824   9.282  0.00  0.00    +0.000 A 
ATOM     20  C   UNL     1      45.169   3.832  10.171  0.00  0.00    +0.000 A 
ATOM     21  N   UNL     1      45.325   2.518   9.897  0.00  0.00    +0.000 NA
ATOM     22  C   UNL     1      45.847   2.174   8.697  0.00  0.00    +0.000 A 
BRANCH  17  24
ATOM     23  N   UNL     1      46.900   3.499   5.437  0.00  0.00    +0.000 N 
ATOM     24  C   UNL     1      46.746   2.593   6.449  0.00  0.00    +0.000 C 
ATOM     25  O   UNL     1      47.047   1.417   6.291  0.00  0.00    +0.000 OA
ATOM     26  H   UNL     1      47.330   3.150   4.591  0.00  0.00    +0.000 HD
ATOM     27  H   UNL     1      46.909   4.497   5.593  0.00  0.00    +0.000 HD
ENDBRANCH  17  24
ENDBRANCH  16  20
ENDBRANCH   1  16
TORSDOF 5
ENDMDL
MODEL 5
REMARK VINA RESULT:    -6.802      3.396      8.278
REMARK INTER + INTRA:          -9.611
REMARK INTER:                  -8.693
REMARK INTRA:                  -0.918
REMARK UNBOUND:                -0.821
REMARK  Name = 
REMARK  5 active torsions:
REMARK  status: ('A' for Active; 'I' for Inactive)
REMARK    1  A    between atoms: C_2  and  C_4
REMARK    2  A    between atoms: C_7  and  O_8
REMARK    3  A    between atoms: O_8  and  C_9
REMARK    4  A    between atoms: C_9  and  C_10
REMARK    5  A    between atoms: C_14  and  C_15
REMARK                            x       y       z     vdW  Elec       q    Type
REMARK                         _______ _______ _______ _____ _____    ______ ____
ROOT
ATOM      1  C   UNL     1      48.856   7.716  12.768  0.00  0.00    +0.000 C 
ATOM      2  C   UNL     1      49.877   7.920  11.658  0.00  0.00    +0.000 C 
ATOM      3  C   UNL     1      49.506   9.064  12.533  0.00  0.00    +0.000 C 
ENDROOT
BRANCH   1   4
ATOM      4  C   UNL     1      47.387   7.526  12.434  0.00  0.00    +0.000 A 
ATOM      5  C   UNL     1      46.443   8.527  12.704  0.00  0.00    +0.000 A 
ATOM      6  C   UNL     1      45.128   8.423  12.249  0.00  0.00    +0.000 A 
ATOM      7  C   UNL     1      44.732   7.313  11.500  0.00  0.00    +0.000 A 
ATOM      8  C   UNL     1      45.627   6.268  11.216  0.00  0.00    +0.000 A 
ATOM      9  C   UNL     1      46.934   6.391  11.730  0.00  0.00    +0.000 A 
BRANCH   8  10
ATOM     10  C   UNL     1      45.249   5.126  10.358  0.00  0.00    +0.000 A 
ATOM     11  N   UNL     1      45.687   5.122   9.082  0.00  0.00    +0.000 NA
ATOM     12  C   UNL     1      45.411   4.025   8.353  0.00  0.00    +0.000 A 
ATOM     13  C   UNL     1      44.715   2.943   8.839  0.00  0.00    +0.000 A 
ATOM     14  C   UNL     1      44.302   3.047  10.144  0.00  0.00    +0.000 A 
ATOM     15  N   UNL     1      44.558   4.113  10.925  0.00  0.00    +0.000 NA
ENDBRANCH   8  10
ENDBRANCH   1   4
BRANCH   1  16
ATOM     16  O   UNL     1      49.405   6.801  13.739  0.00  0.00    +0.000 OA
BRANCH  16  20
ATOM     17  C   UNL     1      48.374   6.476  17.700  0.00  0.00    +0.000 A 
ATOM     18  C   UNL     1      48.695   7.749  17.230  0.00  0.00    +0.000 A 
ATOM     19  C   UNL     1      49.021   7.922  15.880  0.00  0.00    +0.000 A 
ATOM     20  C   UNL     1      49.018   6.815  15.044  0.00  0.00    +0.000 A 
ATOM     21  N   UNL     1      48.685   5.581  15.484  0.00  0.00    +0.000 NA
ATOM     22  C   UNL     1      48.382   5.431  16.793  0.00  0.00    +0.000 A 
BRANCH  17  24
ATOM     23  N   UNL     1      46.915   5.528  19.401  0.00  0.00    +0.000 N 
ATOM     24  C   UNL     1      48.086   6.173  19.117  0.00  0.00    +0.000 C 
ATOM     25  O   UNL     1      48.882   6.451  20.006  0.00  0.00    +0.000 OA
ATOM     26  H   UNL     1      46.785   5.248  20.363  0.00  0.00    +0.000 HD
ATOM     27  H   UNL     1      46.363   5.062  18.696  0.00  0.00    +0.000 HD
ENDBRANCH  17  24
ENDBRANCH  16  20
ENDBRANCH   1  16
TORSDOF 5
ENDMDL
MODEL 6
REMARK VINA RESULT:    -6.752      2.832      4.642
REMARK INTER + INTRA:          -9.546
REMARK INTER:                  -8.609
REMARK INTRA:                  -0.938
REMARK UNBOUND:                -0.821
REMARK  Name = 
REMARK  5 active torsions:
REMARK  status: ('A' for Active; 'I' for Inactive)
REMARK    1  A    between atoms: C_2  and  C_4
REMARK    2  A    between atoms: C_7  and  O_8
REMARK    3  A    between atoms: O_8  and  C_9
REMARK    4  A    between atoms: C_9  and  C_10
REMARK    5  A    between atoms: C_14  and  C_15
REMARK                            x       y       z     vdW  Elec       q    Type
REMARK                         _______ _______ _______ _____ _____    ______ ____
ROOT
ATOM      1  C   UNL     1      47.950   7.995  12.736  0.00  0.00    +0.000 C 
ATOM      2  C   UNL     1      48.581   9.053  11.842  0.00  0.00    +0.000 C 
ATOM      3  C   UNL     1      48.950   7.623  11.661  0.00  0.00    +0.000 C 
ENDROOT
BRANCH   1   4
ATOM      4  C   UNL     1      48.348   7.887  14.197  0.00  0.00    +0.000 A 
ATOM      5  C   UNL     1      48.174   8.961  15.081  0.00  0.00    +0.000 A 
ATOM      6  C   UNL     1      48.383   8.810  16.452  0.00  0.00    +0.000 A 
ATOM      7  C   UNL     1      48.761   7.569  16.972  0.00  0.00    +0.000 A 
ATOM      8  C   UNL     1      48.970   6.462  16.133  0.00  0.00    +0.000 A 
ATOM      9  C   UNL     1      48.791   6.667  14.749  0.00  0.00    +0.000 A 
BRANCH   8  10
ATOM     10  C   UNL     1      49.291   5.123  16.670  0.00  0.00    +0.000 A 
ATOM     11  N   UNL     1      48.358   4.156  16.553  0.00  0.00    +0.000 NA
ATOM     12  C   UNL     1      48.713   2.923  16.961  0.00  0.00    +0.000 A 
ATOM     13  C   UNL     1      49.947   2.621  17.485  0.00  0.00    +0.000 A 
ATOM     14  C   UNL     1      50.823   3.674  17.574  0.00  0.00    +0.000 A 
ATOM     15  N   UNL     1      50.529   4.925  17.171  0.00  0.00    +0.000 NA
ENDBRANCH   8  10
ENDBRANCH   1   4
BRANCH   1  16
ATOM     16  O   UNL     1      46.534   7.945  12.463  0.00  0.00    +0.000 OA
BRANCH  16  20
ATOM     17  C   UNL     1      44.723   4.389  11.493  0.00  0.00    +0.000 A 
ATOM     18  C   UNL     1      44.995   4.616  12.841  0.00  0.00    +0.000 A 
ATOM     19  C   UNL     1      45.582   5.825  13.231  0.00  0.00    +0.000 A 
ATOM     20  C   UNL     1      45.879   6.769  12.259  0.00  0.00    +0.000 A 
ATOM     21  N   UNL     1      45.597   6.570  10.952  0.00  0.00    +0.000 NA
ATOM     22  C   UNL     1      45.039   5.391  10.592  0.00  0.00    +0.000 A 
BRANCH  17  24
ATOM     23  N   UNL     1      44.947   2.412  10.093  0.00  0.00    +0.000 N 
ATOM     24  C   UNL     1      44.174   3.122  10.968  0.00  0.00    +0.000 C 
ATOM     25  O   UNL     1      43.083   2.698  11.329  0.00  0.00    +0.000 OA
ATOM     26  H   UNL     1      44.592   1.506   9.822  0.00  0.00    +0.000 HD
ATOM     27  H   UNL     1      45.934   2.588   9.969  0.00  0.00    +0.000 HD
ENDBRANCH  17  24
ENDBRANCH  16  20
ENDBRANCH   1  16
TORSDOF 5
ENDMDL
MODEL 7
REMARK VINA RESULT:    -6.425      4.242      8.344
REMARK INTER + INTRA:          -9.124
REMARK INTER:                  -8.737
REMARK INTRA:                  -0.387
REMARK UNBOUND:                -0.821
REMARK  Name = 
REMARK  5 active torsions:
REMARK  status: ('A' for Active; 'I' for Inactive)
REMARK    1  A    between atoms: C_2  and  C_4
REMARK    2  A    between atoms: C_7  and  O_8
REMARK    3  A    between atoms: O_8  and  C_9
REMARK    4  A    between atoms: C_9  and  C_10
REMARK    5  A    between atoms: C_14  and  C_15
REMARK                            x       y       z     vdW  Elec       q    Type
REMARK                         _______ _______ _______ _____ _____    ______ ____
ROOT
ATOM      1  C   UNL     1      48.062   4.674  16.937  0.00  0.00    +0.000 C 
ATOM      2  C   UNL     1      47.091   4.901  18.087  0.00  0.00    +0.000 C 
ATOM      3  C   UNL     1      47.147   3.569  17.426  0.00  0.00    +0.000 C 
ENDROOT
BRANCH   1   4
ATOM      4  C   UNL     1      47.809   5.309  15.582  0.00  0.00    +0.000 A 
ATOM      5  C   UNL     1      48.643   6.319  15.082  0.00  0.00    +0.000 A 
ATOM      6  C   UNL     1      48.512   6.784  13.774  0.00  0.00    +0.000 A 
ATOM      7  C   UNL     1      47.544   6.236  12.929  0.00  0.00    +0.000 A 
ATOM      8  C   UNL     1      46.666   5.236  13.379  0.00  0.00    +0.000 A 
ATOM      9  C   UNL     1      46.802   4.824  14.721  0.00  0.00    +0.000 A 
BRANCH   8  10
ATOM     10  C   UNL     1      45.690   4.588  12.478  0.00  0.00    +0.000 A 
ATOM     11  N   UNL     1      45.052   3.487  12.925  0.00  0.00    +0.000 NA
ATOM     12  C   UNL     1      44.100   2.975  12.123  0.00  0.00    +0.000 A 
ATOM     13  C   UNL     1      43.765   3.508  10.902  0.00  0.00    +0.000 A 
ATOM     14  C   UNL     1      44.478   4.621  10.529  0.00  0.00    +0.000 A 
ATOM     15  N   UNL     1      45.433   5.184  11.293  0.00  0.00    +0.000 NA
ENDBRANCH   8  10
ENDBRANCH   1   4
BRANCH   1  16
ATOM     16  O   UNL     1      49.409   4.781  17.442  0.00  0.00    +0.000 OA
BRANCH  16  20
ATOM     17  C   UNL     1      52.188   1.769  17.703  0.00  0.00    +0.000 A 
ATOM     18  C   UNL     1      50.946   1.442  17.161  0.00  0.00    +0.000 A 
ATOM     19  C   UNL     1      49.973   2.438  17.018  0.00  0.00    +0.000 A 
ATOM     20  C   UNL     1      50.274   3.729  17.425  0.00  0.00    +0.000 A 
ATOM     21  N   UNL     1      51.482   4.063  17.929  0.00  0.00    +0.000 NA
ATOM     22  C   UNL     1      52.407   3.085  18.068  0.00  0.00    +0.000 A 
BRANCH  17  24
ATOM     23  N   UNL     1      53.517  -0.141  16.989  0.00  0.00    +0.000 N 
ATOM     24  C   UNL     1      53.256   0.782  17.963  0.00  0.00    +0.000 C 
ATOM     25  O   UNL     1      53.914   0.808  18.996  0.00  0.00    +0.000 OA
ATOM     26  H   UNL     1      54.312  -0.743  17.150  0.00  0.00    +0.000 HD
ATOM     27  H   UNL     1      53.184  -0.043  16.041  0.00  0.00    +0.000 HD
ENDBRANCH  17  24
ENDBRANCH  16  20
ENDBRANCH   1  16
TORSDOF 5
ENDMDL
MODEL 8
REMARK VINA RESULT:    -6.377      3.060      7.654
REMARK INTER + INTRA:          -9.063
REMARK INTER:                  -8.371
REMARK INTRA:                  -0.692
REMARK UNBOUND:                -0.821
REMARK  Name = 
REMARK  5 active torsions:
REMARK  status: ('A' for Active; 'I' for Inactive)
REMARK    1  A    between atoms: C_2  and  C_4
REMARK    2  A    between atoms: C_7  and  O_8
REMARK    3  A    between atoms: O_8  and  C_9
REMARK    4  A    between atoms: C_9  and  C_10
REMARK    5  A    between atoms: C_14  and  C_15
REMARK                            x       y       z     vdW  Elec       q    Type
REMARK                         _______ _______ _______ _____ _____    ______ ____
ROOT
ATOM      1  C   UNL     1      45.996   7.774  12.066  0.00  0.00    +0.000 C 
ATOM      2  C   UNL     1      45.717   9.188  11.577  0.00  0.00    +0.000 C 
ATOM      3  C   UNL     1      45.375   8.814  12.976  0.00  0.00    +0.000 C 
ENDROOT
BRANCH   1   4
ATOM      4  C   UNL     1      45.153   6.611  11.574  0.00  0.00    +0.000 A 
ATOM      5  C   UNL     1      43.792   6.511  11.894  0.00  0.00    +0.000 A 
ATOM      6  C   UNL     1      42.982   5.537  11.309  0.00  0.00    +0.000 A 
ATOM      7  C   UNL     1      43.519   4.646  10.377  0.00  0.00    +0.000 A 
ATOM      8  C   UNL     1      44.879   4.684  10.032  0.00  0.00    +0.000 A 
ATOM      9  C   UNL     1      45.674   5.654  10.678  0.00  0.00    +0.000 A 
BRANCH   8  10
ATOM     10  C   UNL     1      45.448   3.804   8.990  0.00  0.00    +0.000 A 
ATOM     11  N   UNL     1      46.058   4.385   7.937  0.00  0.00    +0.000 NA
ATOM     12  C   UNL     1      46.652   3.560   7.054  0.00  0.00    +0.000 A 
ATOM     13  C   UNL     1      46.654   2.191   7.174  0.00  0.00    +0.000 A 
ATOM     14  C   UNL     1      45.997   1.695   8.273  0.00  0.00    +0.000 A 
ATOM     15  N   UNL     1      45.396   2.470   9.195  0.00  0.00    +0.000 NA
ENDBRANCH   8  10
ENDBRANCH   1   4
BRANCH   1  16
ATOM     16  O   UNL     1      47.423   7.561  12.072  0.00  0.00    +0.000 OA
BRANCH  16  20
ATOM     17  C   UNL     1      49.546   6.957  15.534  0.00  0.00    +0.000 A 
ATOM     18  C   UNL     1      49.858   8.092  14.788  0.00  0.00    +0.000 A 
ATOM     19  C   UNL     1      49.143   8.364  13.616  0.00  0.00    +0.000 A 
ATOM     20  C   UNL     1      48.139   7.489  13.227  0.00  0.00    +0.000 A 
ATOM     21  N   UNL     1      47.811   6.399  13.956  0.00  0.00    +0.000 NA
ATOM     22  C   UNL     1      48.520   6.147  15.080  0.00  0.00    +0.000 A 
BRANCH  17  24
ATOM     23  N   UNL     1      51.495   7.132  16.981  0.00  0.00    +0.000 N 
ATOM     24  C   UNL     1      50.286   6.540  16.743  0.00  0.00    +0.000 C 
ATOM     25  O   UNL     1      49.821   5.723  17.529  0.00  0.00    +0.000 OA
ATOM     26  H   UNL     1      51.937   6.901  17.860  0.00  0.00    +0.000 HD
ATOM     27  H   UNL     1      51.793   7.974  16.511  0.00  0.00    +0.000 HD
ENDBRANCH  17  24
ENDBRANCH  16  20
ENDBRANCH   1  16
TORSDOF 5
ENDMDL
MODEL 9
REMARK VINA RESULT:    -6.332      3.144      7.065
REMARK INTER + INTRA:          -9.004
REMARK INTER:                  -8.024
REMARK INTRA:                  -0.980
REMARK UNBOUND:                -0.821
REMARK  Name = 
REMARK  5 active torsions:
REMARK  status: ('A' for Active; 'I' for Inactive)
REMARK    1  A    between atoms: C_2  and  C_4
REMARK    2  A    between atoms: C_7  and  O_8
REMARK    3  A    between atoms: O_8  and  C_9
REMARK    4  A    between atoms: C_9  and  C_10
REMARK    5  A    between atoms: C_14  and  C_15
REMARK                            x       y       z     vdW  Elec       q    Type
REMARK                         _______ _______ _______ _____ _____    ______ ____
ROOT
ATOM      1  C   UNL     1      46.243   5.043  13.352  0.00  0.00    +0.000 C 
ATOM      2  C   UNL     1      46.008   4.378  14.701  0.00  0.00    +0.000 C 
ATOM      3  C   UNL     1      47.162   3.952  13.864  0.00  0.00    +0.000 C 
ENDROOT
BRANCH   1   4
ATOM      4  C   UNL     1      45.319   4.755  12.182  0.00  0.00    +0.000 A 
ATOM      5  C   UNL     1      44.032   5.305  12.117  0.00  0.00    +0.000 A 
ATOM      6  C   UNL     1      43.248   5.178  10.970  0.00  0.00    +0.000 A 
ATOM      7  C   UNL     1      43.745   4.503   9.853  0.00  0.00    +0.000 A 
ATOM      8  C   UNL     1      45.019   3.912   9.866  0.00  0.00    +0.000 A 
ATOM      9  C   UNL     1      45.763   4.026  11.059  0.00  0.00    +0.000 A 
BRANCH   8  10
ATOM     10  C   UNL     1      45.594   3.264   8.668  0.00  0.00    +0.000 A 
ATOM     11  N   UNL     1      45.885   4.043   7.607  0.00  0.00    +0.000 NA
ATOM     12  C   UNL     1      46.497   3.444   6.569  0.00  0.00    +0.000 A 
ATOM     13  C   UNL     1      46.819   2.108   6.543  0.00  0.00    +0.000 A 
ATOM     14  C   UNL     1      46.472   1.397   7.665  0.00  0.00    +0.000 A 
ATOM     15  N   UNL     1      45.870   1.944   8.737  0.00  0.00    +0.000 NA
ENDBRANCH   8  10
ENDBRANCH   1   4
BRANCH   1  16
ATOM     16  O   UNL     1      46.569   6.431  13.571  0.00  0.00    +0.000 OA
BRANCH  16  20
ATOM     17  C   UNL     1      50.149   7.953  12.258  0.00  0.00    +0.000 A 
ATOM     18  C   UNL     1      49.126   7.837  11.319  0.00  0.00    +0.000 A 
ATOM     19  C   UNL     1      47.875   7.355  11.720  0.00  0.00    +0.000 A 
ATOM     20  C   UNL     1      47.688   7.003  13.048  0.00  0.00    +0.000 A 
ATOM     21  N   UNL     1      48.665   7.134  13.973  0.00  0.00    +0.000 NA
ATOM     22  C   UNL     1      49.871   7.593  13.565  0.00  0.00    +0.000 A 
BRANCH  17  24
ATOM     23  N   UNL     1      52.478   8.255  12.898  0.00  0.00    +0.000 N 
ATOM     24  C   UNL     1      51.524   8.381  11.927  0.00  0.00    +0.000 C 
ATOM     25  O   UNL     1      51.814   8.796  10.812  0.00  0.00    +0.000 OA
ATOM     26  H   UNL     1      53.426   8.464  12.618  0.00  0.00    +0.000 HD
ATOM     27  H   UNL     1      52.343   7.693  13.726  0.00  0.00    +0.000 HD
ENDBRANCH  17  24
ENDBRANCH  16  20
ENDBRANCH   1  16
TORSDOF 5
ENDMDL
