MODEL 1
REMARK VINA RESULT:    -7.823      0.000      0.000
REMARK INTER + INTRA:         -12.104
REMARK INTER:                 -11.024
REMARK INTRA:                  -1.081
REMARK UNBOUND:                -1.081
REMARK  Name = 
REMARK  7 active torsions:
REMARK  status: ('A' for Active; 'I' for Inactive)
REMARK    1  A    between atoms: C_2  and  C_25
REMARK    2  A    between atoms: N_3  and  C_4
REMARK    3  A    between atoms: C_4  and  C_5
REMARK    4  A    between atoms: C_8  and  C_9
REMARK    5  A    between atoms: C_9  and  N_10
REMARK    6  A    between atoms: C_11  and  C_13
REMARK    7  A    between atoms: C_28  and  C_29
REMARK                            x       y       z     vdW  Elec       q    Type
REMARK                         _______ _______ _______ _____ _____    ______ ____
ROOT
ATOM      1  C   UNL     1      46.248   7.147  12.578  0.00  0.00    +0.000 A 
ATOM      2  C   UNL     1      47.118   6.166  13.074  0.00  0.00    +0.000 A 
ATOM      3  C   UNL     1      48.090   6.488  14.030  0.00  0.00    +0.000 A 
ATOM      4  C   UNL     1      48.200   7.794  14.526  0.00  0.00    +0.000 A 
ATOM      5  C   UNL     1      47.327   8.772  14.034  0.00  0.00    +0.000 A 
ATOM      6  C   UNL     1      46.355   8.451  13.080  0.00  0.00    +0.000 A 
ENDROOT
BRANCH   1   7
ATOM      7  C   UNL     1      45.268   6.824  11.481  0.00  0.00    +0.000 C 
BRANCH   7  10
ATOM      8  O   UNL     1      43.334   5.087  10.605  0.00  0.00    +0.000 OA
ATOM      9  C   UNL     1      44.502   4.801  10.341  0.00  0.00    +0.000 C 
ATOM     10  N   UNL     1      45.552   5.601  10.772  0.00  0.00    +0.000 N 
ATOM     11  H   UNL     1      46.495   5.371  10.477  0.00  0.00    +0.000 HD
BRANCH   9  12
ATOM     12  C   UNL     1      44.887   3.635   9.551  0.00  0.00    +0.000 A 
ATOM     13  N   UNL     1      44.493   2.386   9.744  0.00  0.00    +0.000 NA
ATOM     14  C   UNL     1      45.137   1.684   8.750  0.00  0.00    +0.000 A 
ATOM     15  C   UNL     1      45.920   2.527   7.998  0.00  0.00    +0.000 A 
ATOM     16  O   UNL     1      45.756   3.794   8.500  0.00  0.00    +0.000 OA
BRANCH  15  17
ATOM     17  C   UNL     1      46.836   2.329   6.859  0.00  0.00    +0.000 C 
ATOM     18  F   UNL     1      46.405   2.988   5.750  0.00  0.00    +0.000 F 
ATOM     19  F   UNL     1      48.089   2.783   7.117  0.00  0.00    +0.000 F 
ATOM     20  F   UNL     1      46.948   1.022   6.513  0.00  0.00    +0.000 F 
ENDBRANCH  15  17
ENDBRANCH   9  12
ENDBRANCH   7  10
ENDBRANCH   1   7
BRANCH   4  21
ATOM     21  C   UNL     1      49.254   8.152  15.545  0.00  0.00    +0.000 C 
BRANCH  21  22
ATOM     22  N   UNL     1      50.068   7.016  15.899  0.00  0.00    +0.000 N 
ATOM     23  C   UNL     1      50.439   6.794  17.202  0.00  0.00    +0.000 C 
ATOM     24  O   UNL     1      50.057   7.523  18.115  0.00  0.00    +0.000 OA
ATOM     25  H   UNL     1      50.569   6.549  15.148  0.00  0.00    +0.000 HD
BRANCH  23  26
ATOM     26  C   UNL     1      51.264   5.608  17.467  0.00  0.00    +0.000 A 
ATOM     27  C   UNL     1      52.588   5.769  17.855  0.00  0.00    +0.000 A 
ATOM     28  S   UNL     1      53.392   4.300  18.175  0.00  0.00    +0.000 S 
ATOM     29  C   UNL     1      52.016   3.392  17.754  0.00  0.00    +0.000 A 
ATOM     30  N   UNL     1      52.039   2.032  17.786  0.00  0.00    +0.000 NA
ATOM     31  C   UNL     1      50.939   1.472  17.409  0.00  0.00    +0.000 A 
ATOM     32  N   UNL     1      49.816   2.148  17.009  0.00  0.00    +0.000 N 
ATOM     33  C   UNL     1      49.735   3.521  16.990  0.00  0.00    +0.000 A 
ATOM     34  O   UNL     1      48.701   4.097  16.669  0.00  0.00    +0.000 OA
ATOM     35  C   UNL     1      50.952   4.202  17.392  0.00  0.00    +0.000 A 
ATOM     36  H   UNL     1      48.983   1.649  16.734  0.00  0.00    +0.000 HD
ENDBRANCH  23  26
ENDBRANCH  21  22
ENDBRANCH   4  21
TORSDOF 7
ENDMDL
MODEL 2
REMARK VINA RESULT:    -7.734      1.991      2.246
REMARK INTER + INTRA:         -11.980
REMARK INTER:                 -10.787
REMARK INTRA:                  -1.192
REMARK UNBOUND:                -1.081
REMARK  Name = 
REMARK  7 active torsions:
REMARK  status: ('A' for Active; 'I' for Inactive)
REMARK    1  A    between atoms: C_2  and  C_25
REMARK    2  A    between atoms: N_3  and  C_4
REMARK    3  A    between atoms: C_4  and  C_5
REMARK    4  A    between atoms: C_8  and  C_9
REMARK    5  A    between atoms: C_9  and  N_10
REMARK    6  A    between atoms: C_11  and  C_13
REMARK    7  A    between atoms: C_28  and  C_29
REMARK                            x       y       z     vdW  Elec       q    Type
REMARK                         _______ _______ _______ _____ _____    ______ ____
ROOT
ATOM      1  C   UNL     1      46.014   7.411  11.875  0.00  0.00    +0.000 A 
ATOM      2  C   UNL     1      45.773   8.490  12.738  0.00  0.00    +0.000 A 
ATOM      3  C   UNL     1      46.770   8.949  13.606  0.00  0.00    +0.000 A 
ATOM      4  C   UNL     1      48.039   8.353  13.618  0.00  0.00    +0.000 A 
ATOM      5  C   UNL     1      48.281   7.279  12.751  0.00  0.00    +0.000 A 
ATOM      6  C   UNL     1      47.284   6.820  11.882  0.00  0.00    +0.000 A 
ENDROOT
BRANCH   1   7
ATOM      7  C   UNL     1      44.912   6.854  11.012  0.00  0.00    +0.000 C 
BRANCH   7  10
ATOM      8  O   UNL     1      43.365   4.590  10.975  0.00  0.00    +0.000 OA
ATOM      9  C   UNL     1      44.401   4.568  10.312  0.00  0.00    +0.000 C 
ATOM     10  N   UNL     1      45.266   5.654  10.296  0.00  0.00    +0.000 N 
ATOM     11  H   UNL     1      46.075   5.626   9.685  0.00  0.00    +0.000 HD
BRANCH   9  12
ATOM     12  C   UNL     1      44.802   3.437   9.482  0.00  0.00    +0.000 A 
ATOM     13  N   UNL     1      44.383   2.186   9.594  0.00  0.00    +0.000 NA
ATOM     14  C   UNL     1      45.059   1.523   8.595  0.00  0.00    +0.000 A 
ATOM     15  C   UNL     1      45.885   2.389   7.920  0.00  0.00    +0.000 A 
ATOM     16  O   UNL     1      45.719   3.632   8.477  0.00  0.00    +0.000 OA
BRANCH  15  17
ATOM     17  C   UNL     1      46.846   2.233   6.812  0.00  0.00    +0.000 C 
ATOM     18  F   UNL     1      46.398   2.825   5.673  0.00  0.00    +0.000 F 
ATOM     19  F   UNL     1      48.053   2.789   7.090  0.00  0.00    +0.000 F 
ATOM     20  F   UNL     1      47.069   0.929   6.507  0.00  0.00    +0.000 F 
ENDBRANCH  15  17
ENDBRANCH   9  12
ENDBRANCH   7  10
ENDBRANCH   1   7
BRANCH   4  21
ATOM     21  C   UNL     1      49.114   8.833  14.560  0.00  0.00    +0.000 C 
BRANCH  21  22
ATOM     22  N   UNL     1      49.235   7.980  15.717  0.00  0.00    +0.000 N 
ATOM     23  C   UNL     1      48.601   8.295  16.893  0.00  0.00    +0.000 C 
ATOM     24  O   UNL     1      47.877   9.284  16.992  0.00  0.00    +0.000 OA
ATOM     25  H   UNL     1      49.993   7.304  15.721  0.00  0.00    +0.000 HD
BRANCH  23  26
ATOM     26  C   UNL     1      48.778   7.365  18.015  0.00  0.00    +0.000 A 
ATOM     27  C   UNL     1      49.102   7.860  19.272  0.00  0.00    +0.000 A 
ATOM     28  S   UNL     1      49.218   6.658  20.475  0.00  0.00    +0.000 S 
ATOM     29  C   UNL     1      48.895   5.424  19.350  0.00  0.00    +0.000 A 
ATOM     30  N   UNL     1      48.874   4.119  19.731  0.00  0.00    +0.000 NA
ATOM     31  C   UNL     1      48.651   3.286  18.770  0.00  0.00    +0.000 A 
ATOM     32  N   UNL     1      48.441   3.642  17.463  0.00  0.00    +0.000 N 
ATOM     33  C   UNL     1      48.422   4.949  17.036  0.00  0.00    +0.000 A 
ATOM     34  O   UNL     1      48.188   5.237  15.867  0.00  0.00    +0.000 OA
ATOM     35  C   UNL     1      48.682   5.927  18.077  0.00  0.00    +0.000 A 
ATOM     36  H   UNL     1      48.263   2.941  16.759  0.00  0.00    +0.000 HD
ENDBRANCH  23  26
ENDBRANCH  21  22
ENDBRANCH   4  21
TORSDOF 7
ENDMDL
MODEL 3
REMARK VINA RESULT:    -7.016      4.714      5.597
REMARK INTER + INTRA:         -10.968
REMARK INTER:                  -9.889
REMARK INTRA:                  -1.079
REMARK UNBOUND:                -1.081
REMARK  Name = 
REMARK  7 active torsions:
REMARK  status: ('A' for Active; 'I' for Inactive)
REMARK    1  A    between atoms: C_2  and  C_25
REMARK    2  A    between atoms: N_3  and  C_4
REMARK    3  A    between atoms: C_4  and  C_5
REMARK    4  A    between atoms: C_8  and  C_9
REMARK    5  A    between atoms: C_9  and  N_10
REMARK    6  A    between atoms: C_11  and  C_13
REMARK    7  A    between atoms: C_28  and  C_29
REMARK                            x       y       z     vdW  Elec       q    Type
REMARK                         _______ _______ _______ _____ _____    ______ ____
ROOT
ATOM      1  C   UNL     1      46.101   7.196  12.352  0.00  0.00    +0.000 A 
ATOM      2  C   UNL     1      45.611   8.502  12.206  0.00  0.00    +0.000 A 
ATOM      3  C   UNL     1      46.487   9.593  12.159  0.00  0.00    +0.000 A 
ATOM      4  C   UNL     1      47.873   9.402  12.237  0.00  0.00    +0.000 A 
ATOM      5  C   UNL     1      48.362   8.097  12.377  0.00  0.00    +0.000 A 
ATOM      6  C   UNL     1      47.487   7.005  12.423  0.00  0.00    +0.000 A 
ENDROOT
BRANCH   1   7
ATOM      7  C   UNL     1      45.156   6.032  12.500  0.00  0.00    +0.000 C 
BRANCH   7  10
ATOM      8  O   UNL     1      43.371   5.168  10.606  0.00  0.00    +0.000 OA
ATOM      9  C   UNL     1      44.459   4.593  10.651  0.00  0.00    +0.000 C 
ATOM     10  N   UNL     1      45.414   4.938  11.598  0.00  0.00    +0.000 N 
ATOM     11  H   UNL     1      46.323   4.491  11.561  0.00  0.00    +0.000 HD
BRANCH   9  12
ATOM     12  C   UNL     1      44.851   3.537   9.723  0.00  0.00    +0.000 A 
ATOM     13  N   UNL     1      44.477   2.268   9.767  0.00  0.00    +0.000 NA
ATOM     14  C   UNL     1      45.119   1.700   8.691  0.00  0.00    +0.000 A 
ATOM     15  C   UNL     1      45.882   2.638   8.038  0.00  0.00    +0.000 A 
ATOM     16  O   UNL     1      45.707   3.833   8.690  0.00  0.00    +0.000 OA
BRANCH  15  17
ATOM     17  C   UNL     1      46.788   2.593   6.875  0.00  0.00    +0.000 C 
ATOM     18  F   UNL     1      46.743   1.384   6.253  0.00  0.00    +0.000 F 
ATOM     19  F   UNL     1      46.476   3.523   5.938  0.00  0.00    +0.000 F 
ATOM     20  F   UNL     1      48.083   2.798   7.227  0.00  0.00    +0.000 F 
ENDBRANCH  15  17
ENDBRANCH   9  12
ENDBRANCH   7  10
ENDBRANCH   1   7
BRANCH   4  21
ATOM     21  C   UNL     1      48.823  10.574  12.201  0.00  0.00    +0.000 C 
BRANCH  21  22
ATOM     22  N   UNL     1      50.172  10.165  11.895  0.00  0.00    +0.000 N 
ATOM     23  C   UNL     1      50.797  10.601  10.753  0.00  0.00    +0.000 C 
ATOM     24  O   UNL     1      50.254  11.385   9.978  0.00  0.00    +0.000 OA
ATOM     25  H   UNL     1      50.538   9.358  12.392  0.00  0.00    +0.000 HD
BRANCH  23  26
ATOM     26  C   UNL     1      52.172  10.136  10.529  0.00  0.00    +0.000 A 
ATOM     27  C   UNL     1      53.192  11.066  10.370  0.00  0.00    +0.000 A 
ATOM     28  S   UNL     1      54.734  10.366  10.172  0.00  0.00    +0.000 S 
ATOM     29  C   UNL     1      54.088   8.794  10.235  0.00  0.00    +0.000 A 
ATOM     30  N   UNL     1      54.890   7.703  10.099  0.00  0.00    +0.000 NA
ATOM     31  C   UNL     1      54.264   6.574  10.131  0.00  0.00    +0.000 A 
ATOM     32  N   UNL     1      52.910   6.438  10.294  0.00  0.00    +0.000 N 
ATOM     33  C   UNL     1      52.064   7.508  10.467  0.00  0.00    +0.000 A 
ATOM     34  O   UNL     1      50.863   7.350  10.655  0.00  0.00    +0.000 OA
ATOM     35  C   UNL     1      52.716   8.804  10.424  0.00  0.00    +0.000 A 
ATOM     36  H   UNL     1      52.482   5.524  10.320  0.00  0.00    +0.000 HD
ENDBRANCH  23  26
ENDBRANCH  21  22
ENDBRANCH   4  21
TORSDOF 7
ENDMDL
MODEL 4
REMARK VINA RESULT:    -6.929      1.281      2.107
REMARK INTER + INTRA:         -10.846
REMARK INTER:                  -9.980
REMARK INTRA:                  -0.865
REMARK UNBOUND:                -1.081
REMARK  Name = 
REMARK  7 active torsions:
REMARK  status: ('A' for Active; 'I' for Inactive)
REMARK    1  A    between atoms: C_2  and  C_25
REMARK    2  A    between atoms: N_3  and  C_4
REMARK    3  A    between atoms: C_4  and  C_5
REMARK    4  A    between atoms: C_8  and  C_9
REMARK    5  A    between atoms: C_9  and  N_10
REMARK    6  A    between atoms: C_11  and  C_13
REMARK    7  A    between atoms: C_28  and  C_29
REMARK                            x       y       z     vdW  Elec       q    Type
REMARK                         _______ _______ _______ _____ _____    ______ ____
ROOT
ATOM      1  C   UNL     1      46.212   7.206  12.391  0.00  0.00    +0.000 A 
ATOM      2  C   UNL     1      46.993   6.149  12.880  0.00  0.00    +0.000 A 
ATOM      3  C   UNL     1      47.955   6.369  13.873  0.00  0.00    +0.000 A 
ATOM      4  C   UNL     1      48.143   7.647  14.416  0.00  0.00    +0.000 A 
ATOM      5  C   UNL     1      47.359   8.702  13.931  0.00  0.00    +0.000 A 
ATOM      6  C   UNL     1      46.397   8.482  12.938  0.00  0.00    +0.000 A 
ENDROOT
BRANCH   1   7
ATOM      7  C   UNL     1      45.247   6.989  11.255  0.00  0.00    +0.000 C 
BRANCH   7  10
ATOM      8  O   UNL     1      43.591   4.803  11.235  0.00  0.00    +0.000 OA
ATOM      9  C   UNL     1      44.585   4.757  10.510  0.00  0.00    +0.000 C 
ATOM     10  N   UNL     1      45.499   5.801  10.479  0.00  0.00    +0.000 N 
ATOM     11  H   UNL     1      46.269   5.757   9.820  0.00  0.00    +0.000 HD
BRANCH   9  12
ATOM     12  C   UNL     1      44.880   3.639   9.619  0.00  0.00    +0.000 A 
ATOM     13  N   UNL     1      44.376   2.417   9.690  0.00  0.00    +0.000 NA
ATOM     14  C   UNL     1      44.974   1.755   8.642  0.00  0.00    +0.000 A 
ATOM     15  C   UNL     1      45.841   2.591   7.979  0.00  0.00    +0.000 A 
ATOM     16  O   UNL     1      45.780   3.816   8.595  0.00  0.00    +0.000 OA
BRANCH  15  17
ATOM     17  C   UNL     1      46.757   2.419   6.836  0.00  0.00    +0.000 C 
ATOM     18  F   UNL     1      48.007   2.872   7.124  0.00  0.00    +0.000 F 
ATOM     19  F   UNL     1      46.891   1.119   6.470  0.00  0.00    +0.000 F 
ATOM     20  F   UNL     1      46.342   3.102   5.739  0.00  0.00    +0.000 F 
ENDBRANCH  15  17
ENDBRANCH   9  12
ENDBRANCH   7  10
ENDBRANCH   1   7
BRANCH   4  21
ATOM     21  C   UNL     1      49.187   7.896  15.476  0.00  0.00    +0.000 C 
BRANCH  21  22
ATOM     22  N   UNL     1      49.883   6.686  15.841  0.00  0.00    +0.000 N 
ATOM     23  C   UNL     1      50.229   6.439  17.146  0.00  0.00    +0.000 C 
ATOM     24  O   UNL     1      49.923   7.210  18.052  0.00  0.00    +0.000 OA
ATOM     25  H   UNL     1      50.333   6.164  15.094  0.00  0.00    +0.000 HD
BRANCH  23  26
ATOM     26  C   UNL     1      50.929   5.178  17.422  0.00  0.00    +0.000 A 
ATOM     27  C   UNL     1      50.220   3.983  17.410  0.00  0.00    +0.000 A 
ATOM     28  S   UNL     1      51.186   2.608  17.696  0.00  0.00    +0.000 S 
ATOM     29  C   UNL     1      52.579   3.563  17.902  0.00  0.00    +0.000 A 
ATOM     30  N   UNL     1      53.778   2.994  18.202  0.00  0.00    +0.000 NA
ATOM     31  C   UNL     1      54.742   3.837  18.364  0.00  0.00    +0.000 A 
ATOM     32  N   UNL     1      54.616   5.198  18.247  0.00  0.00    +0.000 N 
ATOM     33  C   UNL     1      53.433   5.815  17.915  0.00  0.00    +0.000 A 
ATOM     34  O   UNL     1      53.364   7.031  17.775  0.00  0.00    +0.000 OA
ATOM     35  C   UNL     1      52.312   4.912  17.735  0.00  0.00    +0.000 A 
ATOM     36  H   UNL     1      55.413   5.803  18.379  0.00  0.00    +0.000 HD
ENDBRANCH  23  26
ENDBRANCH  21  22
ENDBRANCH   4  21
TORSDOF 7
ENDMDL
MODEL 5
REMARK VINA RESULT:    -6.748      2.253      2.915
REMARK INTER + INTRA:         -10.591
REMARK INTER:                  -9.550
REMARK INTRA:                  -1.040
REMARK UNBOUND:                -1.081
REMARK  Name = 
REMARK  7 active torsions:
REMARK  status: ('A' for Active; 'I' for Inactive)
REMARK    1  A    between atoms: C_2  and  C_25
REMARK    2  A    between atoms: N_3  and  C_4
REMARK    3  A    between atoms: C_4  and  C_5
REMARK    4  A    between atoms: C_8  and  C_9
REMARK    5  A    between atoms: C_9  and  N_10
REMARK    6  A    between atoms: C_11  and  C_13
REMARK    7  A    between atoms: C_28  and  C_29
REMARK                            x       y       z     vdW  Elec       q    Type
REMARK                         _______ _______ _______ _____ _____    ______ ____
ROOT
ATOM      1  C   UNL     1      46.002   7.203  12.130  0.00  0.00    +0.000 A 
ATOM      2  C   UNL     1      45.994   8.521  12.609  0.00  0.00    +0.000 A 
ATOM      3  C   UNL     1      46.867   8.917  13.629  0.00  0.00    +0.000 A 
ATOM      4  C   UNL     1      47.784   8.010  14.179  0.00  0.00    +0.000 A 
ATOM      5  C   UNL     1      47.795   6.695  13.695  0.00  0.00    +0.000 A 
ATOM      6  C   UNL     1      46.923   6.299  12.675  0.00  0.00    +0.000 A 
ENDROOT
BRANCH   1   7
ATOM      7  C   UNL     1      44.997   6.752  11.102  0.00  0.00    +0.000 C 
BRANCH   7  10
ATOM      8  O   UNL     1      43.311   4.620  10.732  0.00  0.00    +0.000 OA
ATOM      9  C   UNL     1      44.433   4.538  10.232  0.00  0.00    +0.000 C 
ATOM     10  N   UNL     1      45.367   5.552  10.395  0.00  0.00    +0.000 N 
ATOM     11  H   UNL     1      46.256   5.480   9.912  0.00  0.00    +0.000 HD
BRANCH   9  12
ATOM     12  C   UNL     1      44.872   3.407   9.422  0.00  0.00    +0.000 A 
ATOM     13  N   UNL     1      44.477   2.149   9.540  0.00  0.00    +0.000 NA
ATOM     14  C   UNL     1      45.184   1.490   8.561  0.00  0.00    +0.000 A 
ATOM     15  C   UNL     1      46.005   2.365   7.891  0.00  0.00    +0.000 A 
ATOM     16  O   UNL     1      45.803   3.610   8.432  0.00  0.00    +0.000 OA
BRANCH  15  17
ATOM     17  C   UNL     1      46.990   2.217   6.803  0.00  0.00    +0.000 C 
ATOM     18  F   UNL     1      46.472   2.598   5.604  0.00  0.00    +0.000 F 
ATOM     19  F   UNL     1      48.100   2.971   7.002  0.00  0.00    +0.000 F 
ATOM     20  F   UNL     1      47.401   0.932   6.655  0.00  0.00    +0.000 F 
ENDBRANCH  15  17
ENDBRANCH   9  12
ENDBRANCH   7  10
ENDBRANCH   1   7
BRANCH   4  21
ATOM     21  C   UNL     1      48.719   8.424  15.288  0.00  0.00    +0.000 C 
BRANCH  21  22
ATOM     22  N   UNL     1      50.041   7.876  15.110  0.00  0.00    +0.000 N 
ATOM     23  C   UNL     1      51.129   8.699  14.955  0.00  0.00    +0.000 C 
ATOM     24  O   UNL     1      51.026   9.922  15.006  0.00  0.00    +0.000 OA
ATOM     25  H   UNL     1      50.108   6.899  14.842  0.00  0.00    +0.000 HD
BRANCH  23  26
ATOM     26  C   UNL     1      52.435   8.050  14.786  0.00  0.00    +0.000 A 
ATOM     27  C   UNL     1      53.232   8.387  13.699  0.00  0.00    +0.000 A 
ATOM     28  S   UNL     1      54.737   7.586  13.676  0.00  0.00    +0.000 S 
ATOM     29  C   UNL     1      54.357   6.717  15.088  0.00  0.00    +0.000 A 
ATOM     30  N   UNL     1      55.230   5.812  15.608  0.00  0.00    +0.000 NA
ATOM     31  C   UNL     1      54.799   5.200  16.660  0.00  0.00    +0.000 A 
ATOM     32  N   UNL     1      53.577   5.416  17.243  0.00  0.00    +0.000 N 
ATOM     33  C   UNL     1      52.676   6.341  16.772  0.00  0.00    +0.000 A 
ATOM     34  O   UNL     1      51.609   6.542  17.343  0.00  0.00    +0.000 OA
ATOM     35  C   UNL     1      53.105   7.049  15.580  0.00  0.00    +0.000 A 
ATOM     36  H   UNL     1      53.304   4.909  18.072  0.00  0.00    +0.000 HD
ENDBRANCH  23  26
ENDBRANCH  21  22
ENDBRANCH   4  21
TORSDOF 7
ENDMDL
MODEL 6
REMARK VINA RESULT:    -6.732      4.542      6.819
REMARK INTER + INTRA:         -10.567
REMARK INTER:                  -9.716
REMARK INTRA:                  -0.851
REMARK UNBOUND:                -1.081
REMARK  Name = 
REMARK  7 active torsions:
REMARK  status: ('A' for Active; 'I' for Inactive)
REMARK    1  A    between atoms: C_2  and  C_25
REMARK    2  A    between atoms: N_3  and  C_4
REMARK    3  A    between atoms: C_4  and  C_5
REMARK    4  A    between atoms: C_8  and  C_9
REMARK    5  A    between atoms: C_9  and  N_10
REMARK    6  A    between atoms: C_11  and  C_13
REMARK    7  A    between atoms: C_28  and  C_29
REMARK                            x       y       z     vdW  Elec       q    Type
REMARK                         _______ _______ _______ _____ _____    ______ ____
ROOT
ATOM      1  C   UNL     1      48.908   3.542  17.291  0.00  0.00    +0.000 A 
ATOM      2  C   UNL     1      49.746   4.595  17.687  0.00  0.00    +0.000 A 
ATOM      3  C   UNL     1      51.111   4.378  17.908  0.00  0.00    +0.000 A 
ATOM      4  C   UNL     1      51.675   3.109  17.717  0.00  0.00    +0.000 A 
ATOM      5  C   UNL     1      50.838   2.059  17.316  0.00  0.00    +0.000 A 
ATOM      6  C   UNL     1      49.473   2.275  17.095  0.00  0.00    +0.000 A 
ENDROOT
BRANCH   1   7
ATOM      7  C   UNL     1      47.423   3.752  17.149  0.00  0.00    +0.000 C 
BRANCH   7  10
ATOM      8  O   UNL     1      47.534   3.022  14.507  0.00  0.00    +0.000 OA
ATOM      9  C   UNL     1      47.108   4.150  14.757  0.00  0.00    +0.000 C 
ATOM     10  N   UNL     1      47.047   4.621  16.061  0.00  0.00    +0.000 N 
ATOM     11  H   UNL     1      46.627   5.528  16.234  0.00  0.00    +0.000 HD
BRANCH   9  12
ATOM     12  C   UNL     1      46.617   5.070  13.736  0.00  0.00    +0.000 A 
ATOM     13  N   UNL     1      47.277   6.088  13.207  0.00  0.00    +0.000 NA
ATOM     14  C   UNL     1      46.382   6.630  12.313  0.00  0.00    +0.000 A 
ATOM     15  C   UNL     1      45.196   5.935  12.343  0.00  0.00    +0.000 A 
ATOM     16  O   UNL     1      45.341   4.917  13.251  0.00  0.00    +0.000 OA
BRANCH  15  17
ATOM     17  C   UNL     1      43.903   6.086  11.648  0.00  0.00    +0.000 C 
ATOM     18  F   UNL     1      43.681   7.376  11.278  0.00  0.00    +0.000 F 
ATOM     19  F   UNL     1      43.833   5.340  10.516  0.00  0.00    +0.000 F 
ATOM     20  F   UNL     1      42.856   5.723  12.431  0.00  0.00    +0.000 F 
ENDBRANCH  15  17
ENDBRANCH   9  12
ENDBRANCH   7  10
ENDBRANCH   1   7
BRANCH   4  21
ATOM     21  C   UNL     1      53.142   2.864  17.967  0.00  0.00    +0.000 C 
BRANCH  21  22
ATOM     22  N   UNL     1      53.469   1.460  17.923  0.00  0.00    +0.000 N 
ATOM     23  C   UNL     1      54.536   1.008  17.187  0.00  0.00    +0.000 C 
ATOM     24  O   UNL     1      55.274   1.780  16.580  0.00  0.00    +0.000 OA
ATOM     25  H   UNL     1      52.752   0.806  18.223  0.00  0.00    +0.000 HD
BRANCH  23  26
ATOM     26  C   UNL     1      54.794  -0.437  17.208  0.00  0.00    +0.000 A 
ATOM     27  C   UNL     1      54.803  -1.148  16.014  0.00  0.00    +0.000 A 
ATOM     28  S   UNL     1      55.170  -2.802  16.203  0.00  0.00    +0.000 S 
ATOM     29  C   UNL     1      55.276  -2.641  17.893  0.00  0.00    +0.000 A 
ATOM     30  N   UNL     1      55.544  -3.717  18.682  0.00  0.00    +0.000 NA
ATOM     31  C   UNL     1      55.561  -3.459  19.947  0.00  0.00    +0.000 A 
ATOM     32  N   UNL     1      55.340  -2.221  20.494  0.00  0.00    +0.000 N 
ATOM     33  C   UNL     1      55.097  -1.100  19.735  0.00  0.00    +0.000 A 
ATOM     34  O   UNL     1      54.947   0.002  20.253  0.00  0.00    +0.000 OA
ATOM     35  C   UNL     1      55.053  -1.338  18.304  0.00  0.00    +0.000 A 
ATOM     36  H   UNL     1      55.376  -2.084  21.493  0.00  0.00    +0.000 HD
ENDBRANCH  23  26
ENDBRANCH  21  22
ENDBRANCH   4  21
TORSDOF 7
ENDMDL
MODEL 7
REMARK VINA RESULT:    -6.709      5.181      9.408
REMARK INTER + INTRA:         -10.535
REMARK INTER:                  -9.577
REMARK INTRA:                  -0.957
REMARK UNBOUND:                -1.081
REMARK  Name = 
REMARK  7 active torsions:
REMARK  status: ('A' for Active; 'I' for Inactive)
REMARK    1  A    between atoms: C_2  and  C_25
REMARK    2  A    between atoms: N_3  and  C_4
REMARK    3  A    between atoms: C_4  and  C_5
REMARK    4  A    between atoms: C_8  and  C_9
REMARK    5  A    between atoms: C_9  and  N_10
REMARK    6  A    between atoms: C_11  and  C_13
REMARK    7  A    between atoms: C_28  and  C_29
REMARK                            x       y       z     vdW  Elec       q    Type
REMARK                         _______ _______ _______ _____ _____    ______ ____
ROOT
ATOM      1  C   UNL     1      50.290   7.008  15.802  0.00  0.00    +0.000 A 
ATOM      2  C   UNL     1      48.973   6.582  15.580  0.00  0.00    +0.000 A 
ATOM      3  C   UNL     1      48.305   6.913  14.395  0.00  0.00    +0.000 A 
ATOM      4  C   UNL     1      48.945   7.660  13.397  0.00  0.00    +0.000 A 
ATOM      5  C   UNL     1      50.263   8.080  13.617  0.00  0.00    +0.000 A 
ATOM      6  C   UNL     1      50.932   7.749  14.801  0.00  0.00    +0.000 A 
ENDROOT
BRANCH   1   7
ATOM      7  C   UNL     1      50.976   6.736  17.116  0.00  0.00    +0.000 C 
BRANCH   7  10
ATOM      8  O   UNL     1      49.781   4.582  18.323  0.00  0.00    +0.000 OA
ATOM      9  C   UNL     1      50.886   4.394  17.814  0.00  0.00    +0.000 C 
ATOM     10  N   UNL     1      51.584   5.432  17.211  0.00  0.00    +0.000 N 
ATOM     11  H   UNL     1      52.460   5.225  16.743  0.00  0.00    +0.000 HD
BRANCH   9  12
ATOM     12  C   UNL     1      51.545   3.093  17.778  0.00  0.00    +0.000 A 
ATOM     13  N   UNL     1      51.013   1.948  17.379  0.00  0.00    +0.000 NA
ATOM     14  C   UNL     1      52.031   1.038  17.546  0.00  0.00    +0.000 A 
ATOM     15  C   UNL     1      53.146   1.655  18.061  0.00  0.00    +0.000 A 
ATOM     16  O   UNL     1      52.847   2.987  18.204  0.00  0.00    +0.000 OA
BRANCH  15  17
ATOM     17  C   UNL     1      54.482   1.182  18.469  0.00  0.00    +0.000 C 
ATOM     18  F   UNL     1      54.612  -0.161  18.295  0.00  0.00    +0.000 F 
ATOM     19  F   UNL     1      55.479   1.763  17.754  0.00  0.00    +0.000 F 
ATOM     20  F   UNL     1      54.735   1.428  19.779  0.00  0.00    +0.000 F 
ENDBRANCH  15  17
ENDBRANCH   9  12
ENDBRANCH   7  10
ENDBRANCH   1   7
BRANCH   4  21
ATOM     21  C   UNL     1      48.227   8.033  12.123  0.00  0.00    +0.000 C 
BRANCH  21  22
ATOM     22  N   UNL     1      47.547   6.903  11.538  0.00  0.00    +0.000 N 
ATOM     23  C   UNL     1      46.185   6.909  11.373  0.00  0.00    +0.000 C 
ATOM     24  O   UNL     1      45.502   7.886  11.673  0.00  0.00    +0.000 OA
ATOM     25  H   UNL     1      48.054   6.024  11.500  0.00  0.00    +0.000 HD
BRANCH  23  26
ATOM     26  C   UNL     1      45.582   5.717  10.763  0.00  0.00    +0.000 A 
ATOM     27  C   UNL     1      45.728   5.498   9.398  0.00  0.00    +0.000 A 
ATOM     28  S   UNL     1      45.018   4.046   8.856  0.00  0.00    +0.000 S 
ATOM     29  C   UNL     1      44.441   3.684  10.415  0.00  0.00    +0.000 A 
ATOM     30  N   UNL     1      43.708   2.560  10.645  0.00  0.00    +0.000 NA
ATOM     31  C   UNL     1      43.306   2.427  11.864  0.00  0.00    +0.000 A 
ATOM     32  N   UNL     1      43.574   3.313  12.876  0.00  0.00    +0.000 N 
ATOM     33  C   UNL     1      44.336   4.445  12.698  0.00  0.00    +0.000 A 
ATOM     34  O   UNL     1      44.595   5.194  13.633  0.00  0.00    +0.000 OA
ATOM     35  C   UNL     1      44.803   4.650  11.339  0.00  0.00    +0.000 A 
ATOM     36  H   UNL     1      43.236   3.146  13.812  0.00  0.00    +0.000 HD
ENDBRANCH  23  26
ENDBRANCH  21  22
ENDBRANCH   4  21
TORSDOF 7
ENDMDL
MODEL 8
REMARK VINA RESULT:    -6.691      5.240      8.023
REMARK INTER + INTRA:         -10.510
REMARK INTER:                  -9.453
REMARK INTRA:                  -1.057
REMARK UNBOUND:                -1.081
REMARK  Name = 
REMARK  7 active torsions:
REMARK  status: ('A' for Active; 'I' for Inactive)
REMARK    1  A    between atoms: C_2  and  C_25
REMARK    2  A    between atoms: N_3  and  C_4
REMARK    3  A    between atoms: C_4  and  C_5
REMARK    4  A    between atoms: C_8  and  C_9
REMARK    5  A    between atoms: C_9  and  N_10
REMARK    6  A    between atoms: C_11  and  C_13
REMARK    7  A    between atoms: C_28  and  C_29
REMARK                            x       y       z     vdW  Elec       q    Type
REMARK                         _______ _______ _______ _____ _____    ______ ____
ROOT
ATOM      1  C   UNL     1      50.548   3.256  17.739  0.00  0.00    +0.000 A 
ATOM      2  C   UNL     1      51.793   3.784  18.108  0.00  0.00    +0.000 A 
ATOM      3  C   UNL     1      52.939   2.978  18.112  0.00  0.00    +0.000 A 
ATOM      4  C   UNL     1      52.869   1.633  17.727  0.00  0.00    +0.000 A 
ATOM      5  C   UNL     1      51.625   1.108  17.353  0.00  0.00    +0.000 A 
ATOM      6  C   UNL     1      50.480   1.913  17.348  0.00  0.00    +0.000 A 
ENDROOT
BRANCH   1   7
ATOM      7  C   UNL     1      49.300   4.095  17.829  0.00  0.00    +0.000 C 
BRANCH   7  10
ATOM      8  O   UNL     1      46.825   3.313  16.943  0.00  0.00    +0.000 OA
ATOM      9  C   UNL     1      47.472   4.058  16.206  0.00  0.00    +0.000 C 
ATOM     10  N   UNL     1      48.748   4.479  16.554  0.00  0.00    +0.000 N 
ATOM     11  H   UNL     1      49.223   5.146  15.955  0.00  0.00    +0.000 HD
BRANCH   9  12
ATOM     12  C   UNL     1      46.965   4.575  14.939  0.00  0.00    +0.000 A 
ATOM     13  N   UNL     1      47.594   5.397  14.113  0.00  0.00    +0.000 NA
ATOM     14  C   UNL     1      46.696   5.579  13.086  0.00  0.00    +0.000 A 
ATOM     15  C   UNL     1      45.539   4.879  13.332  0.00  0.00    +0.000 A 
ATOM     16  O   UNL     1      45.706   4.216  14.522  0.00  0.00    +0.000 OA
BRANCH  15  17
ATOM     17  C   UNL     1      44.256   4.738  12.617  0.00  0.00    +0.000 C 
ATOM     18  F   UNL     1      44.403   4.939  11.280  0.00  0.00    +0.000 F 
ATOM     19  F   UNL     1      43.712   3.504  12.767  0.00  0.00    +0.000 F 
ATOM     20  F   UNL     1      43.331   5.636  13.043  0.00  0.00    +0.000 F 
ENDBRANCH  15  17
ENDBRANCH   9  12
ENDBRANCH   7  10
ENDBRANCH   1   7
BRANCH   4  21
ATOM     21  C   UNL     1      54.095   0.754  17.742  0.00  0.00    +0.000 C 
BRANCH  21  22
ATOM     22  N   UNL     1      53.762  -0.632  17.960  0.00  0.00    +0.000 N 
ATOM     23  C   UNL     1      54.174  -1.285  19.095  0.00  0.00    +0.000 C 
ATOM     24  O   UNL     1      54.798  -0.707  19.982  0.00  0.00    +0.000 OA
ATOM     25  H   UNL     1      53.455  -1.169  17.154  0.00  0.00    +0.000 HD
BRANCH  23  26
ATOM     26  C   UNL     1      53.782  -2.693  19.232  0.00  0.00    +0.000 A 
ATOM     27  C   UNL     1      53.119  -3.111  20.379  0.00  0.00    +0.000 A 
ATOM     28  S   UNL     1      52.687  -4.760  20.360  0.00  0.00    +0.000 S 
ATOM     29  C   UNL     1      53.419  -4.990  18.842  0.00  0.00    +0.000 A 
ATOM     30  N   UNL     1      53.430  -6.215  18.249  0.00  0.00    +0.000 NA
ATOM     31  C   UNL     1      54.049  -6.254  17.117  0.00  0.00    +0.000 A 
ATOM     32  N   UNL     1      54.653  -5.177  16.521  0.00  0.00    +0.000 N 
ATOM     33  C   UNL     1      54.641  -3.915  17.066  0.00  0.00    +0.000 A 
ATOM     34  O   UNL     1      55.152  -2.963  16.486  0.00  0.00    +0.000 OA
ATOM     35  C   UNL     1      53.969  -3.818  18.348  0.00  0.00    +0.000 A 
ATOM     36  H   UNL     1      55.114  -5.273  15.628  0.00  0.00    +0.000 HD
ENDBRANCH  23  26
ENDBRANCH  21  22
ENDBRANCH   4  21
TORSDOF 7
ENDMDL
MODEL 9
REMARK VINA RESULT:    -6.664      6.217      7.460
REMARK INTER + INTRA:         -10.472
REMARK INTER:                  -9.377
REMARK INTRA:                  -1.094
REMARK UNBOUND:                -1.081
REMARK  Name = 
REMARK  7 active torsions:
REMARK  status: ('A' for Active; 'I' for Inactive)
REMARK    1  A    between atoms: C_2  and  C_25
REMARK    2  A    between atoms: N_3  and  C_4
REMARK    3  A    between atoms: C_4  and  C_5
REMARK    4  A    between atoms: C_8  and  C_9
REMARK    5  A    between atoms: C_9  and  N_10
REMARK    6  A    between atoms: C_11  and  C_13
REMARK    7  A    between atoms: C_28  and  C_29
REMARK                            x       y       z     vdW  Elec       q    Type
REMARK                         _______ _______ _______ _____ _____    ______ ____
ROOT
ATOM      1  C   UNL     1      48.605   8.573  12.215  0.00  0.00    +0.000 A 
ATOM      2  C   UNL     1      48.950   9.911  11.980  0.00  0.00    +0.000 A 
ATOM      3  C   UNL     1      50.182  10.243  11.404  0.00  0.00    +0.000 A 
ATOM      4  C   UNL     1      51.090   9.242  11.030  0.00  0.00    +0.000 A 
ATOM      5  C   UNL     1      50.742   7.904  11.260  0.00  0.00    +0.000 A 
ATOM      6  C   UNL     1      49.510   7.573  11.835  0.00  0.00    +0.000 A 
ENDROOT
BRANCH   1   7
ATOM      7  C   UNL     1      47.323   8.221  12.923  0.00  0.00    +0.000 C 
BRANCH   7  10
ATOM      8  O   UNL     1      44.928   8.437  11.603  0.00  0.00    +0.000 OA
ATOM      9  C   UNL     1      45.426   7.313  11.677  0.00  0.00    +0.000 C 
ATOM     10  N   UNL     1      46.618   7.099  12.356  0.00  0.00    +0.000 N 
ATOM     11  H   UNL     1      47.032   6.173  12.337  0.00  0.00    +0.000 HD
BRANCH   9  12
ATOM     12  C   UNL     1      44.837   6.130  11.058  0.00  0.00    +0.000 A 
ATOM     13  N   UNL     1      43.673   5.576  11.359  0.00  0.00    +0.000 NA
ATOM     14  C   UNL     1      43.592   4.499  10.506  0.00  0.00    +0.000 A 
ATOM     15  C   UNL     1      44.722   4.420   9.727  0.00  0.00    +0.000 A 
ATOM     16  O   UNL     1      45.529   5.476  10.067  0.00  0.00    +0.000 OA
BRANCH  15  17
ATOM     17  C   UNL     1      45.189   3.476   8.694  0.00  0.00    +0.000 C 
ATOM     18  F   UNL     1      44.232   3.250   7.753  0.00  0.00    +0.000 F 
ATOM     19  F   UNL     1      46.283   3.930   8.032  0.00  0.00    +0.000 F 
ATOM     20  F   UNL     1      45.511   2.265   9.215  0.00  0.00    +0.000 F 
ENDBRANCH  15  17
ENDBRANCH   9  12
ENDBRANCH   7  10
ENDBRANCH   1   7
BRANCH   4  21
ATOM     21  C   UNL     1      52.425   9.590  10.422  0.00  0.00    +0.000 C 
BRANCH  21  22
ATOM     22  N   UNL     1      52.688   8.828   9.227  0.00  0.00    +0.000 N 
ATOM     23  C   UNL     1      53.913   8.887   8.609  0.00  0.00    +0.000 C 
ATOM     24  O   UNL     1      54.838   9.551   9.071  0.00  0.00    +0.000 OA
ATOM     25  H   UNL     1      51.886   8.467   8.719  0.00  0.00    +0.000 HD
BRANCH  23  26
ATOM     26  C   UNL     1      54.089   8.071   7.401  0.00  0.00    +0.000 A 
ATOM     27  C   UNL     1      54.395   8.690   6.195  0.00  0.00    +0.000 A 
ATOM     28  S   UNL     1      54.619   7.601   4.902  0.00  0.00    +0.000 S 
ATOM     29  C   UNL     1      54.261   6.266   5.894  0.00  0.00    +0.000 A 
ATOM     30  N   UNL     1      54.252   5.003   5.388  0.00  0.00    +0.000 NA
ATOM     31  C   UNL     1      53.930   4.089   6.242  0.00  0.00    +0.000 A 
ATOM     32  N   UNL     1      53.624   4.324   7.557  0.00  0.00    +0.000 N 
ATOM     33  C   UNL     1      53.651   5.579   8.120  0.00  0.00    +0.000 A 
ATOM     34  O   UNL     1      53.414   5.750   9.311  0.00  0.00    +0.000 OA
ATOM     35  C   UNL     1      53.993   6.646   7.198  0.00  0.00    +0.000 A 
ATOM     36  H   UNL     1      53.388   3.563   8.176  0.00  0.00    +0.000 HD
ENDBRANCH  23  26
ENDBRANCH  21  22
ENDBRANCH   4  21
TORSDOF 7
ENDMDL
