MODEL 1
REMARK VINA RESULT:    -8.114      0.000      0.000
REMARK INTER + INTRA:         -11.827
REMARK INTER:                 -10.723
REMARK INTRA:                  -1.104
REMARK UNBOUND:                -1.104
REMARK  Name = 
REMARK  8 active torsions:
REMARK  status: ('A' for Active; 'I' for Inactive)
REMARK    1  A    between atoms: C_1  and  C_2
REMARK    2  A    between atoms: C_2  and  N_3
REMARK    3  A    between atoms: C_2  and  C_17
REMARK    4  A    between atoms: C_4  and  C_6
REMARK    5  A    between atoms: N_12  and  C_13
REMARK    6  A    between atoms: C_20  and  C_21
REMARK    7  A    between atoms: C_21  and  O_22
REMARK    8  A    between atoms: C_21  and  C_23
REMARK                            x       y       z     vdW  Elec       q    Type
REMARK                         _______ _______ _______ _____ _____    ______ ____
ROOT
ATOM      1  C   UNL     1      49.403   7.071  13.052  0.00  0.00    +0.000 C 
ATOM      2  C   UNL     1      48.039   7.570  13.540  0.00  0.00    +0.000 C 
ENDROOT
BRANCH   2   3
ATOM      3  C   UNL     1      46.933   6.775  12.867  0.00  0.00    +0.000 A 
ATOM      4  C   UNL     1      46.215   7.338  11.805  0.00  0.00    +0.000 A 
ATOM      5  C   UNL     1      45.343   6.557  11.044  0.00  0.00    +0.000 A 
ATOM      6  C   UNL     1      45.160   5.197  11.338  0.00  0.00    +0.000 A 
ATOM      7  C   UNL     1      45.786   4.669  12.476  0.00  0.00    +0.000 A 
ATOM      8  C   UNL     1      46.666   5.445  13.229  0.00  0.00    +0.000 A 
BRANCH   6   9
ATOM      9  C   UNL     1      44.304   4.325  10.441  0.00  0.00    +0.000 C 
BRANCH   9  10
ATOM     10  C   UNL     1      45.104   3.656   9.337  0.00  0.00    +0.000 A 
ATOM     11  C   UNL     1      45.249   2.271   9.310  0.00  0.00    +0.000 A 
ATOM     12  C   UNL     1      46.036   1.701   8.318  0.00  0.00    +0.000 A 
ATOM     13  C   UNL     1      46.653   2.524   7.383  0.00  0.00    +0.000 A 
ATOM     14  C   UNL     1      46.440   3.889   7.464  0.00  0.00    +0.000 A 
ATOM     15  N   UNL     1      45.673   4.475   8.407  0.00  0.00    +0.000 NA
ENDBRANCH   9  10
BRANCH   9  16
ATOM     16  O   UNL     1      43.258   5.123   9.864  0.00  0.00    +0.000 OA
ATOM     17  H   UNL     1      43.573   6.043   9.968  0.00  0.00    +0.000 HD
ENDBRANCH   9  16
ENDBRANCH   6   9
ENDBRANCH   2   3
BRANCH   2  18
ATOM     18  N   UNL     1      47.928   7.462  14.975  0.00  0.00    +0.000 N 
ATOM     19  C   UNL     1      48.604   8.271  15.852  0.00  0.00    +0.000 C 
ATOM     20  O   UNL     1      49.230   9.264  15.497  0.00  0.00    +0.000 OA
ATOM     21  H   UNL     1      47.617   6.560  15.307  0.00  0.00    +0.000 HD
BRANCH  19  22
ATOM     22  C   UNL     1      48.463   7.907  17.268  0.00  0.00    +0.000 A 
ATOM     23  C   UNL     1      48.099   8.859  18.209  0.00  0.00    +0.000 A 
ATOM     24  S   UNL     1      47.860   8.207  19.769  0.00  0.00    +0.000 S 
ATOM     25  C   UNL     1      48.289   6.645  19.246  0.00  0.00    +0.000 A 
ATOM     26  N   UNL     1      48.262   5.584  20.094  0.00  0.00    +0.000 NA
ATOM     27  C   UNL     1      48.632   4.464  19.565  0.00  0.00    +0.000 A 
ATOM     28  N   UNL     1      49.056   4.294  18.263  0.00  0.00    +0.000 N 
ATOM     29  C   UNL     1      49.475   2.996  17.778  0.00  0.00    +0.000 C 
ATOM     30  C   UNL     1      49.101   5.359  17.373  0.00  0.00    +0.000 A 
ATOM     31  O   UNL     1      49.480   5.235  16.212  0.00  0.00    +0.000 OA
ATOM     32  C   UNL     1      48.641   6.627  17.913  0.00  0.00    +0.000 A 
ENDBRANCH  19  22
ENDBRANCH   2  18
TORSDOF 6
ENDMDL
MODEL 2
REMARK VINA RESULT:    -7.874      2.215      3.374
REMARK INTER + INTRA:         -11.509
REMARK INTER:                 -10.417
REMARK INTRA:                  -1.092
REMARK UNBOUND:                -1.104
REMARK  Name = 
REMARK  8 active torsions:
REMARK  status: ('A' for Active; 'I' for Inactive)
REMARK    1  A    between atoms: C_1  and  C_2
REMARK    2  A    between atoms: C_2  and  N_3
REMARK    3  A    between atoms: C_2  and  C_17
REMARK    4  A    between atoms: C_4  and  C_6
REMARK    5  A    between atoms: N_12  and  C_13
REMARK    6  A    between atoms: C_20  and  C_21
REMARK    7  A    between atoms: C_21  and  O_22
REMARK    8  A    between atoms: C_21  and  C_23
REMARK                            x       y       z     vdW  Elec       q    Type
REMARK                         _______ _______ _______ _____ _____    ______ ____
ROOT
ATOM      1  C   UNL     1      47.149   4.375  15.990  0.00  0.00    +0.000 C 
ATOM      2  C   UNL     1      47.640   4.998  14.678  0.00  0.00    +0.000 C 
ENDROOT
BRANCH   2   3
ATOM      3  C   UNL     1      46.620   4.749  13.580  0.00  0.00    +0.000 A 
ATOM      4  C   UNL     1      46.327   5.760  12.657  0.00  0.00    +0.000 A 
ATOM      5  C   UNL     1      45.554   5.487  11.527  0.00  0.00    +0.000 A 
ATOM      6  C   UNL     1      45.046   4.199  11.302  0.00  0.00    +0.000 A 
ATOM      7  C   UNL     1      45.238   3.223  12.290  0.00  0.00    +0.000 A 
ATOM      8  C   UNL     1      46.019   3.490  13.413  0.00  0.00    +0.000 A 
BRANCH   6   9
ATOM      9  C   UNL     1      44.307   3.877  10.018  0.00  0.00    +0.000 C 
BRANCH   9  10
ATOM     10  C   UNL     1      45.223   3.341   8.933  0.00  0.00    +0.000 A 
ATOM     11  C   UNL     1      45.459   1.973   8.819  0.00  0.00    +0.000 A 
ATOM     12  C   UNL     1      46.349   1.527   7.850  0.00  0.00    +0.000 A 
ATOM     13  C   UNL     1      46.974   2.453   7.024  0.00  0.00    +0.000 A 
ATOM     14  C   UNL     1      46.667   3.792   7.185  0.00  0.00    +0.000 A 
ATOM     15  N   UNL     1      45.800   4.260   8.107  0.00  0.00    +0.000 NA
ENDBRANCH   9  10
BRANCH   9  16
ATOM     16  O   UNL     1      43.639   5.059   9.548  0.00  0.00    +0.000 OA
ATOM     17  H   UNL     1      43.373   5.526  10.366  0.00  0.00    +0.000 HD
ENDBRANCH   9  16
ENDBRANCH   6   9
ENDBRANCH   2   3
BRANCH   2  18
ATOM     18  N   UNL     1      47.873   6.415  14.830  0.00  0.00    +0.000 N 
ATOM     19  C   UNL     1      48.997   6.941  15.413  0.00  0.00    +0.000 C 
ATOM     20  O   UNL     1      49.977   6.264  15.704  0.00  0.00    +0.000 OA
ATOM     21  H   UNL     1      47.038   6.983  14.812  0.00  0.00    +0.000 HD
BRANCH  19  22
ATOM     22  C   UNL     1      48.977   8.398  15.597  0.00  0.00    +0.000 A 
ATOM     23  C   UNL     1      49.414   9.243  14.588  0.00  0.00    +0.000 A 
ATOM     24  S   UNL     1      49.184  10.897  14.947  0.00  0.00    +0.000 S 
ATOM     25  C   UNL     1      48.546  10.535  16.483  0.00  0.00    +0.000 A 
ATOM     26  N   UNL     1      48.110  11.516  17.315  0.00  0.00    +0.000 NA
ATOM     27  C   UNL     1      47.670  11.095  18.456  0.00  0.00    +0.000 A 
ATOM     28  N   UNL     1      47.642   9.779  18.870  0.00  0.00    +0.000 N 
ATOM     29  C   UNL     1      47.152   9.419  20.182  0.00  0.00    +0.000 C 
ATOM     30  C   UNL     1      48.087   8.754  18.045  0.00  0.00    +0.000 A 
ATOM     31  O   UNL     1      48.079   7.576  18.391  0.00  0.00    +0.000 OA
ATOM     32  C   UNL     1      48.540   9.179  16.731  0.00  0.00    +0.000 A 
ENDBRANCH  19  22
ENDBRANCH   2  18
TORSDOF 6
ENDMDL
MODEL 3
REMARK VINA RESULT:    -7.772      1.804      2.121
REMARK INTER + INTRA:         -11.374
REMARK INTER:                  -9.933
REMARK INTRA:                  -1.441
REMARK UNBOUND:                -1.104
REMARK  Name = 
REMARK  8 active torsions:
REMARK  status: ('A' for Active; 'I' for Inactive)
REMARK    1  A    between atoms: C_1  and  C_2
REMARK    2  A    between atoms: C_2  and  N_3
REMARK    3  A    between atoms: C_2  and  C_17
REMARK    4  A    between atoms: C_4  and  C_6
REMARK    5  A    between atoms: N_12  and  C_13
REMARK    6  A    between atoms: C_20  and  C_21
REMARK    7  A    between atoms: C_21  and  O_22
REMARK    8  A    between atoms: C_21  and  C_23
REMARK                            x       y       z     vdW  Elec       q    Type
REMARK                         _______ _______ _______ _____ _____    ______ ____
ROOT
ATOM      1  C   UNL     1      48.156   8.859  12.344  0.00  0.00    +0.000 C 
ATOM      2  C   UNL     1      47.472   8.052  13.453  0.00  0.00    +0.000 C 
ENDROOT
BRANCH   2   3
ATOM      3  C   UNL     1      46.498   7.062  12.838  0.00  0.00    +0.000 A 
ATOM      4  C   UNL     1      45.519   7.510  11.942  0.00  0.00    +0.000 A 
ATOM      5  C   UNL     1      44.753   6.599  11.213  0.00  0.00    +0.000 A 
ATOM      6  C   UNL     1      44.940   5.218  11.374  0.00  0.00    +0.000 A 
ATOM      7  C   UNL     1      45.834   4.774  12.360  0.00  0.00    +0.000 A 
ATOM      8  C   UNL     1      46.607   5.683  13.080  0.00  0.00    +0.000 A 
BRANCH   6   9
ATOM      9  C   UNL     1      44.191   4.233  10.498  0.00  0.00    +0.000 C 
BRANCH   9  10
ATOM     10  C   UNL     1      45.073   3.606   9.433  0.00  0.00    +0.000 A 
ATOM     11  C   UNL     1      45.713   4.404   8.487  0.00  0.00    +0.000 A 
ATOM     12  C   UNL     1      46.465   3.789   7.494  0.00  0.00    +0.000 A 
ATOM     13  C   UNL     1      46.559   2.402   7.472  0.00  0.00    +0.000 A 
ATOM     14  C   UNL     1      45.913   1.683   8.463  0.00  0.00    +0.000 A 
ATOM     15  N   UNL     1      45.184   2.247   9.448  0.00  0.00    +0.000 NA
ENDBRANCH   9  10
BRANCH   9  16
ATOM     16  O   UNL     1      43.082   4.902   9.876  0.00  0.00    +0.000 OA
ATOM     17  H   UNL     1      42.664   4.210   9.324  0.00  0.00    +0.000 HD
ENDBRANCH   9  16
ENDBRANCH   6   9
ENDBRANCH   2   3
BRANCH   2  18
ATOM     18  N   UNL     1      48.444   7.356  14.264  0.00  0.00    +0.000 N 
ATOM     19  C   UNL     1      49.043   7.906  15.368  0.00  0.00    +0.000 C 
ATOM     20  O   UNL     1      48.686   8.970  15.862  0.00  0.00    +0.000 OA
ATOM     21  H   UNL     1      48.918   6.598  13.795  0.00  0.00    +0.000 HD
BRANCH  19  22
ATOM     22  C   UNL     1      50.103   7.088  15.970  0.00  0.00    +0.000 A 
ATOM     23  C   UNL     1      51.422   7.517  15.954  0.00  0.00    +0.000 A 
ATOM     24  S   UNL     1      52.477   6.490  16.821  0.00  0.00    +0.000 S 
ATOM     25  C   UNL     1      51.213   5.413  17.196  0.00  0.00    +0.000 A 
ATOM     26  N   UNL     1      51.428   4.311  17.961  0.00  0.00    +0.000 NA
ATOM     27  C   UNL     1      50.381   3.574  18.147  0.00  0.00    +0.000 A 
ATOM     28  N   UNL     1      49.128   3.813  17.622  0.00  0.00    +0.000 N 
ATOM     29  C   UNL     1      48.028   2.907  17.872  0.00  0.00    +0.000 C 
ATOM     30  C   UNL     1      48.877   4.928  16.831  0.00  0.00    +0.000 A 
ATOM     31  O   UNL     1      47.773   5.161  16.347  0.00  0.00    +0.000 OA
ATOM     32  C   UNL     1      50.015   5.812  16.642  0.00  0.00    +0.000 A 
ENDBRANCH  19  22
ENDBRANCH   2  18
TORSDOF 6
ENDMDL
MODEL 4
REMARK VINA RESULT:    -7.583      2.098      4.088
REMARK INTER + INTRA:         -11.125
REMARK INTER:                  -9.967
REMARK INTRA:                  -1.158
REMARK UNBOUND:                -1.104
REMARK  Name = 
REMARK  8 active torsions:
REMARK  status: ('A' for Active; 'I' for Inactive)
REMARK    1  A    between atoms: C_1  and  C_2
REMARK    2  A    between atoms: C_2  and  N_3
REMARK    3  A    between atoms: C_2  and  C_17
REMARK    4  A    between atoms: C_4  and  C_6
REMARK    5  A    between atoms: N_12  and  C_13
REMARK    6  A    between atoms: C_20  and  C_21
REMARK    7  A    between atoms: C_21  and  O_22
REMARK    8  A    between atoms: C_21  and  C_23
REMARK                            x       y       z     vdW  Elec       q    Type
REMARK                         _______ _______ _______ _____ _____    ______ ____
ROOT
ATOM      1  C   UNL     1      47.067   4.249  16.321  0.00  0.00    +0.000 C 
ATOM      2  C   UNL     1      47.589   4.781  14.982  0.00  0.00    +0.000 C 
ENDROOT
BRANCH   2   3
ATOM      3  C   UNL     1      46.548   4.553  13.900  0.00  0.00    +0.000 A 
ATOM      4  C   UNL     1      45.881   5.644  13.331  0.00  0.00    +0.000 A 
ATOM      5  C   UNL     1      45.077   5.476  12.202  0.00  0.00    +0.000 A 
ATOM      6  C   UNL     1      44.914   4.208  11.624  0.00  0.00    +0.000 A 
ATOM      7  C   UNL     1      45.484   3.101  12.268  0.00  0.00    +0.000 A 
ATOM      8  C   UNL     1      46.295   3.269  13.389  0.00  0.00    +0.000 A 
BRANCH   6   9
ATOM      9  C   UNL     1      44.138   4.046  10.332  0.00  0.00    +0.000 C 
BRANCH   9  10
ATOM     10  C   UNL     1      44.993   3.511   9.197  0.00  0.00    +0.000 A 
ATOM     11  C   UNL     1      45.170   2.139   9.032  0.00  0.00    +0.000 A 
ATOM     12  C   UNL     1      46.006   1.691   8.018  0.00  0.00    +0.000 A 
ATOM     13  C   UNL     1      46.639   2.619   7.198  0.00  0.00    +0.000 A 
ATOM     14  C   UNL     1      46.391   3.963   7.412  0.00  0.00    +0.000 A 
ATOM     15  N   UNL     1      45.577   4.434   8.379  0.00  0.00    +0.000 NA
ENDBRANCH   9  10
BRANCH   9  16
ATOM     16  O   UNL     1      43.574   5.314   9.956  0.00  0.00    +0.000 OA
ATOM     17  H   UNL     1      42.608   5.167   9.991  0.00  0.00    +0.000 HD
ENDBRANCH   9  16
ENDBRANCH   6   9
ENDBRANCH   2   3
BRANCH   2  18
ATOM     18  N   UNL     1      47.915   6.185  15.072  0.00  0.00    +0.000 N 
ATOM     19  C   UNL     1      48.978   6.673  15.787  0.00  0.00    +0.000 C 
ATOM     20  O   UNL     1      49.843   5.953  16.274  0.00  0.00    +0.000 OA
ATOM     21  H   UNL     1      47.143   6.809  14.885  0.00  0.00    +0.000 HD
BRANCH  19  22
ATOM     22  C   UNL     1      49.053   8.138  15.866  0.00  0.00    +0.000 A 
ATOM     23  C   UNL     1      49.075   8.779  17.096  0.00  0.00    +0.000 A 
ATOM     24  S   UNL     1      49.299  10.468  16.973  0.00  0.00    +0.000 S 
ATOM     25  C   UNL     1      49.319  10.400  15.271  0.00  0.00    +0.000 A 
ATOM     26  N   UNL     1      49.512  11.516  14.523  0.00  0.00    +0.000 NA
ATOM     27  C   UNL     1      49.483  11.317  13.245  0.00  0.00    +0.000 A 
ATOM     28  N   UNL     1      49.252  10.105  12.627  0.00  0.00    +0.000 N 
ATOM     29  C   UNL     1      49.214   9.998  11.185  0.00  0.00    +0.000 C 
ATOM     30  C   UNL     1      49.044   8.946  13.365  0.00  0.00    +0.000 A 
ATOM     31  O   UNL     1      48.831   7.857  12.840  0.00  0.00    +0.000 OA
ATOM     32  C   UNL     1      49.124   9.116  14.805  0.00  0.00    +0.000 A 
ENDBRANCH  19  22
ENDBRANCH   2  18
TORSDOF 6
ENDMDL
MODEL 5
REMARK VINA RESULT:    -7.422      2.124      2.870
REMARK INTER + INTRA:         -10.913
REMARK INTER:                 -10.929
REMARK INTRA:                   0.016
REMARK UNBOUND:                -1.104
REMARK  Name = 
REMARK  8 active torsions:
REMARK  status: ('A' for Active; 'I' for Inactive)
REMARK    1  A    between atoms: C_1  and  C_2
REMARK    2  A    between atoms: C_2  and  N_3
REMARK    3  A    between atoms: C_2  and  C_17
REMARK    4  A    between atoms: C_4  and  C_6
REMARK    5  A    between atoms: N_12  and  C_13
REMARK    6  A    between atoms: C_20  and  C_21
REMARK    7  A    between atoms: C_21  and  O_22
REMARK    8  A    between atoms: C_21  and  C_23
REMARK                            x       y       z     vdW  Elec       q    Type
REMARK                         _______ _______ _______ _____ _____    ______ ____
ROOT
ATOM      1  C   UNL     1      45.399   8.469  11.972  0.00  0.00    +0.000 C 
ATOM      2  C   UNL     1      45.441   7.210  12.845  0.00  0.00    +0.000 C 
ENDROOT
BRANCH   2   3
ATOM      3  C   UNL     1      45.500   5.976  11.961  0.00  0.00    +0.000 A 
ATOM      4  C   UNL     1      45.403   4.702  12.533  0.00  0.00    +0.000 A 
ATOM      5  C   UNL     1      45.248   3.572  11.728  0.00  0.00    +0.000 A 
ATOM      6  C   UNL     1      45.199   3.691  10.331  0.00  0.00    +0.000 A 
ATOM      7  C   UNL     1      45.419   4.952   9.759  0.00  0.00    +0.000 A 
ATOM      8  C   UNL     1      45.563   6.083  10.562  0.00  0.00    +0.000 A 
BRANCH   6   9
ATOM      9  C   UNL     1      44.914   2.480   9.465  0.00  0.00    +0.000 C 
BRANCH   9  10
ATOM     10  C   UNL     1      45.886   2.345   8.306  0.00  0.00    +0.000 A 
ATOM     11  C   UNL     1      46.085   3.406   7.425  0.00  0.00    +0.000 A 
ATOM     12  C   UNL     1      46.938   3.225   6.344  0.00  0.00    +0.000 A 
ATOM     13  C   UNL     1      47.567   1.997   6.173  0.00  0.00    +0.000 A 
ATOM     14  C   UNL     1      47.335   1.002   7.106  0.00  0.00    +0.000 A 
ATOM     15  N   UNL     1      46.522   1.147   8.174  0.00  0.00    +0.000 NA
ENDBRANCH   9  10
BRANCH   9  16
ATOM     16  O   UNL     1      43.570   2.563   8.962  0.00  0.00    +0.000 OA
ATOM     17  H   UNL     1      43.549   3.411   8.475  0.00  0.00    +0.000 HD
ENDBRANCH   9  16
ENDBRANCH   6   9
ENDBRANCH   2   3
BRANCH   2  18
ATOM     18  N   UNL     1      46.574   7.236  13.740  0.00  0.00    +0.000 N 
ATOM     19  C   UNL     1      47.876   7.129  13.320  0.00  0.00    +0.000 C 
ATOM     20  O   UNL     1      48.202   7.171  12.139  0.00  0.00    +0.000 OA
ATOM     21  H   UNL     1      46.362   6.986  14.695  0.00  0.00    +0.000 HD
BRANCH  19  22
ATOM     22  C   UNL     1      48.869   7.036  14.398  0.00  0.00    +0.000 A 
ATOM     23  C   UNL     1      49.971   7.879  14.416  0.00  0.00    +0.000 A 
ATOM     24  S   UNL     1      50.931   7.703  15.818  0.00  0.00    +0.000 S 
ATOM     25  C   UNL     1      49.935   6.458  16.415  0.00  0.00    +0.000 A 
ATOM     26  N   UNL     1      50.178   5.874  17.617  0.00  0.00    +0.000 NA
ATOM     27  C   UNL     1      49.352   4.930  17.932  0.00  0.00    +0.000 A 
ATOM     28  N   UNL     1      48.306   4.485  17.150  0.00  0.00    +0.000 N 
ATOM     29  C   UNL     1      47.455   3.400  17.588  0.00  0.00    +0.000 C 
ATOM     30  C   UNL     1      48.035   5.057  15.913  0.00  0.00    +0.000 A 
ATOM     31  O   UNL     1      47.115   4.676  15.195  0.00  0.00    +0.000 OA
ATOM     32  C   UNL     1      48.908   6.159  15.544  0.00  0.00    +0.000 A 
ENDBRANCH  19  22
ENDBRANCH   2  18
TORSDOF 6
ENDMDL
MODEL 6
REMARK VINA RESULT:    -6.909      1.835      2.705
REMARK INTER + INTRA:         -10.234
REMARK INTER:                 -10.003
REMARK INTRA:                  -0.232
REMARK UNBOUND:                -1.104
REMARK  Name = 
REMARK  8 active torsions:
REMARK  status: ('A' for Active; 'I' for Inactive)
REMARK    1  A    between atoms: C_1  and  C_2
REMARK    2  A    between atoms: C_2  and  N_3
REMARK    3  A    between atoms: C_2  and  C_17
REMARK    4  A    between atoms: C_4  and  C_6
REMARK    5  A    between atoms: N_12  and  C_13
REMARK    6  A    between atoms: C_20  and  C_21
REMARK    7  A    between atoms: C_21  and  O_22
REMARK    8  A    between atoms: C_21  and  C_23
REMARK                            x       y       z     vdW  Elec       q    Type
REMARK                         _______ _______ _______ _____ _____    ______ ____
ROOT
ATOM      1  C   UNL     1      47.545   8.854  12.431  0.00  0.00    +0.000 C 
ATOM      2  C   UNL     1      46.582   7.934  13.189  0.00  0.00    +0.000 C 
ENDROOT
BRANCH   2   3
ATOM      3  C   UNL     1      46.160   6.784  12.290  0.00  0.00    +0.000 A 
ATOM      4  C   UNL     1      45.248   5.831  12.758  0.00  0.00    +0.000 A 
ATOM      5  C   UNL     1      44.693   4.891  11.887  0.00  0.00    +0.000 A 
ATOM      6  C   UNL     1      45.048   4.877  10.530  0.00  0.00    +0.000 A 
ATOM      7  C   UNL     1      46.051   5.754  10.093  0.00  0.00    +0.000 A 
ATOM      8  C   UNL     1      46.598   6.699  10.958  0.00  0.00    +0.000 A 
BRANCH   6   9
ATOM      9  C   UNL     1      44.358   3.934   9.564  0.00  0.00    +0.000 C 
BRANCH   9  10
ATOM     10  C   UNL     1      45.328   3.259   8.610  0.00  0.00    +0.000 A 
ATOM     11  C   UNL     1      45.639   1.909   8.758  0.00  0.00    +0.000 A 
ATOM     12  C   UNL     1      46.574   1.343   7.902  0.00  0.00    +0.000 A 
ATOM     13  C   UNL     1      47.169   2.133   6.926  0.00  0.00    +0.000 A 
ATOM     14  C   UNL     1      46.787   3.460   6.829  0.00  0.00    +0.000 A 
ATOM     15  N   UNL     1      45.875   4.040   7.636  0.00  0.00    +0.000 NA
ENDBRANCH   9  10
BRANCH   9  16
ATOM     16  O   UNL     1      43.371   4.663   8.815  0.00  0.00    +0.000 OA
ATOM     17  H   UNL     1      43.742   5.566   8.744  0.00  0.00    +0.000 HD
ENDBRANCH   9  16
ENDBRANCH   6   9
ENDBRANCH   2   3
BRANCH   2  18
ATOM     18  N   UNL     1      47.190   7.426  14.396  0.00  0.00    +0.000 N 
ATOM     19  C   UNL     1      48.172   6.468  14.406  0.00  0.00    +0.000 C 
ATOM     20  O   UNL     1      48.738   6.081  13.389  0.00  0.00    +0.000 OA
ATOM     21  H   UNL     1      46.632   7.540  15.229  0.00  0.00    +0.000 HD
BRANCH  19  22
ATOM     22  C   UNL     1      48.557   5.988  15.739  0.00  0.00    +0.000 A 
ATOM     23  C   UNL     1      48.169   4.730  16.176  0.00  0.00    +0.000 A 
ATOM     24  S   UNL     1      48.828   4.310  17.694  0.00  0.00    +0.000 S 
ATOM     25  C   UNL     1      49.606   5.818  17.839  0.00  0.00    +0.000 A 
ATOM     26  N   UNL     1      50.386   6.110  18.912  0.00  0.00    +0.000 NA
ATOM     27  C   UNL     1      50.895   7.298  18.897  0.00  0.00    +0.000 A 
ATOM     28  N   UNL     1      50.686   8.249  17.919  0.00  0.00    +0.000 N 
ATOM     29  C   UNL     1      51.286   9.562  18.014  0.00  0.00    +0.000 C 
ATOM     30  C   UNL     1      49.888   7.983  16.813  0.00  0.00    +0.000 A 
ATOM     31  O   UNL     1      49.681   8.813  15.933  0.00  0.00    +0.000 OA
ATOM     32  C   UNL     1      49.340   6.639  16.764  0.00  0.00    +0.000 A 
ENDBRANCH  19  22
ENDBRANCH   2  18
TORSDOF 6
ENDMDL
MODEL 7
REMARK VINA RESULT:    -6.753      3.661      9.082
REMARK INTER + INTRA:         -10.028
REMARK INTER:                  -9.844
REMARK INTRA:                  -0.185
REMARK UNBOUND:                -1.104
REMARK  Name = 
REMARK  8 active torsions:
REMARK  status: ('A' for Active; 'I' for Inactive)
REMARK    1  A    between atoms: C_1  and  C_2
REMARK    2  A    between atoms: C_2  and  N_3
REMARK    3  A    between atoms: C_2  and  C_17
REMARK    4  A    between atoms: C_4  and  C_6
REMARK    5  A    between atoms: N_12  and  C_13
REMARK    6  A    between atoms: C_20  and  C_21
REMARK    7  A    between atoms: C_21  and  O_22
REMARK    8  A    between atoms: C_21  and  C_23
REMARK                            x       y       z     vdW  Elec       q    Type
REMARK                         _______ _______ _______ _____ _____    ______ ____
ROOT
ATOM      1  C   UNL     1      46.999   2.800  17.466  0.00  0.00    +0.000 C 
ATOM      2  C   UNL     1      47.716   4.154  17.461  0.00  0.00    +0.000 C 
ENDROOT
BRANCH   2   3
ATOM      3  C   UNL     1      49.214   3.940  17.595  0.00  0.00    +0.000 A 
ATOM      4  C   UNL     1      50.027   4.974  18.075  0.00  0.00    +0.000 A 
ATOM      5  C   UNL     1      51.364   4.735  18.398  0.00  0.00    +0.000 A 
ATOM      6  C   UNL     1      51.920   3.457  18.237  0.00  0.00    +0.000 A 
ATOM      7  C   UNL     1      51.138   2.457  17.641  0.00  0.00    +0.000 A 
ATOM      8  C   UNL     1      49.800   2.692  17.328  0.00  0.00    +0.000 A 
BRANCH   6   9
ATOM      9  C   UNL     1      53.336   3.171  18.697  0.00  0.00    +0.000 C 
BRANCH   9  10
ATOM     10  C   UNL     1      53.917   1.919  18.064  0.00  0.00    +0.000 A 
ATOM     11  C   UNL     1      54.719   2.009  16.928  0.00  0.00    +0.000 A 
ATOM     12  C   UNL     1      55.183   0.837  16.345  0.00  0.00    +0.000 A 
ATOM     13  C   UNL     1      54.839  -0.386  16.907  0.00  0.00    +0.000 A 
ATOM     14  C   UNL     1      54.058  -0.389  18.050  0.00  0.00    +0.000 A 
ATOM     15  N   UNL     1      53.599   0.729  18.650  0.00  0.00    +0.000 NA
ENDBRANCH   9  10
BRANCH   9  16
ATOM     16  O   UNL     1      53.350   3.040  20.128  0.00  0.00    +0.000 OA
ATOM     17  H   UNL     1      54.217   2.630  20.323  0.00  0.00    +0.000 HD
ENDBRANCH   9  16
ENDBRANCH   6   9
ENDBRANCH   2   3
BRANCH   2  18
ATOM     18  N   UNL     1      47.424   4.893  16.255  0.00  0.00    +0.000 N 
ATOM     19  C   UNL     1      47.440   4.336  15.002  0.00  0.00    +0.000 C 
ATOM     20  O   UNL     1      47.538   3.129  14.808  0.00  0.00    +0.000 OA
ATOM     21  H   UNL     1      47.551   5.891  16.332  0.00  0.00    +0.000 HD
BRANCH  19  22
ATOM     22  C   UNL     1      47.252   5.287  13.898  0.00  0.00    +0.000 A 
ATOM     23  C   UNL     1      48.144   6.333  13.707  0.00  0.00    +0.000 A 
ATOM     24  S   UNL     1      47.827   7.241  12.297  0.00  0.00    +0.000 S 
ATOM     25  C   UNL     1      46.456   6.300  11.928  0.00  0.00    +0.000 A 
ATOM     26  N   UNL     1      45.724   6.528  10.807  0.00  0.00    +0.000 NA
ATOM     27  C   UNL     1      44.701   5.749  10.668  0.00  0.00    +0.000 A 
ATOM     28  N   UNL     1      44.312   4.768  11.556  0.00  0.00    +0.000 N 
ATOM     29  C   UNL     1      43.131   3.968  11.315  0.00  0.00    +0.000 C 
ATOM     30  C   UNL     1      45.036   4.514  12.715  0.00  0.00    +0.000 A 
ATOM     31  O   UNL     1      44.709   3.651  13.524  0.00  0.00    +0.000 OA
ATOM     32  C   UNL     1      46.226   5.331  12.883  0.00  0.00    +0.000 A 
ENDBRANCH  19  22
ENDBRANCH   2  18
TORSDOF 6
ENDMDL
MODEL 8
REMARK VINA RESULT:    -6.662      2.572      3.049
REMARK INTER + INTRA:          -9.908
REMARK INTER:                  -8.606
REMARK INTRA:                  -1.301
REMARK UNBOUND:                -1.104
REMARK  Name = 
REMARK  8 active torsions:
REMARK  status: ('A' for Active; 'I' for Inactive)
REMARK    1  A    between atoms: C_1  and  C_2
REMARK    2  A    between atoms: C_2  and  N_3
REMARK    3  A    between atoms: C_2  and  C_17
REMARK    4  A    between atoms: C_4  and  C_6
REMARK    5  A    between atoms: N_12  and  C_13
REMARK    6  A    between atoms: C_20  and  C_21
REMARK    7  A    between atoms: C_21  and  O_22
REMARK    8  A    between atoms: C_21  and  C_23
REMARK                            x       y       z     vdW  Elec       q    Type
REMARK                         _______ _______ _______ _____ _____    ______ ____
ROOT
ATOM      1  C   UNL     1      50.075   8.419  11.449  0.00  0.00    +0.000 C 
ATOM      2  C   UNL     1      49.526   8.331  12.878  0.00  0.00    +0.000 C 
ENDROOT
BRANCH   2   3
ATOM      3  C   UNL     1      48.191   7.606  12.869  0.00  0.00    +0.000 A 
ATOM      4  C   UNL     1      47.041   8.267  12.419  0.00  0.00    +0.000 A 
ATOM      5  C   UNL     1      45.854   7.562  12.210  0.00  0.00    +0.000 A 
ATOM      6  C   UNL     1      45.788   6.183  12.457  0.00  0.00    +0.000 A 
ATOM      7  C   UNL     1      46.904   5.551  13.023  0.00  0.00    +0.000 A 
ATOM      8  C   UNL     1      48.093   6.250  13.222  0.00  0.00    +0.000 A 
BRANCH   6   9
ATOM      9  C   UNL     1      44.534   5.400  12.119  0.00  0.00    +0.000 C 
BRANCH   9  10
ATOM     10  C   UNL     1      44.687   4.565  10.860  0.00  0.00    +0.000 A 
ATOM     11  C   UNL     1      44.219   3.253  10.822  0.00  0.00    +0.000 A 
ATOM     12  C   UNL     1      44.429   2.503   9.672  0.00  0.00    +0.000 A 
ATOM     13  C   UNL     1      45.095   3.078   8.597  0.00  0.00    +0.000 A 
ATOM     14  C   UNL     1      45.508   4.394   8.706  0.00  0.00    +0.000 A 
ATOM     15  N   UNL     1      45.311   5.157   9.802  0.00  0.00    +0.000 NA
ENDBRANCH   9  10
BRANCH   9  16
ATOM     16  O   UNL     1      43.435   6.312  11.964  0.00  0.00    +0.000 OA
ATOM     17  H   UNL     1      43.203   6.249  11.015  0.00  0.00    +0.000 HD
ENDBRANCH   9  16
ENDBRANCH   6   9
ENDBRANCH   2   3
BRANCH   2  18
ATOM     18  N   UNL     1      50.455   7.652  13.750  0.00  0.00    +0.000 N 
ATOM     19  C   UNL     1      51.059   8.250  14.828  0.00  0.00    +0.000 C 
ATOM     20  O   UNL     1      50.736   9.357  15.244  0.00  0.00    +0.000 OA
ATOM     21  H   UNL     1      50.906   6.847  13.342  0.00  0.00    +0.000 HD
BRANCH  19  22
ATOM     22  C   UNL     1      52.075   7.432  15.502  0.00  0.00    +0.000 A 
ATOM     23  C   UNL     1      53.425   7.694  15.325  0.00  0.00    +0.000 A 
ATOM     24  S   UNL     1      54.436   6.720  16.296  0.00  0.00    +0.000 S 
ATOM     25  C   UNL     1      53.103   5.880  16.942  0.00  0.00    +0.000 A 
ATOM     26  N   UNL     1      53.266   4.912  17.881  0.00  0.00    +0.000 NA
ATOM     27  C   UNL     1      52.168   4.346  18.264  0.00  0.00    +0.000 A 
ATOM     28  N   UNL     1      50.907   4.634  17.785  0.00  0.00    +0.000 N 
ATOM     29  C   UNL     1      49.744   3.921  18.266  0.00  0.00    +0.000 C 
ATOM     30  C   UNL     1      50.707   5.615  16.820  0.00  0.00    +0.000 A 
ATOM     31  O   UNL     1      49.597   5.886  16.372  0.00  0.00    +0.000 OA
ATOM     32  C   UNL     1      51.911   6.313  16.401  0.00  0.00    +0.000 A 
ENDBRANCH  19  22
ENDBRANCH   2  18
TORSDOF 6
ENDMDL
MODEL 9
REMARK VINA RESULT:    -6.570      2.708      4.145
REMARK INTER + INTRA:          -9.786
REMARK INTER:                  -8.973
REMARK INTRA:                  -0.813
REMARK UNBOUND:                -1.104
REMARK  Name = 
REMARK  8 active torsions:
REMARK  status: ('A' for Active; 'I' for Inactive)
REMARK    1  A    between atoms: C_1  and  C_2
REMARK    2  A    between atoms: C_2  and  N_3
REMARK    3  A    between atoms: C_2  and  C_17
REMARK    4  A    between atoms: C_4  and  C_6
REMARK    5  A    between atoms: N_12  and  C_13
REMARK    6  A    between atoms: C_20  and  C_21
REMARK    7  A    between atoms: C_21  and  O_22
REMARK    8  A    between atoms: C_21  and  C_23
REMARK                            x       y       z     vdW  Elec       q    Type
REMARK                         _______ _______ _______ _____ _____    ______ ____
ROOT
ATOM      1  C   UNL     1      46.641   9.064  12.525  0.00  0.00    +0.000 C 
ATOM      2  C   UNL     1      46.694   7.723  13.265  0.00  0.00    +0.000 C 
ENDROOT
BRANCH   2   3
ATOM      3  C   UNL     1      46.309   6.600  12.317  0.00  0.00    +0.000 A 
ATOM      4  C   UNL     1      45.816   5.393  12.828  0.00  0.00    +0.000 A 
ATOM      5  C   UNL     1      45.267   4.433  11.976  0.00  0.00    +0.000 A 
ATOM      6  C   UNL     1      45.210   4.654  10.592  0.00  0.00    +0.000 A 
ATOM      7  C   UNL     1      45.816   5.809  10.074  0.00  0.00    +0.000 A 
ATOM      8  C   UNL     1      46.354   6.773  10.924  0.00  0.00    +0.000 A 
BRANCH   6   9
ATOM      9  C   UNL     1      44.510   3.664   9.682  0.00  0.00    +0.000 C 
BRANCH   9  10
ATOM     10  C   UNL     1      45.415   3.135   8.584  0.00  0.00    +0.000 A 
ATOM     11  C   UNL     1      45.826   1.804   8.588  0.00  0.00    +0.000 A 
ATOM     12  C   UNL     1      46.700   1.372   7.598  0.00  0.00    +0.000 A 
ATOM     13  C   UNL     1      47.137   2.275   6.636  0.00  0.00    +0.000 A 
ATOM     14  C   UNL     1      46.662   3.574   6.688  0.00  0.00    +0.000 A 
ATOM     15  N   UNL     1      45.804   4.025   7.627  0.00  0.00    +0.000 NA
ENDBRANCH   9  10
BRANCH   9  16
ATOM     16  O   UNL     1      43.357   4.293   9.098  0.00  0.00    +0.000 OA
ATOM     17  H   UNL     1      43.720   5.071   8.630  0.00  0.00    +0.000 HD
ENDBRANCH   9  16
ENDBRANCH   6   9
ENDBRANCH   2   3
BRANCH   2  18
ATOM     18  N   UNL     1      48.008   7.483  13.814  0.00  0.00    +0.000 N 
ATOM     19  C   UNL     1      48.491   8.116  14.931  0.00  0.00    +0.000 C 
ATOM     20  O   UNL     1      47.792   8.814  15.658  0.00  0.00    +0.000 OA
ATOM     21  H   UNL     1      48.675   7.104  13.158  0.00  0.00    +0.000 HD
BRANCH  19  22
ATOM     22  C   UNL     1      49.899   7.836  15.242  0.00  0.00    +0.000 A 
ATOM     23  C   UNL     1      50.246   7.172  16.409  0.00  0.00    +0.000 A 
ATOM     24  S   UNL     1      51.914   6.827  16.520  0.00  0.00    +0.000 S 
ATOM     25  C   UNL     1      52.232   7.604  15.038  0.00  0.00    +0.000 A 
ATOM     26  N   UNL     1      53.485   7.645  14.517  0.00  0.00    +0.000 NA
ATOM     27  C   UNL     1      53.580   8.285  13.397  0.00  0.00    +0.000 A 
ATOM     28  N   UNL     1      52.543   8.920  12.746  0.00  0.00    +0.000 N 
ATOM     29  C   UNL     1      52.765   9.633  11.506  0.00  0.00    +0.000 C 
ATOM     30  C   UNL     1      51.251   8.902  13.256  0.00  0.00    +0.000 A 
ATOM     31  O   UNL     1      50.312   9.464  12.699  0.00  0.00    +0.000 OA
ATOM     32  C   UNL     1      51.090   8.146  14.486  0.00  0.00    +0.000 A 
ENDBRANCH  19  22
ENDBRANCH   2  18
TORSDOF 6
ENDMDL
