MODEL 1
REMARK VINA RESULT:    -8.683      0.000      0.000
REMARK INTER + INTRA:         -13.662
REMARK INTER:                 -12.236
REMARK INTRA:                  -1.425
REMARK UNBOUND:                -1.425
REMARK  Name = 
REMARK  8 active torsions:
REMARK  status: ('A' for Active; 'I' for Inactive)
REMARK    1  A    between atoms: C_1  and  C_2
REMARK    2  A    between atoms: C_2  and  N_3
REMARK    3  A    between atoms: C_2  and  C_25
REMARK    4  A    between atoms: N_3  and  C_4
REMARK    5  A    between atoms: C_4  and  C_5
REMARK    6  A    between atoms: C_8  and  C_9
REMARK    7  A    between atoms: C_9  and  N_10
REMARK    8  A    between atoms: C_11  and  C_13
REMARK                            x       y       z     vdW  Elec       q    Type
REMARK                         _______ _______ _______ _____ _____    ______ ____
ROOT
ATOM      1  C   UNL     1      44.630   5.729  10.983  0.00  0.00    +0.000 A 
ATOM      2  C   UNL     1      45.997   5.836  10.691  0.00  0.00    +0.000 A 
ATOM      3  C   UNL     1      46.839   6.623  11.490  0.00  0.00    +0.000 A 
ATOM      4  C   UNL     1      46.330   7.321  12.594  0.00  0.00    +0.000 A 
ATOM      5  C   UNL     1      44.956   7.254  12.855  0.00  0.00    +0.000 A 
ATOM      6  C   UNL     1      44.119   6.462  12.065  0.00  0.00    +0.000 A 
ENDROOT
BRANCH   1   7
ATOM      7  C   UNL     1      43.704   4.881  10.138  0.00  0.00    +0.000 C 
BRANCH   7   8
ATOM      8  N   UNL     1      44.314   4.483   8.866  0.00  0.00    +0.000 NA
ATOM      9  H   UNL     1      43.736   4.836   8.105  0.00  0.00    +0.000 HD
BRANCH   8  11
ATOM     10  C   UNL     1      44.494   2.285  10.050  0.00  0.00    +0.000 C 
ATOM     11  C   UNL     1      44.423   3.022   8.706  0.00  0.00    +0.000 C 
BRANCH  11  12
ATOM     12  C   UNL     1      45.638   2.637   7.860  0.00  0.00    +0.000 A 
ATOM     13  C   UNL     1      46.040   3.473   6.803  0.00  0.00    +0.000 A 
ATOM     14  C   UNL     1      47.116   3.128   5.981  0.00  0.00    +0.000 A 
ATOM     15  C   UNL     1      47.814   1.944   6.205  0.00  0.00    +0.000 A 
ATOM     16  C   UNL     1      47.431   1.102   7.247  0.00  0.00    +0.000 A 
ATOM     17  C   UNL     1      46.346   1.440   8.061  0.00  0.00    +0.000 A 
ENDBRANCH  11  12
ENDBRANCH   8  11
ENDBRANCH   7   8
ENDBRANCH   1   7
BRANCH   4  18
ATOM     18  C   UNL     1      47.225   8.152  13.475  0.00  0.00    +0.000 C 
BRANCH  18  19
ATOM     19  N   UNL     1      47.602   7.433  14.666  0.00  0.00    +0.000 N 
ATOM     20  C   UNL     1      48.863   6.914  14.815  0.00  0.00    +0.000 C 
ATOM     21  O   UNL     1      49.741   7.063  13.972  0.00  0.00    +0.000 OA
ATOM     22  H   UNL     1      46.846   7.080  15.241  0.00  0.00    +0.000 HD
BRANCH  20  23
ATOM     23  C   UNL     1      49.126   6.222  16.086  0.00  0.00    +0.000 A 
ATOM     24  C   UNL     1      50.148   6.665  16.914  0.00  0.00    +0.000 A 
ATOM     25  S   UNL     1      50.284   5.782  18.366  0.00  0.00    +0.000 S 
ATOM     26  C   UNL     1      49.013   4.741  17.917  0.00  0.00    +0.000 A 
ATOM     27  N   UNL     1      48.630   3.717  18.721  0.00  0.00    +0.000 NA
ATOM     28  C   UNL     1      47.672   2.993  18.244  0.00  0.00    +0.000 A 
ATOM     29  N   UNL     1      47.060   3.206  17.036  0.00  0.00    +0.000 N 
ATOM     30  C   UNL     1      47.393   4.245  16.204  0.00  0.00    +0.000 A 
ATOM     31  O   UNL     1      46.795   4.436  15.152  0.00  0.00    +0.000 OA
ATOM     32  C   UNL     1      48.478   5.082  16.687  0.00  0.00    +0.000 A 
ATOM     33  H   UNL     1      46.306   2.611  16.725  0.00  0.00    +0.000 HD
ENDBRANCH  20  23
ENDBRANCH  18  19
ENDBRANCH   4  18
TORSDOF 7
ENDMDL
MODEL 2
REMARK VINA RESULT:    -8.041      2.336      3.068
REMARK INTER + INTRA:         -12.757
REMARK INTER:                 -11.558
REMARK INTRA:                  -1.199
REMARK UNBOUND:                -1.425
REMARK  Name = 
REMARK  8 active torsions:
REMARK  status: ('A' for Active; 'I' for Inactive)
REMARK    1  A    between atoms: C_1  and  C_2
REMARK    2  A    between atoms: C_2  and  N_3
REMARK    3  A    between atoms: C_2  and  C_25
REMARK    4  A    between atoms: N_3  and  C_4
REMARK    5  A    between atoms: C_4  and  C_5
REMARK    6  A    between atoms: C_8  and  C_9
REMARK    7  A    between atoms: C_9  and  N_10
REMARK    8  A    between atoms: C_11  and  C_13
REMARK                            x       y       z     vdW  Elec       q    Type
REMARK                         _______ _______ _______ _____ _____    ______ ____
ROOT
ATOM      1  C   UNL     1      45.016   5.483  11.581  0.00  0.00    +0.000 A 
ATOM      2  C   UNL     1      45.199   5.009  12.887  0.00  0.00    +0.000 A 
ATOM      3  C   UNL     1      46.310   5.407  13.644  0.00  0.00    +0.000 A 
ATOM      4  C   UNL     1      47.261   6.287  13.108  0.00  0.00    +0.000 A 
ATOM      5  C   UNL     1      47.105   6.721  11.786  0.00  0.00    +0.000 A 
ATOM      6  C   UNL     1      45.992   6.331  11.036  0.00  0.00    +0.000 A 
ENDROOT
BRANCH   1   7
ATOM      7  C   UNL     1      43.821   5.070  10.747  0.00  0.00    +0.000 C 
BRANCH   7   8
ATOM      8  N   UNL     1      44.197   4.684   9.384  0.00  0.00    +0.000 NA
ATOM      9  H   UNL     1      43.513   5.073   8.738  0.00  0.00    +0.000 HD
BRANCH   8  11
ATOM     10  C   UNL     1      44.225   2.445  10.504  0.00  0.00    +0.000 C 
ATOM     11  C   UNL     1      44.226   3.224   9.182  0.00  0.00    +0.000 C 
BRANCH  11  12
ATOM     12  C   UNL     1      45.435   2.794   8.350  0.00  0.00    +0.000 A 
ATOM     13  C   UNL     1      45.838   1.447   8.357  0.00  0.00    +0.000 A 
ATOM     14  C   UNL     1      46.966   1.028   7.646  0.00  0.00    +0.000 A 
ATOM     15  C   UNL     1      47.708   1.949   6.910  0.00  0.00    +0.000 A 
ATOM     16  C   UNL     1      47.326   3.288   6.891  0.00  0.00    +0.000 A 
ATOM     17  C   UNL     1      46.205   3.709   7.613  0.00  0.00    +0.000 A 
ENDBRANCH  11  12
ENDBRANCH   8  11
ENDBRANCH   7   8
ENDBRANCH   1   7
BRANCH   4  18
ATOM     18  C   UNL     1      48.447   6.743  13.915  0.00  0.00    +0.000 C 
BRANCH  18  19
ATOM     19  N   UNL     1      48.138   6.785  15.323  0.00  0.00    +0.000 N 
ATOM     20  C   UNL     1      49.100   6.542  16.271  0.00  0.00    +0.000 C 
ATOM     21  O   UNL     1      50.270   6.316  15.980  0.00  0.00    +0.000 OA
ATOM     22  H   UNL     1      47.160   6.711  15.574  0.00  0.00    +0.000 HD
BRANCH  20  23
ATOM     23  C   UNL     1      48.660   6.637  17.671  0.00  0.00    +0.000 A 
ATOM     24  C   UNL     1      48.707   5.515  18.487  0.00  0.00    +0.000 A 
ATOM     25  S   UNL     1      48.207   5.814  20.089  0.00  0.00    +0.000 S 
ATOM     26  C   UNL     1      47.859   7.444  19.737  0.00  0.00    +0.000 A 
ATOM     27  N   UNL     1      47.357   8.274  20.686  0.00  0.00    +0.000 NA
ATOM     28  C   UNL     1      47.116   9.473  20.273  0.00  0.00    +0.000 A 
ATOM     29  N   UNL     1      47.339   9.918  18.996  0.00  0.00    +0.000 N 
ATOM     30  C   UNL     1      47.872   9.125  18.011  0.00  0.00    +0.000 A 
ATOM     31  O   UNL     1      48.102   9.567  16.892  0.00  0.00    +0.000 OA
ATOM     32  C   UNL     1      48.146   7.758  18.420  0.00  0.00    +0.000 A 
ATOM     33  H   UNL     1      47.141  10.875  18.738  0.00  0.00    +0.000 HD
ENDBRANCH  20  23
ENDBRANCH  18  19
ENDBRANCH   4  18
TORSDOF 7
ENDMDL
MODEL 3
REMARK VINA RESULT:    -7.300      2.994      8.549
REMARK INTER + INTRA:         -11.713
REMARK INTER:                  -9.859
REMARK INTRA:                  -1.854
REMARK UNBOUND:                -1.425
REMARK  Name = 
REMARK  8 active torsions:
REMARK  status: ('A' for Active; 'I' for Inactive)
REMARK    1  A    between atoms: C_1  and  C_2
REMARK    2  A    between atoms: C_2  and  N_3
REMARK    3  A    between atoms: C_2  and  C_25
REMARK    4  A    between atoms: N_3  and  C_4
REMARK    5  A    between atoms: C_4  and  C_5
REMARK    6  A    between atoms: C_8  and  C_9
REMARK    7  A    between atoms: C_9  and  N_10
REMARK    8  A    between atoms: C_11  and  C_13
REMARK                            x       y       z     vdW  Elec       q    Type
REMARK                         _______ _______ _______ _____ _____    ______ ____
ROOT
ATOM      1  C   UNL     1      48.824   7.832  16.261  0.00  0.00    +0.000 A 
ATOM      2  C   UNL     1      48.331   9.003  15.668  0.00  0.00    +0.000 A 
ATOM      3  C   UNL     1      47.846   8.988  14.352  0.00  0.00    +0.000 A 
ATOM      4  C   UNL     1      47.847   7.804  13.603  0.00  0.00    +0.000 A 
ATOM      5  C   UNL     1      48.388   6.647  14.177  0.00  0.00    +0.000 A 
ATOM      6  C   UNL     1      48.861   6.659  15.492  0.00  0.00    +0.000 A 
ENDROOT
BRANCH   1   7
ATOM      7  C   UNL     1      49.347   7.823  17.681  0.00  0.00    +0.000 C 
BRANCH   7   8
ATOM      8  N   UNL     1      48.354   7.331  18.640  0.00  0.00    +0.000 NA
ATOM      9  H   UNL     1      48.189   8.056  19.336  0.00  0.00    +0.000 HD
BRANCH   8  11
ATOM     10  C   UNL     1      50.242   6.195  19.827  0.00  0.00    +0.000 C 
ATOM     11  C   UNL     1      48.786   6.114  19.352  0.00  0.00    +0.000 C 
BRANCH  11  12
ATOM     12  C   UNL     1      48.610   4.864  18.489  0.00  0.00    +0.000 A 
ATOM     13  C   UNL     1      49.735   4.090  18.153  0.00  0.00    +0.000 A 
ATOM     14  C   UNL     1      49.618   2.969  17.327  0.00  0.00    +0.000 A 
ATOM     15  C   UNL     1      48.372   2.597  16.828  0.00  0.00    +0.000 A 
ATOM     16  C   UNL     1      47.245   3.351  17.149  0.00  0.00    +0.000 A 
ATOM     17  C   UNL     1      47.365   4.481  17.964  0.00  0.00    +0.000 A 
ENDBRANCH  11  12
ENDBRANCH   8  11
ENDBRANCH   7   8
ENDBRANCH   1   7
BRANCH   4  18
ATOM     18  C   UNL     1      47.310   7.767  12.197  0.00  0.00    +0.000 C 
BRANCH  18  19
ATOM     19  N   UNL     1      46.666   6.508  11.916  0.00  0.00    +0.000 N 
ATOM     20  C   UNL     1      45.311   6.430  11.714  0.00  0.00    +0.000 C 
ATOM     21  O   UNL     1      44.586   7.419  11.724  0.00  0.00    +0.000 OA
ATOM     22  H   UNL     1      47.184   5.671  12.154  0.00  0.00    +0.000 HD
BRANCH  20  23
ATOM     23  C   UNL     1      44.783   5.091  11.414  0.00  0.00    +0.000 A 
ATOM     24  C   UNL     1      44.028   4.418  12.364  0.00  0.00    +0.000 A 
ATOM     25  S   UNL     1      43.455   2.902  11.835  0.00  0.00    +0.000 S 
ATOM     26  C   UNL     1      44.240   3.067  10.332  0.00  0.00    +0.000 A 
ATOM     27  N   UNL     1      44.177   2.085   9.397  0.00  0.00    +0.000 NA
ATOM     28  C   UNL     1      44.840   2.334   8.317  0.00  0.00    +0.000 A 
ATOM     29  N   UNL     1      45.556   3.480   8.086  0.00  0.00    +0.000 N 
ATOM     30  C   UNL     1      45.624   4.511   8.988  0.00  0.00    +0.000 A 
ATOM     31  O   UNL     1      46.234   5.542   8.732  0.00  0.00    +0.000 OA
ATOM     32  C   UNL     1      44.908   4.275  10.230  0.00  0.00    +0.000 A 
ATOM     33  H   UNL     1      46.043   3.619   7.213  0.00  0.00    +0.000 HD
ENDBRANCH  20  23
ENDBRANCH  18  19
ENDBRANCH   4  18
TORSDOF 7
ENDMDL
MODEL 4
REMARK VINA RESULT:    -7.263      3.374      8.119
REMARK INTER + INTRA:         -11.661
REMARK INTER:                  -9.878
REMARK INTRA:                  -1.783
REMARK UNBOUND:                -1.425
REMARK  Name = 
REMARK  8 active torsions:
REMARK  status: ('A' for Active; 'I' for Inactive)
REMARK    1  A    between atoms: C_1  and  C_2
REMARK    2  A    between atoms: C_2  and  N_3
REMARK    3  A    between atoms: C_2  and  C_25
REMARK    4  A    between atoms: N_3  and  C_4
REMARK    5  A    between atoms: C_4  and  C_5
REMARK    6  A    between atoms: C_8  and  C_9
REMARK    7  A    between atoms: C_9  and  N_10
REMARK    8  A    between atoms: C_11  and  C_13
REMARK                            x       y       z     vdW  Elec       q    Type
REMARK                         _______ _______ _______ _____ _____    ______ ____
ROOT
ATOM      1  C   UNL     1      48.650   7.848  16.324  0.00  0.00    +0.000 A 
ATOM      2  C   UNL     1      48.848   6.712  15.527  0.00  0.00    +0.000 A 
ATOM      3  C   UNL     1      48.724   6.785  14.133  0.00  0.00    +0.000 A 
ATOM      4  C   UNL     1      48.397   7.996  13.507  0.00  0.00    +0.000 A 
ATOM      5  C   UNL     1      48.149   9.119  14.306  0.00  0.00    +0.000 A 
ATOM      6  C   UNL     1      48.283   9.048  15.695  0.00  0.00    +0.000 A 
ENDROOT
BRANCH   1   7
ATOM      7  C   UNL     1      48.784   7.793  17.831  0.00  0.00    +0.000 C 
BRANCH   7   8
ATOM      8  N   UNL     1      47.558   7.327  18.485  0.00  0.00    +0.000 NA
ATOM      9  H   UNL     1      47.212   8.068  19.091  0.00  0.00    +0.000 HD
BRANCH   8  11
ATOM     10  C   UNL     1      48.829   6.336  20.401  0.00  0.00    +0.000 C 
ATOM     11  C   UNL     1      47.764   6.127  19.316  0.00  0.00    +0.000 C 
BRANCH  11  12
ATOM     12  C   UNL     1      48.146   4.912  18.469  0.00  0.00    +0.000 A 
ATOM     13  C   UNL     1      47.164   4.274  17.690  0.00  0.00    +0.000 A 
ATOM     14  C   UNL     1      47.467   3.134  16.940  0.00  0.00    +0.000 A 
ATOM     15  C   UNL     1      48.759   2.615  16.952  0.00  0.00    +0.000 A 
ATOM     16  C   UNL     1      49.746   3.232  17.718  0.00  0.00    +0.000 A 
ATOM     17  C   UNL     1      49.439   4.365  18.478  0.00  0.00    +0.000 A 
ENDBRANCH  11  12
ENDBRANCH   8  11
ENDBRANCH   7   8
ENDBRANCH   1   7
BRANCH   4  18
ATOM     18  C   UNL     1      48.282   8.097  12.009  0.00  0.00    +0.000 C 
BRANCH  18  19
ATOM     19  N   UNL     1      47.581   6.963  11.461  0.00  0.00    +0.000 N 
ATOM     20  C   UNL     1      46.211   6.943  11.381  0.00  0.00    +0.000 C 
ATOM     21  O   UNL     1      45.516   7.891  11.732  0.00  0.00    +0.000 OA
ATOM     22  H   UNL     1      48.096   6.093  11.409  0.00  0.00    +0.000 HD
BRANCH  20  23
ATOM     23  C   UNL     1      45.621   5.738  10.780  0.00  0.00    +0.000 A 
ATOM     24  C   UNL     1      45.802   5.481   9.428  0.00  0.00    +0.000 A 
ATOM     25  S   UNL     1      45.093   4.020   8.908  0.00  0.00    +0.000 S 
ATOM     26  C   UNL     1      44.473   3.702  10.463  0.00  0.00    +0.000 A 
ATOM     27  N   UNL     1      43.726   2.596  10.706  0.00  0.00    +0.000 NA
ATOM     28  C   UNL     1      43.300   2.496  11.921  0.00  0.00    +0.000 A 
ATOM     29  N   UNL     1      43.561   3.401  12.916  0.00  0.00    +0.000 N 
ATOM     30  C   UNL     1      44.335   4.518  12.726  0.00  0.00    +0.000 A 
ATOM     31  O   UNL     1      44.587   5.283  13.648  0.00  0.00    +0.000 OA
ATOM     32  C   UNL     1      44.826   4.687  11.369  0.00  0.00    +0.000 A 
ATOM     33  H   UNL     1      43.209   3.258  13.852  0.00  0.00    +0.000 HD
ENDBRANCH  20  23
ENDBRANCH  18  19
ENDBRANCH   4  18
TORSDOF 7
ENDMDL
MODEL 5
REMARK VINA RESULT:    -7.109      5.043      9.320
REMARK INTER + INTRA:         -11.444
REMARK INTER:                 -10.153
REMARK INTRA:                  -1.291
REMARK UNBOUND:                -1.425
REMARK  Name = 
REMARK  8 active torsions:
REMARK  status: ('A' for Active; 'I' for Inactive)
REMARK    1  A    between atoms: C_1  and  C_2
REMARK    2  A    between atoms: C_2  and  N_3
REMARK    3  A    between atoms: C_2  and  C_25
REMARK    4  A    between atoms: N_3  and  C_4
REMARK    5  A    between atoms: C_4  and  C_5
REMARK    6  A    between atoms: C_8  and  C_9
REMARK    7  A    between atoms: C_9  and  N_10
REMARK    8  A    between atoms: C_11  and  C_13
REMARK                            x       y       z     vdW  Elec       q    Type
REMARK                         _______ _______ _______ _____ _____    ______ ____
ROOT
ATOM      1  C   UNL     1      51.220   2.287  17.425  0.00  0.00    +0.000 A 
ATOM      2  C   UNL     1      49.823   2.189  17.351  0.00  0.00    +0.000 A 
ATOM      3  C   UNL     1      49.026   3.342  17.321  0.00  0.00    +0.000 A 
ATOM      4  C   UNL     1      49.609   4.616  17.365  0.00  0.00    +0.000 A 
ATOM      5  C   UNL     1      51.000   4.713  17.490  0.00  0.00    +0.000 A 
ATOM      6  C   UNL     1      51.795   3.564  17.511  0.00  0.00    +0.000 A 
ENDROOT
BRANCH   1   7
ATOM      7  C   UNL     1      52.101   1.056  17.454  0.00  0.00    +0.000 C 
BRANCH   7   8
ATOM      8  N   UNL     1      52.960   1.011  18.640  0.00  0.00    +0.000 NA
ATOM      9  H   UNL     1      52.946   1.927  19.085  0.00  0.00    +0.000 HD
BRANCH   8  11
ATOM     10  C   UNL     1      54.922   1.525  17.172  0.00  0.00    +0.000 C 
ATOM     11  C   UNL     1      54.364   0.685  18.328  0.00  0.00    +0.000 C 
BRANCH  11  12
ATOM     12  C   UNL     1      54.537  -0.798  17.998  0.00  0.00    +0.000 A 
ATOM     13  C   UNL     1      55.047  -1.174  16.742  0.00  0.00    +0.000 A 
ATOM     14  C   UNL     1      55.174  -2.520  16.389  0.00  0.00    +0.000 A 
ATOM     15  C   UNL     1      54.800  -3.516  17.288  0.00  0.00    +0.000 A 
ATOM     16  C   UNL     1      54.292  -3.164  18.537  0.00  0.00    +0.000 A 
ATOM     17  C   UNL     1      54.152  -1.817  18.885  0.00  0.00    +0.000 A 
ENDBRANCH  11  12
ENDBRANCH   8  11
ENDBRANCH   7   8
ENDBRANCH   1   7
BRANCH   4  18
ATOM     18  C   UNL     1      48.768   5.864  17.310  0.00  0.00    +0.000 C 
BRANCH  18  19
ATOM     19  N   UNL     1      47.906   5.864  16.156  0.00  0.00    +0.000 N 
ATOM     20  C   UNL     1      48.357   6.280  14.929  0.00  0.00    +0.000 C 
ATOM     21  O   UNL     1      49.516   6.635  14.739  0.00  0.00    +0.000 OA
ATOM     22  H   UNL     1      46.910   5.827  16.334  0.00  0.00    +0.000 HD
BRANCH  20  23
ATOM     23  C   UNL     1      47.384   6.209  13.829  0.00  0.00    +0.000 A 
ATOM     24  C   UNL     1      47.011   7.369  13.163  0.00  0.00    +0.000 A 
ATOM     25  S   UNL     1      45.914   7.101  11.886  0.00  0.00    +0.000 S 
ATOM     26  C   UNL     1      45.857   5.430  12.210  0.00  0.00    +0.000 A 
ATOM     27  N   UNL     1      45.065   4.601  11.483  0.00  0.00    +0.000 NA
ATOM     28  C   UNL     1      45.101   3.365  11.856  0.00  0.00    +0.000 A 
ATOM     29  N   UNL     1      45.863   2.883  12.887  0.00  0.00    +0.000 N 
ATOM     30  C   UNL     1      46.700   3.676  13.631  0.00  0.00    +0.000 A 
ATOM     31  O   UNL     1      47.404   3.205  14.517  0.00  0.00    +0.000 OA
ATOM     32  C   UNL     1      46.685   5.081  13.263  0.00  0.00    +0.000 A 
ATOM     33  H   UNL     1      45.857   1.900  13.121  0.00  0.00    +0.000 HD
ENDBRANCH  20  23
ENDBRANCH  18  19
ENDBRANCH   4  18
TORSDOF 7
ENDMDL
MODEL 6
REMARK VINA RESULT:    -7.033      1.913      2.203
REMARK INTER + INTRA:         -11.337
REMARK INTER:                 -10.461
REMARK INTRA:                  -0.876
REMARK UNBOUND:                -1.425
REMARK  Name = 
REMARK  8 active torsions:
REMARK  status: ('A' for Active; 'I' for Inactive)
REMARK    1  A    between atoms: C_1  and  C_2
REMARK    2  A    between atoms: C_2  and  N_3
REMARK    3  A    between atoms: C_2  and  C_25
REMARK    4  A    between atoms: N_3  and  C_4
REMARK    5  A    between atoms: C_4  and  C_5
REMARK    6  A    between atoms: C_8  and  C_9
REMARK    7  A    between atoms: C_9  and  N_10
REMARK    8  A    between atoms: C_11  and  C_13
REMARK                            x       y       z     vdW  Elec       q    Type
REMARK                         _______ _______ _______ _____ _____    ______ ____
ROOT
ATOM      1  C   UNL     1      44.986   4.124  12.247  0.00  0.00    +0.000 A 
ATOM      2  C   UNL     1      45.994   3.631  13.088  0.00  0.00    +0.000 A 
ATOM      3  C   UNL     1      46.922   4.501  13.678  0.00  0.00    +0.000 A 
ATOM      4  C   UNL     1      46.862   5.881  13.437  0.00  0.00    +0.000 A 
ATOM      5  C   UNL     1      45.887   6.366  12.556  0.00  0.00    +0.000 A 
ATOM      6  C   UNL     1      44.956   5.501  11.977  0.00  0.00    +0.000 A 
ENDROOT
BRANCH   1   7
ATOM      7  C   UNL     1      43.970   3.204  11.604  0.00  0.00    +0.000 C 
BRANCH   7   8
ATOM      8  N   UNL     1      44.495   2.540  10.407  0.00  0.00    +0.000 NA
ATOM      9  H   UNL     1      45.210   1.874  10.694  0.00  0.00    +0.000 HD
BRANCH   8  11
ATOM     10  C   UNL     1      44.073   4.326   8.706  0.00  0.00    +0.000 C 
ATOM     11  C   UNL     1      45.111   3.474   9.447  0.00  0.00    +0.000 C 
BRANCH  11  12
ATOM     12  C   UNL     1      45.979   2.740   8.424  0.00  0.00    +0.000 A 
ATOM     13  C   UNL     1      46.629   3.473   7.414  0.00  0.00    +0.000 A 
ATOM     14  C   UNL     1      47.391   2.830   6.435  0.00  0.00    +0.000 A 
ATOM     15  C   UNL     1      47.522   1.443   6.452  0.00  0.00    +0.000 A 
ATOM     16  C   UNL     1      46.885   0.700   7.443  0.00  0.00    +0.000 A 
ATOM     17  C   UNL     1      46.111   1.342   8.415  0.00  0.00    +0.000 A 
ENDBRANCH  11  12
ENDBRANCH   8  11
ENDBRANCH   7   8
ENDBRANCH   1   7
BRANCH   4  18
ATOM     18  C   UNL     1      47.837   6.830  14.080  0.00  0.00    +0.000 C 
BRANCH  18  19
ATOM     19  N   UNL     1      48.509   6.215  15.196  0.00  0.00    +0.000 N 
ATOM     20  C   UNL     1      48.927   6.955  16.273  0.00  0.00    +0.000 C 
ATOM     21  O   UNL     1      48.721   8.161  16.363  0.00  0.00    +0.000 OA
ATOM     22  H   UNL     1      48.911   5.299  15.035  0.00  0.00    +0.000 HD
BRANCH  20  23
ATOM     23  C   UNL     1      49.579   6.203  17.355  0.00  0.00    +0.000 A 
ATOM     24  C   UNL     1      50.891   5.776  17.204  0.00  0.00    +0.000 A 
ATOM     25  S   UNL     1      51.507   4.962  18.570  0.00  0.00    +0.000 S 
ATOM     26  C   UNL     1      50.024   5.106  19.395  0.00  0.00    +0.000 A 
ATOM     27  N   UNL     1      49.858   4.583  20.636  0.00  0.00    +0.000 NA
ATOM     28  C   UNL     1      48.676   4.743  21.130  0.00  0.00    +0.000 A 
ATOM     29  N   UNL     1      47.645   5.385  20.495  0.00  0.00    +0.000 N 
ATOM     30  C   UNL     1      47.773   5.955  19.253  0.00  0.00    +0.000 A 
ATOM     31  O   UNL     1      46.846   6.563  18.732  0.00  0.00    +0.000 OA
ATOM     32  C   UNL     1      49.082   5.788  18.645  0.00  0.00    +0.000 A 
ATOM     33  H   UNL     1      46.745   5.489  20.941  0.00  0.00    +0.000 HD
ENDBRANCH  20  23
ENDBRANCH  18  19
ENDBRANCH   4  18
TORSDOF 7
ENDMDL
MODEL 7
REMARK VINA RESULT:    -6.848      2.443      3.120
REMARK INTER + INTRA:         -11.076
REMARK INTER:                 -10.344
REMARK INTRA:                  -0.732
REMARK UNBOUND:                -1.425
REMARK  Name = 
REMARK  8 active torsions:
REMARK  status: ('A' for Active; 'I' for Inactive)
REMARK    1  A    between atoms: C_1  and  C_2
REMARK    2  A    between atoms: C_2  and  N_3
REMARK    3  A    between atoms: C_2  and  C_25
REMARK    4  A    between atoms: N_3  and  C_4
REMARK    5  A    between atoms: C_4  and  C_5
REMARK    6  A    between atoms: C_8  and  C_9
REMARK    7  A    between atoms: C_9  and  N_10
REMARK    8  A    between atoms: C_11  and  C_13
REMARK                            x       y       z     vdW  Elec       q    Type
REMARK                         _______ _______ _______ _____ _____    ______ ____
ROOT
ATOM      1  C   UNL     1      45.680   5.653  11.637  0.00  0.00    +0.000 A 
ATOM      2  C   UNL     1      46.816   6.265  12.186  0.00  0.00    +0.000 A 
ATOM      3  C   UNL     1      47.285   5.895  13.455  0.00  0.00    +0.000 A 
ATOM      4  C   UNL     1      46.626   4.907  14.200  0.00  0.00    +0.000 A 
ATOM      5  C   UNL     1      45.463   4.333  13.673  0.00  0.00    +0.000 A 
ATOM      6  C   UNL     1      45.002   4.694  12.405  0.00  0.00    +0.000 A 
ENDROOT
BRANCH   1   7
ATOM      7  C   UNL     1      45.160   6.033  10.267  0.00  0.00    +0.000 C 
BRANCH   7   8
ATOM      8  N   UNL     1      45.880   5.353   9.186  0.00  0.00    +0.000 NA
ATOM      9  H   UNL     1      46.165   6.049   8.500  0.00  0.00    +0.000 HD
BRANCH   8  11
ATOM     10  C   UNL     1      44.005   3.709   9.402  0.00  0.00    +0.000 C 
ATOM     11  C   UNL     1      45.063   4.342   8.490  0.00  0.00    +0.000 C 
BRANCH  11  12
ATOM     12  C   UNL     1      45.930   3.236   7.887  0.00  0.00    +0.000 A 
ATOM     13  C   UNL     1      46.723   3.514   6.759  0.00  0.00    +0.000 A 
ATOM     14  C   UNL     1      47.491   2.516   6.154  0.00  0.00    +0.000 A 
ATOM     15  C   UNL     1      47.484   1.221   6.669  0.00  0.00    +0.000 A 
ATOM     16  C   UNL     1      46.704   0.926   7.785  0.00  0.00    +0.000 A 
ATOM     17  C   UNL     1      45.926   1.922   8.383  0.00  0.00    +0.000 A 
ENDBRANCH  11  12
ENDBRANCH   8  11
ENDBRANCH   7   8
ENDBRANCH   1   7
BRANCH   4  18
ATOM     18  C   UNL     1      47.129   4.482  15.554  0.00  0.00    +0.000 C 
BRANCH  18  19
ATOM     19  N   UNL     1      48.469   4.959  15.787  0.00  0.00    +0.000 N 
ATOM     20  C   UNL     1      48.875   5.363  17.035  0.00  0.00    +0.000 C 
ATOM     21  O   UNL     1      48.141   5.306  18.016  0.00  0.00    +0.000 OA
ATOM     22  H   UNL     1      48.994   5.254  14.973  0.00  0.00    +0.000 HD
BRANCH  20  23
ATOM     23  C   UNL     1      50.272   5.806  17.143  0.00  0.00    +0.000 A 
ATOM     24  C   UNL     1      50.588   7.144  16.950  0.00  0.00    +0.000 A 
ATOM     25  S   UNL     1      52.244   7.493  17.160  0.00  0.00    +0.000 S 
ATOM     26  C   UNL     1      52.608   5.857  17.466  0.00  0.00    +0.000 A 
ATOM     27  N   UNL     1      53.883   5.455  17.701  0.00  0.00    +0.000 NA
ATOM     28  C   UNL     1      54.015   4.185  17.890  0.00  0.00    +0.000 A 
ATOM     29  N   UNL     1      52.984   3.281  17.872  0.00  0.00    +0.000 N 
ATOM     30  C   UNL     1      51.677   3.644  17.668  0.00  0.00    +0.000 A 
ATOM     31  O   UNL     1      50.773   2.818  17.704  0.00  0.00    +0.000 OA
ATOM     32  C   UNL     1      51.475   5.063  17.433  0.00  0.00    +0.000 A 
ATOM     33  H   UNL     1      53.153   2.299  18.041  0.00  0.00    +0.000 HD
ENDBRANCH  20  23
ENDBRANCH  18  19
ENDBRANCH   4  18
TORSDOF 7
ENDMDL
MODEL 8
REMARK VINA RESULT:    -6.605      3.670      8.143
REMARK INTER + INTRA:         -10.734
REMARK INTER:                  -8.351
REMARK INTRA:                  -2.382
REMARK UNBOUND:                -1.425
REMARK  Name = 
REMARK  8 active torsions:
REMARK  status: ('A' for Active; 'I' for Inactive)
REMARK    1  A    between atoms: C_1  and  C_2
REMARK    2  A    between atoms: C_2  and  N_3
REMARK    3  A    between atoms: C_2  and  C_25
REMARK    4  A    between atoms: N_3  and  C_4
REMARK    5  A    between atoms: C_4  and  C_5
REMARK    6  A    between atoms: C_8  and  C_9
REMARK    7  A    between atoms: C_9  and  N_10
REMARK    8  A    between atoms: C_11  and  C_13
REMARK                            x       y       z     vdW  Elec       q    Type
REMARK                         _______ _______ _______ _____ _____    ______ ____
ROOT
ATOM      1  C   UNL     1      50.617   7.366  17.672  0.00  0.00    +0.000 A 
ATOM      2  C   UNL     1      50.693   6.961  16.332  0.00  0.00    +0.000 A 
ATOM      3  C   UNL     1      49.875   7.552  15.359  0.00  0.00    +0.000 A 
ATOM      4  C   UNL     1      48.963   8.558  15.706  0.00  0.00    +0.000 A 
ATOM      5  C   UNL     1      48.851   8.926  17.052  0.00  0.00    +0.000 A 
ATOM      6  C   UNL     1      49.673   8.345  18.021  0.00  0.00    +0.000 A 
ENDROOT
BRANCH   1   7
ATOM      7  C   UNL     1      51.494   6.746  18.739  0.00  0.00    +0.000 C 
BRANCH   7   8
ATOM      8  N   UNL     1      50.747   5.851  19.627  0.00  0.00    +0.000 NA
ATOM      9  H   UNL     1      51.167   5.890  20.554  0.00  0.00    +0.000 HD
BRANCH   8  11
ATOM     10  C   UNL     1      52.035   4.091  18.399  0.00  0.00    +0.000 C 
ATOM     11  C   UNL     1      50.765   4.445  19.184  0.00  0.00    +0.000 C 
BRANCH  11  12
ATOM     12  C   UNL     1      49.540   4.106  18.333  0.00  0.00    +0.000 A 
ATOM     13  C   UNL     1      48.356   4.846  18.497  0.00  0.00    +0.000 A 
ATOM     14  C   UNL     1      47.204   4.533  17.771  0.00  0.00    +0.000 A 
ATOM     15  C   UNL     1      47.217   3.478  16.862  0.00  0.00    +0.000 A 
ATOM     16  C   UNL     1      48.381   2.731  16.686  0.00  0.00    +0.000 A 
ATOM     17  C   UNL     1      49.529   3.036  17.423  0.00  0.00    +0.000 A 
ENDBRANCH  11  12
ENDBRANCH   8  11
ENDBRANCH   7   8
ENDBRANCH   1   7
BRANCH   4  18
ATOM     18  C   UNL     1      48.094   9.218  14.669  0.00  0.00    +0.000 C 
BRANCH  18  19
ATOM     19  N   UNL     1      47.126   8.294  14.132  0.00  0.00    +0.000 N 
ATOM     20  C   UNL     1      46.985   8.116  12.779  0.00  0.00    +0.000 C 
ATOM     21  O   UNL     1      47.692   8.697  11.961  0.00  0.00    +0.000 OA
ATOM     22  H   UNL     1      46.378   8.009  14.753  0.00  0.00    +0.000 HD
BRANCH  20  23
ATOM     23  C   UNL     1      45.979   7.129  12.362  0.00  0.00    +0.000 A 
ATOM     24  C   UNL     1      44.861   7.542  11.650  0.00  0.00    +0.000 A 
ATOM     25  S   UNL     1      43.822   6.265  11.206  0.00  0.00    +0.000 S 
ATOM     26  C   UNL     1      44.803   5.118  11.996  0.00  0.00    +0.000 A 
ATOM     27  N   UNL     1      44.462   3.805  12.023  0.00  0.00    +0.000 NA
ATOM     28  C   UNL     1      45.283   3.053  12.679  0.00  0.00    +0.000 A 
ATOM     29  N   UNL     1      46.418   3.498  13.304  0.00  0.00    +0.000 N 
ATOM     30  C   UNL     1      46.819   4.810  13.279  0.00  0.00    +0.000 A 
ATOM     31  O   UNL     1      47.865   5.167  13.809  0.00  0.00    +0.000 OA
ATOM     32  C   UNL     1      45.920   5.702  12.567  0.00  0.00    +0.000 A 
ATOM     33  H   UNL     1      47.028   2.856  13.791  0.00  0.00    +0.000 HD
ENDBRANCH  20  23
ENDBRANCH  18  19
ENDBRANCH   4  18
TORSDOF 7
ENDMDL
MODEL 9
REMARK VINA RESULT:    -6.421      4.900      7.653
REMARK INTER + INTRA:         -10.474
REMARK INTER:                  -9.378
REMARK INTRA:                  -1.096
REMARK UNBOUND:                -1.425
REMARK  Name = 
REMARK  8 active torsions:
REMARK  status: ('A' for Active; 'I' for Inactive)
REMARK    1  A    between atoms: C_1  and  C_2
REMARK    2  A    between atoms: C_2  and  N_3
REMARK    3  A    between atoms: C_2  and  C_25
REMARK    4  A    between atoms: N_3  and  C_4
REMARK    5  A    between atoms: C_4  and  C_5
REMARK    6  A    between atoms: C_8  and  C_9
REMARK    7  A    between atoms: C_9  and  N_10
REMARK    8  A    between atoms: C_11  and  C_13
REMARK                            x       y       z     vdW  Elec       q    Type
REMARK                         _______ _______ _______ _____ _____    ______ ____
ROOT
ATOM      1  C   UNL     1      50.307   8.896  11.427  0.00  0.00    +0.000 A 
ATOM      2  C   UNL     1      49.912   7.596  11.776  0.00  0.00    +0.000 A 
ATOM      3  C   UNL     1      48.613   7.343  12.239  0.00  0.00    +0.000 A 
ATOM      4  C   UNL     1      47.684   8.384  12.365  0.00  0.00    +0.000 A 
ATOM      5  C   UNL     1      48.093   9.690  12.065  0.00  0.00    +0.000 A 
ATOM      6  C   UNL     1      49.385   9.940  11.594  0.00  0.00    +0.000 A 
ENDROOT
BRANCH   1   7
ATOM      7  C   UNL     1      51.702   9.191  10.920  0.00  0.00    +0.000 C 
BRANCH   7   8
ATOM      8  N   UNL     1      52.655   8.129  11.252  0.00  0.00    +0.000 NA
ATOM      9  H   UNL     1      53.007   8.293  12.193  0.00  0.00    +0.000 HD
BRANCH   8  11
ATOM     10  C   UNL     1      54.107   9.438   9.690  0.00  0.00    +0.000 C 
ATOM     11  C   UNL     1      53.813   8.080  10.341  0.00  0.00    +0.000 C 
BRANCH  11  12
ATOM     12  C   UNL     1      53.624   7.031   9.245  0.00  0.00    +0.000 A 
ATOM     13  C   UNL     1      54.515   5.945   9.164  0.00  0.00    +0.000 A 
ATOM     14  C   UNL     1      54.400   4.993   8.147  0.00  0.00    +0.000 A 
ATOM     15  C   UNL     1      53.389   5.107   7.195  0.00  0.00    +0.000 A 
ATOM     16  C   UNL     1      52.498   6.176   7.258  0.00  0.00    +0.000 A 
ATOM     17  C   UNL     1      52.620   7.135   8.268  0.00  0.00    +0.000 A 
ENDBRANCH  11  12
ENDBRANCH   8  11
ENDBRANCH   7   8
ENDBRANCH   1   7
BRANCH   4  18
ATOM     18  C   UNL     1      46.278   8.126  12.839  0.00  0.00    +0.000 C 
BRANCH  18  19
ATOM     19  N   UNL     1      45.855   6.787  12.516  0.00  0.00    +0.000 N 
ATOM     20  C   UNL     1      44.794   6.558  11.676  0.00  0.00    +0.000 C 
ATOM     21  O   UNL     1      44.178   7.468  11.130  0.00  0.00    +0.000 OA
ATOM     22  H   UNL     1      46.166   6.050  13.137  0.00  0.00    +0.000 HD
BRANCH  20  23
ATOM     23  C   UNL     1      44.478   5.147  11.410  0.00  0.00    +0.000 A 
ATOM     24  C   UNL     1      43.747   4.417  12.338  0.00  0.00    +0.000 A 
ATOM     25  S   UNL     1      43.429   2.815  11.850  0.00  0.00    +0.000 S 
ATOM     26  C   UNL     1      44.303   3.022  10.403  0.00  0.00    +0.000 A 
ATOM     27  N   UNL     1      44.449   2.001   9.520  0.00  0.00    +0.000 NA
ATOM     28  C   UNL     1      45.157   2.293   8.480  0.00  0.00    +0.000 A 
ATOM     29  N   UNL     1      45.727   3.516   8.241  0.00  0.00    +0.000 N 
ATOM     30  C   UNL     1      45.582   4.585   9.089  0.00  0.00    +0.000 A 
ATOM     31  O   UNL     1      46.065   5.679   8.822  0.00  0.00    +0.000 OA
ATOM     32  C   UNL     1      44.807   4.306  10.285  0.00  0.00    +0.000 A 
ATOM     33  H   UNL     1      46.259   3.684   7.399  0.00  0.00    +0.000 HD
ENDBRANCH  20  23
ENDBRANCH  18  19
ENDBRANCH   4  18
TORSDOF 7
ENDMDL
