MODEL 1
REMARK VINA RESULT:    -7.956      0.000      0.000
REMARK INTER + INTRA:         -10.554
REMARK INTER:                 -10.282
REMARK INTRA:                  -0.272
REMARK UNBOUND:                -0.272
REMARK  Name = 
REMARK  6 active torsions:
REMARK  status: ('A' for Active; 'I' for Inactive)
REMARK    1  A    between atoms: N_1  and  C_2
REMARK    2  A    between atoms: C_2  and  C_3
REMARK    3  A    between atoms: C_6  and  C_7
REMARK    4  A    between atoms: C_7  and  N_8
REMARK    5  A    between atoms: C_13  and  C_14
REMARK    6  A    between atoms: C_14  and  O_15
REMARK                            x       y       z     vdW  Elec       q    Type
REMARK                         _______ _______ _______ _____ _____    ______ ____
ROOT
ATOM      1  N   UNL     1      44.060   4.025  11.133  0.00  0.00    +0.000 N 
ATOM      2  C   UNL     1      43.375   5.129  10.678  0.00  0.00    +0.000 A 
ATOM      3  C   UNL     1      43.432   6.056  11.689  0.00  0.00    +0.000 A 
ATOM      4  C   UNL     1      44.694   5.814  12.280  0.00  0.00    +0.000 A 
ATOM      5  C   UNL     1      45.668   6.623  12.893  0.00  0.00    +0.000 A 
ATOM      6  C   UNL     1      46.858   6.032  13.349  0.00  0.00    +0.000 A 
ATOM      7  C   UNL     1      46.942   4.624  13.399  0.00  0.00    +0.000 A 
ATOM      8  C   UNL     1      45.980   3.806  12.794  0.00  0.00    +0.000 A 
ATOM      9  C   UNL     1      44.948   4.450  12.105  0.00  0.00    +0.000 A 
ENDROOT
BRANCH   1  10
ATOM     10  C   UNL     1      44.086   2.753  10.422  0.00  0.00    +0.000 C 
BRANCH  10  14
ATOM     11  C   UNL     1      46.610   2.751   6.876  0.00  0.00    +0.000 A 
ATOM     12  C   UNL     1      45.969   3.922   7.291  0.00  0.00    +0.000 A 
ATOM     13  C   UNL     1      45.125   3.931   8.415  0.00  0.00    +0.000 A 
ATOM     14  C   UNL     1      44.911   2.761   9.158  0.00  0.00    +0.000 A 
ATOM     15  C   UNL     1      45.567   1.592   8.757  0.00  0.00    +0.000 A 
ATOM     16  C   UNL     1      46.405   1.597   7.632  0.00  0.00    +0.000 A 
BRANCH  11  17
ATOM     17  C   UNL     1      47.473   2.711   5.637  0.00  0.00    +0.000 C 
BRANCH  17  18
ATOM     18  N   UNL     1      48.537   1.717   5.722  0.00  0.00    +0.000 NA
ATOM     19  H   UNL     1      49.121   1.790   4.891  0.00  0.00    +0.000 HD
ATOM     20  H   UNL     1      48.119   0.787   5.693  0.00  0.00    +0.000 HD
ENDBRANCH  17  18
ENDBRANCH  11  17
ENDBRANCH  10  14
ENDBRANCH   1  10
BRANCH   6  21
ATOM     21  C   UNL     1      48.065   6.867  13.679  0.00  0.00    +0.000 C 
BRANCH  21  22
ATOM     22  O   UNL     1      49.216   6.405  13.010  0.00  0.00    +0.000 OA
ATOM     23  H   UNL     1      49.061   6.546  12.063  0.00  0.00    +0.000 HD
ENDBRANCH  21  22
ENDBRANCH   6  21
TORSDOF 6
ENDMDL
MODEL 2
REMARK VINA RESULT:    -7.739      2.708      6.199
REMARK INTER + INTRA:         -10.273
REMARK INTER:                  -9.624
REMARK INTRA:                  -0.648
REMARK UNBOUND:                -0.272
REMARK  Name = 
REMARK  6 active torsions:
REMARK  status: ('A' for Active; 'I' for Inactive)
REMARK    1  A    between atoms: N_1  and  C_2
REMARK    2  A    between atoms: C_2  and  C_3
REMARK    3  A    between atoms: C_6  and  C_7
REMARK    4  A    between atoms: C_7  and  N_8
REMARK    5  A    between atoms: C_13  and  C_14
REMARK    6  A    between atoms: C_14  and  O_15
REMARK                            x       y       z     vdW  Elec       q    Type
REMARK                         _______ _______ _______ _____ _____    ______ ____
ROOT
ATOM      1  N   UNL     1      44.342   3.824  10.027  0.00  0.00    +0.000 N 
ATOM      2  C   UNL     1      44.059   2.601  10.590  0.00  0.00    +0.000 A 
ATOM      3  C   UNL     1      44.160   1.681   9.575  0.00  0.00    +0.000 A 
ATOM      4  C   UNL     1      45.186   2.212   8.759  0.00  0.00    +0.000 A 
ATOM      5  C   UNL     1      46.201   1.653   7.961  0.00  0.00    +0.000 A 
ATOM      6  C   UNL     1      47.095   2.508   7.296  0.00  0.00    +0.000 A 
ATOM      7  C   UNL     1      46.806   3.889   7.248  0.00  0.00    +0.000 A 
ATOM      8  C   UNL     1      45.798   4.459   8.034  0.00  0.00    +0.000 A 
ATOM      9  C   UNL     1      45.111   3.601   8.899  0.00  0.00    +0.000 A 
ENDROOT
BRANCH   1  10
ATOM     10  C   UNL     1      44.175   5.087  10.736  0.00  0.00    +0.000 C 
BRANCH  10  14
ATOM     11  C   UNL     1      47.416   6.256  13.397  0.00  0.00    +0.000 A 
ATOM     12  C   UNL     1      47.314   6.808  12.116  0.00  0.00    +0.000 A 
ATOM     13  C   UNL     1      46.292   6.417  11.234  0.00  0.00    +0.000 A 
ATOM     14  C   UNL     1      45.339   5.464  11.621  0.00  0.00    +0.000 A 
ATOM     15  C   UNL     1      45.426   4.924  12.909  0.00  0.00    +0.000 A 
ATOM     16  C   UNL     1      46.452   5.322  13.779  0.00  0.00    +0.000 A 
BRANCH  11  17
ATOM     17  C   UNL     1      48.541   6.622  14.335  0.00  0.00    +0.000 C 
BRANCH  17  18
ATOM     18  N   UNL     1      49.761   7.003  13.632  0.00  0.00    +0.000 NA
ATOM     19  H   UNL     1      50.296   6.163  13.423  0.00  0.00    +0.000 HD
ATOM     20  H   UNL     1      50.341   7.559  14.260  0.00  0.00    +0.000 HD
ENDBRANCH  17  18
ENDBRANCH  11  17
ENDBRANCH  10  14
ENDBRANCH   1  10
BRANCH   6  21
ATOM     21  C   UNL     1      48.391   1.993   6.732  0.00  0.00    +0.000 C 
BRANCH  21  22
ATOM     22  O   UNL     1      48.351   1.912   5.326  0.00  0.00    +0.000 OA
ATOM     23  H   UNL     1      48.654   1.020   5.093  0.00  0.00    +0.000 HD
ENDBRANCH  21  22
ENDBRANCH   6  21
TORSDOF 6
ENDMDL
MODEL 3
REMARK VINA RESULT:    -7.434      1.486      2.115
REMARK INTER + INTRA:          -9.879
REMARK INTER:                  -9.250
REMARK INTRA:                  -0.629
REMARK UNBOUND:                -0.272
REMARK  Name = 
REMARK  6 active torsions:
REMARK  status: ('A' for Active; 'I' for Inactive)
REMARK    1  A    between atoms: N_1  and  C_2
REMARK    2  A    between atoms: C_2  and  C_3
REMARK    3  A    between atoms: C_6  and  C_7
REMARK    4  A    between atoms: C_7  and  N_8
REMARK    5  A    between atoms: C_13  and  C_14
REMARK    6  A    between atoms: C_14  and  O_15
REMARK                            x       y       z     vdW  Elec       q    Type
REMARK                         _______ _______ _______ _____ _____    ______ ____
ROOT
ATOM      1  N   UNL     1      45.199   4.773  11.541  0.00  0.00    +0.000 N 
ATOM      2  C   UNL     1      44.750   4.215  12.716  0.00  0.00    +0.000 A 
ATOM      3  C   UNL     1      45.772   4.361  13.622  0.00  0.00    +0.000 A 
ATOM      4  C   UNL     1      46.369   5.585  13.241  0.00  0.00    +0.000 A 
ATOM      5  C   UNL     1      46.999   6.634  13.936  0.00  0.00    +0.000 A 
ATOM      6  C   UNL     1      47.457   7.751  13.217  0.00  0.00    +0.000 A 
ATOM      7  C   UNL     1      47.493   7.683  11.807  0.00  0.00    +0.000 A 
ATOM      8  C   UNL     1      46.873   6.644  11.102  0.00  0.00    +0.000 A 
ATOM      9  C   UNL     1      46.182   5.693  11.860  0.00  0.00    +0.000 A 
ENDROOT
BRANCH   1  10
ATOM     10  C   UNL     1      44.475   4.669  10.280  0.00  0.00    +0.000 C 
BRANCH  10  14
ATOM     11  C   UNL     1      46.589   2.204   7.381  0.00  0.00    +0.000 A 
ATOM     12  C   UNL     1      46.592   3.598   7.264  0.00  0.00    +0.000 A 
ATOM     13  C   UNL     1      45.888   4.406   8.175  0.00  0.00    +0.000 A 
ATOM     14  C   UNL     1      45.167   3.832   9.231  0.00  0.00    +0.000 A 
ATOM     15  C   UNL     1      45.179   2.438   9.362  0.00  0.00    +0.000 A 
ATOM     16  C   UNL     1      45.884   1.644   8.446  0.00  0.00    +0.000 A 
BRANCH  11  17
ATOM     17  C   UNL     1      47.292   1.320   6.378  0.00  0.00    +0.000 C 
BRANCH  17  18
ATOM     18  N   UNL     1      48.491   1.937   5.825  0.00  0.00    +0.000 NA
ATOM     19  H   UNL     1      49.042   2.327   6.587  0.00  0.00    +0.000 HD
ATOM     20  H   UNL     1      48.215   2.728   5.243  0.00  0.00    +0.000 HD
ENDBRANCH  17  18
ENDBRANCH  11  17
ENDBRANCH  10  14
ENDBRANCH   1  10
BRANCH   6  21
ATOM     21  C   UNL     1      47.804   9.037  13.915  0.00  0.00    +0.000 C 
BRANCH  21  22
ATOM     22  O   UNL     1      47.464   8.995  15.282  0.00  0.00    +0.000 OA
ATOM     23  H   UNL     1      46.495   9.020  15.326  0.00  0.00    +0.000 HD
ENDBRANCH  21  22
ENDBRANCH   6  21
TORSDOF 6
ENDMDL
MODEL 4
REMARK VINA RESULT:    -6.804      2.908      6.158
REMARK INTER + INTRA:          -9.064
REMARK INTER:                  -8.574
REMARK INTRA:                  -0.491
REMARK UNBOUND:                -0.272
REMARK  Name = 
REMARK  6 active torsions:
REMARK  status: ('A' for Active; 'I' for Inactive)
REMARK    1  A    between atoms: N_1  and  C_2
REMARK    2  A    between atoms: C_2  and  C_3
REMARK    3  A    between atoms: C_6  and  C_7
REMARK    4  A    between atoms: C_7  and  N_8
REMARK    5  A    between atoms: C_13  and  C_14
REMARK    6  A    between atoms: C_14  and  O_15
REMARK                            x       y       z     vdW  Elec       q    Type
REMARK                         _______ _______ _______ _____ _____    ______ ____
ROOT
ATOM      1  N   UNL     1      43.873   4.991  11.140  0.00  0.00    +0.000 N 
ATOM      2  C   UNL     1      43.801   4.120  12.203  0.00  0.00    +0.000 A 
ATOM      3  C   UNL     1      43.561   2.880  11.664  0.00  0.00    +0.000 A 
ATOM      4  C   UNL     1      44.251   2.924  10.430  0.00  0.00    +0.000 A 
ATOM      5  C   UNL     1      44.943   1.978   9.652  0.00  0.00    +0.000 A 
ATOM      6  C   UNL     1      45.557   2.394   8.459  0.00  0.00    +0.000 A 
ATOM      7  C   UNL     1      45.262   3.679   7.954  0.00  0.00    +0.000 A 
ATOM      8  C   UNL     1      44.572   4.630   8.716  0.00  0.00    +0.000 A 
ATOM      9  C   UNL     1      44.220   4.260  10.018  0.00  0.00    +0.000 A 
ENDROOT
BRANCH   1  10
ATOM     10  C   UNL     1      43.946   6.438  11.297  0.00  0.00    +0.000 C 
BRANCH  10  14
ATOM     11  C   UNL     1      47.768   7.733  12.931  0.00  0.00    +0.000 A 
ATOM     12  C   UNL     1      46.581   8.364  13.316  0.00  0.00    +0.000 A 
ATOM     13  C   UNL     1      45.342   7.978  12.773  0.00  0.00    +0.000 A 
ATOM     14  C   UNL     1      45.266   6.941  11.833  0.00  0.00    +0.000 A 
ATOM     15  C   UNL     1      46.450   6.294  11.461  0.00  0.00    +0.000 A 
ATOM     16  C   UNL     1      47.679   6.690  12.009  0.00  0.00    +0.000 A 
BRANCH  11  17
ATOM     17  C   UNL     1      49.112   8.174  13.461  0.00  0.00    +0.000 C 
BRANCH  17  18
ATOM     18  N   UNL     1      49.816   7.111  14.169  0.00  0.00    +0.000 NA
ATOM     19  H   UNL     1      49.164   6.652  14.803  0.00  0.00    +0.000 HD
ATOM     20  H   UNL     1      50.535   7.530  14.757  0.00  0.00    +0.000 HD
ENDBRANCH  17  18
ENDBRANCH  11  17
ENDBRANCH  10  14
ENDBRANCH   1  10
BRANCH   6  21
ATOM     21  C   UNL     1      46.592   1.541   7.778  0.00  0.00    +0.000 C 
BRANCH  21  22
ATOM     22  O   UNL     1      46.415   0.174   8.072  0.00  0.00    +0.000 OA
ATOM     23  H   UNL     1      45.568  -0.086   7.676  0.00  0.00    +0.000 HD
ENDBRANCH  21  22
ENDBRANCH   6  21
TORSDOF 6
ENDMDL
MODEL 5
REMARK VINA RESULT:    -5.640      4.743      8.487
REMARK INTER + INTRA:          -7.561
REMARK INTER:                  -6.989
REMARK INTRA:                  -0.572
REMARK UNBOUND:                -0.272
REMARK  Name = 
REMARK  6 active torsions:
REMARK  status: ('A' for Active; 'I' for Inactive)
REMARK    1  A    between atoms: N_1  and  C_2
REMARK    2  A    between atoms: C_2  and  C_3
REMARK    3  A    between atoms: C_6  and  C_7
REMARK    4  A    between atoms: C_7  and  N_8
REMARK    5  A    between atoms: C_13  and  C_14
REMARK    6  A    between atoms: C_14  and  O_15
REMARK                            x       y       z     vdW  Elec       q    Type
REMARK                         _______ _______ _______ _____ _____    ______ ____
ROOT
ATOM      1  N   UNL     1      48.142   7.249  14.088  0.00  0.00    +0.000 N 
ATOM      2  C   UNL     1      47.578   8.503  14.045  0.00  0.00    +0.000 A 
ATOM      3  C   UNL     1      46.676   8.480  13.010  0.00  0.00    +0.000 A 
ATOM      4  C   UNL     1      46.197   7.149  13.028  0.00  0.00    +0.000 A 
ATOM      5  C   UNL     1      44.961   6.542  12.740  0.00  0.00    +0.000 A 
ATOM      6  C   UNL     1      44.829   5.153  12.906  0.00  0.00    +0.000 A 
ATOM      7  C   UNL     1      45.991   4.380  13.120  0.00  0.00    +0.000 A 
ATOM      8  C   UNL     1      47.228   4.971  13.404  0.00  0.00    +0.000 A 
ATOM      9  C   UNL     1      47.252   6.365  13.504  0.00  0.00    +0.000 A 
ENDROOT
BRANCH   1  10
ATOM     10  C   UNL     1      49.276   6.912  14.941  0.00  0.00    +0.000 C 
BRANCH  10  14
ATOM     11  C   UNL     1      48.366   5.758  19.038  0.00  0.00    +0.000 A 
ATOM     12  C   UNL     1      48.175   4.855  17.987  0.00  0.00    +0.000 A 
ATOM     13  C   UNL     1      48.435   5.224  16.655  0.00  0.00    +0.000 A 
ATOM     14  C   UNL     1      48.900   6.510  16.347  0.00  0.00    +0.000 A 
ATOM     15  C   UNL     1      49.111   7.409  17.399  0.00  0.00    +0.000 A 
ATOM     16  C   UNL     1      48.847   7.029  18.723  0.00  0.00    +0.000 A 
BRANCH  11  17
ATOM     17  C   UNL     1      48.037   5.396  20.467  0.00  0.00    +0.000 C 
BRANCH  17  18
ATOM     18  N   UNL     1      48.427   4.033  20.809  0.00  0.00    +0.000 NA
ATOM     19  H   UNL     1      48.158   3.414  20.046  0.00  0.00    +0.000 HD
ATOM     20  H   UNL     1      47.888   3.732  21.621  0.00  0.00    +0.000 HD
ENDBRANCH  17  18
ENDBRANCH  11  17
ENDBRANCH  10  14
ENDBRANCH   1  10
BRANCH   6  21
ATOM     21  C   UNL     1      43.474   4.502  12.965  0.00  0.00    +0.000 C 
BRANCH  21  22
ATOM     22  O   UNL     1      42.493   5.386  13.458  0.00  0.00    +0.000 OA
ATOM     23  H   UNL     1      41.774   4.835  13.804  0.00  0.00    +0.000 HD
ENDBRANCH  21  22
ENDBRANCH   6  21
TORSDOF 6
ENDMDL
MODEL 6
REMARK VINA RESULT:    -5.617      4.076      7.130
REMARK INTER + INTRA:          -7.530
REMARK INTER:                  -7.143
REMARK INTRA:                  -0.387
REMARK UNBOUND:                -0.272
REMARK  Name = 
REMARK  6 active torsions:
REMARK  status: ('A' for Active; 'I' for Inactive)
REMARK    1  A    between atoms: N_1  and  C_2
REMARK    2  A    between atoms: C_2  and  C_3
REMARK    3  A    between atoms: C_6  and  C_7
REMARK    4  A    between atoms: C_7  and  N_8
REMARK    5  A    between atoms: C_13  and  C_14
REMARK    6  A    between atoms: C_14  and  O_15
REMARK                            x       y       z     vdW  Elec       q    Type
REMARK                         _______ _______ _______ _____ _____    ______ ____
ROOT
ATOM      1  N   UNL     1      47.111   7.688  12.815  0.00  0.00    +0.000 N 
ATOM      2  C   UNL     1      46.454   8.799  13.293  0.00  0.00    +0.000 A 
ATOM      3  C   UNL     1      45.436   9.050  12.407  0.00  0.00    +0.000 A 
ATOM      4  C   UNL     1      45.063   7.758  11.968  0.00  0.00    +0.000 A 
ATOM      5  C   UNL     1      43.849   7.159  11.583  0.00  0.00    +0.000 A 
ATOM      6  C   UNL     1      43.842   5.799  11.229  0.00  0.00    +0.000 A 
ATOM      7  C   UNL     1      45.076   5.141  11.036  0.00  0.00    +0.000 A 
ATOM      8  C   UNL     1      46.291   5.725  11.412  0.00  0.00    +0.000 A 
ATOM      9  C   UNL     1      46.224   6.981  12.023  0.00  0.00    +0.000 A 
ENDROOT
BRANCH   1  10
ATOM     10  C   UNL     1      48.363   7.197  13.378  0.00  0.00    +0.000 C 
BRANCH  10  14
ATOM     11  C   UNL     1      48.044   4.466  16.753  0.00  0.00    +0.000 A 
ATOM     12  C   UNL     1      47.285   4.259  15.597  0.00  0.00    +0.000 A 
ATOM     13  C   UNL     1      47.353   5.149  14.512  0.00  0.00    +0.000 A 
ATOM     14  C   UNL     1      48.194   6.270  14.558  0.00  0.00    +0.000 A 
ATOM     15  C   UNL     1      48.971   6.469  15.705  0.00  0.00    +0.000 A 
ATOM     16  C   UNL     1      48.892   5.573  16.782  0.00  0.00    +0.000 A 
BRANCH  11  17
ATOM     17  C   UNL     1      47.939   3.551  17.950  0.00  0.00    +0.000 C 
BRANCH  17  18
ATOM     18  N   UNL     1      46.769   2.682  17.895  0.00  0.00    +0.000 NA
ATOM     19  H   UNL     1      46.147   2.920  18.666  0.00  0.00    +0.000 HD
ATOM     20  H   UNL     1      47.067   1.721  18.059  0.00  0.00    +0.000 HD
ENDBRANCH  17  18
ENDBRANCH  11  17
ENDBRANCH  10  14
ENDBRANCH   1  10
BRANCH   6  21
ATOM     21  C   UNL     1      42.557   5.021  11.158  0.00  0.00    +0.000 C 
BRANCH  21  22
ATOM     22  O   UNL     1      42.752   3.665  11.488  0.00  0.00    +0.000 OA
ATOM     23  H   UNL     1      42.361   3.536  12.368  0.00  0.00    +0.000 HD
ENDBRANCH  21  22
ENDBRANCH   6  21
TORSDOF 6
ENDMDL
MODEL 7
REMARK VINA RESULT:    -5.585      4.782      7.945
REMARK INTER + INTRA:          -7.489
REMARK INTER:                  -6.924
REMARK INTRA:                  -0.565
REMARK UNBOUND:                -0.272
REMARK  Name = 
REMARK  6 active torsions:
REMARK  status: ('A' for Active; 'I' for Inactive)
REMARK    1  A    between atoms: N_1  and  C_2
REMARK    2  A    between atoms: C_2  and  C_3
REMARK    3  A    between atoms: C_6  and  C_7
REMARK    4  A    between atoms: C_7  and  N_8
REMARK    5  A    between atoms: C_13  and  C_14
REMARK    6  A    between atoms: C_14  and  O_15
REMARK                            x       y       z     vdW  Elec       q    Type
REMARK                         _______ _______ _______ _____ _____    ______ ____
ROOT
ATOM      1  N   UNL     1      48.262   5.968  15.289  0.00  0.00    +0.000 N 
ATOM      2  C   UNL     1      48.767   7.204  14.957  0.00  0.00    +0.000 A 
ATOM      3  C   UNL     1      48.767   7.260  13.585  0.00  0.00    +0.000 A 
ATOM      4  C   UNL     1      47.630   6.497  13.231  0.00  0.00    +0.000 A 
ATOM      5  C   UNL     1      46.681   6.564  12.194  0.00  0.00    +0.000 A 
ATOM      6  C   UNL     1      45.629   5.633  12.171  0.00  0.00    +0.000 A 
ATOM      7  C   UNL     1      45.687   4.520  13.038  0.00  0.00    +0.000 A 
ATOM      8  C   UNL     1      46.627   4.439  14.072  0.00  0.00    +0.000 A 
ATOM      9  C   UNL     1      47.485   5.531  14.231  0.00  0.00    +0.000 A 
ENDROOT
BRANCH   1  10
ATOM     10  C   UNL     1      48.256   5.448  16.651  0.00  0.00    +0.000 C 
BRANCH  10  14
ATOM     11  C   UNL     1      50.994   2.169  17.489  0.00  0.00    +0.000 A 
ATOM     12  C   UNL     1      51.369   3.491  17.748  0.00  0.00    +0.000 A 
ATOM     13  C   UNL     1      50.508   4.563  17.454  0.00  0.00    +0.000 A 
ATOM     14  C   UNL     1      49.243   4.331  16.896  0.00  0.00    +0.000 A 
ATOM     15  C   UNL     1      48.857   3.008  16.654  0.00  0.00    +0.000 A 
ATOM     16  C   UNL     1      49.726   1.948  16.952  0.00  0.00    +0.000 A 
BRANCH  11  17
ATOM     17  C   UNL     1      51.929   1.011  17.746  0.00  0.00    +0.000 C 
BRANCH  17  18
ATOM     18  N   UNL     1      53.052   1.372  18.605  0.00  0.00    +0.000 NA
ATOM     19  H   UNL     1      53.247   0.595  19.233  0.00  0.00    +0.000 HD
ATOM     20  H   UNL     1      52.773   2.153  19.198  0.00  0.00    +0.000 HD
ENDBRANCH  17  18
ENDBRANCH  11  17
ENDBRANCH  10  14
ENDBRANCH   1  10
BRANCH   6  21
ATOM     21  C   UNL     1      44.407   5.861  11.324  0.00  0.00    +0.000 C 
BRANCH  21  22
ATOM     22  O   UNL     1      43.748   7.057  11.671  0.00  0.00    +0.000 OA
ATOM     23  H   UNL     1      42.894   7.045  11.210  0.00  0.00    +0.000 HD
ENDBRANCH  21  22
ENDBRANCH   6  21
TORSDOF 6
ENDMDL
MODEL 8
REMARK VINA RESULT:    -5.560      3.531      6.601
REMARK INTER + INTRA:          -7.457
REMARK INTER:                  -6.964
REMARK INTRA:                  -0.493
REMARK UNBOUND:                -0.272
REMARK  Name = 
REMARK  6 active torsions:
REMARK  status: ('A' for Active; 'I' for Inactive)
REMARK    1  A    between atoms: N_1  and  C_2
REMARK    2  A    between atoms: C_2  and  C_3
REMARK    3  A    between atoms: C_6  and  C_7
REMARK    4  A    between atoms: C_7  and  N_8
REMARK    5  A    between atoms: C_13  and  C_14
REMARK    6  A    between atoms: C_14  and  O_15
REMARK                            x       y       z     vdW  Elec       q    Type
REMARK                         _______ _______ _______ _____ _____    ______ ____
ROOT
ATOM      1  N   UNL     1      46.266   6.453  13.084  0.00  0.00    +0.000 N 
ATOM      2  C   UNL     1      47.042   5.621  13.858  0.00  0.00    +0.000 A 
ATOM      3  C   UNL     1      46.343   4.444  13.969  0.00  0.00    +0.000 A 
ATOM      4  C   UNL     1      45.673   4.347  12.727  0.00  0.00    +0.000 A 
ATOM      5  C   UNL     1      45.294   3.281  11.891  0.00  0.00    +0.000 A 
ATOM      6  C   UNL     1      44.653   3.563  10.674  0.00  0.00    +0.000 A 
ATOM      7  C   UNL     1      44.193   4.877  10.436  0.00  0.00    +0.000 A 
ATOM      8  C   UNL     1      44.560   5.947  11.261  0.00  0.00    +0.000 A 
ATOM      9  C   UNL     1      45.435   5.661  12.313  0.00  0.00    +0.000 A 
ENDROOT
BRANCH   1  10
ATOM     10  C   UNL     1      46.575   7.862  12.871  0.00  0.00    +0.000 C 
BRANCH  10  14
ATOM     11  C   UNL     1      50.844   8.539  12.361  0.00  0.00    +0.000 A 
ATOM     12  C   UNL     1      50.179   9.022  13.492  0.00  0.00    +0.000 A 
ATOM     13  C   UNL     1      48.795   8.838  13.656  0.00  0.00    +0.000 A 
ATOM     14  C   UNL     1      48.044   8.158  12.687  0.00  0.00    +0.000 A 
ATOM     15  C   UNL     1      48.710   7.656  11.563  0.00  0.00    +0.000 A 
ATOM     16  C   UNL     1      50.091   7.847  11.411  0.00  0.00    +0.000 A 
BRANCH  11  17
ATOM     17  C   UNL     1      52.319   8.778  12.142  0.00  0.00    +0.000 C 
BRANCH  17  18
ATOM     18  N   UNL     1      53.156   7.779  12.797  0.00  0.00    +0.000 NA
ATOM     19  H   UNL     1      54.084   8.173  12.944  0.00  0.00    +0.000 HD
ATOM     20  H   UNL     1      53.281   6.990  12.164  0.00  0.00    +0.000 HD
ENDBRANCH  17  18
ENDBRANCH  11  17
ENDBRANCH  10  14
ENDBRANCH   1  10
BRANCH   6  21
ATOM     21  C   UNL     1      44.547   2.525   9.591  0.00  0.00    +0.000 C 
BRANCH  21  22
ATOM     22  O   UNL     1      44.231   3.102   8.345  0.00  0.00    +0.000 OA
ATOM     23  H   UNL     1      44.932   3.744   8.153  0.00  0.00    +0.000 HD
ENDBRANCH  21  22
ENDBRANCH   6  21
TORSDOF 6
ENDMDL
MODEL 9
REMARK VINA RESULT:    -5.448      3.100      7.172
REMARK INTER + INTRA:          -7.313
REMARK INTER:                  -6.985
REMARK INTRA:                  -0.328
REMARK UNBOUND:                -0.272
REMARK  Name = 
REMARK  6 active torsions:
REMARK  status: ('A' for Active; 'I' for Inactive)
REMARK    1  A    between atoms: N_1  and  C_2
REMARK    2  A    between atoms: C_2  and  C_3
REMARK    3  A    between atoms: C_6  and  C_7
REMARK    4  A    between atoms: C_7  and  N_8
REMARK    5  A    between atoms: C_13  and  C_14
REMARK    6  A    between atoms: C_14  and  O_15
REMARK                            x       y       z     vdW  Elec       q    Type
REMARK                         _______ _______ _______ _____ _____    ______ ____
ROOT
ATOM      1  N   UNL     1      45.705   6.107  11.793  0.00  0.00    +0.000 N 
ATOM      2  C   UNL     1      45.333   5.543  12.992  0.00  0.00    +0.000 A 
ATOM      3  C   UNL     1      44.280   4.707  12.709  0.00  0.00    +0.000 A 
ATOM      4  C   UNL     1      44.584   4.233  11.411  0.00  0.00    +0.000 A 
ATOM      5  C   UNL     1      44.375   3.019  10.731  0.00  0.00    +0.000 A 
ATOM      6  C   UNL     1      44.857   2.881   9.418  0.00  0.00    +0.000 A 
ATOM      7  C   UNL     1      45.316   4.030   8.739  0.00  0.00    +0.000 A 
ATOM      8  C   UNL     1      45.526   5.245   9.402  0.00  0.00    +0.000 A 
ATOM      9  C   UNL     1      45.295   5.258  10.781  0.00  0.00    +0.000 A 
ENDROOT
BRANCH   1  10
ATOM     10  C   UNL     1      46.680   7.186  11.688  0.00  0.00    +0.000 C 
BRANCH  10  14
ATOM     11  C   UNL     1      48.991   8.091  15.264  0.00  0.00    +0.000 A 
ATOM     12  C   UNL     1      49.298   6.971  14.485  0.00  0.00    +0.000 A 
ATOM     13  C   UNL     1      48.541   6.649  13.345  0.00  0.00    +0.000 A 
ATOM     14  C   UNL     1      47.458   7.449  12.955  0.00  0.00    +0.000 A 
ATOM     15  C   UNL     1      47.161   8.582  13.722  0.00  0.00    +0.000 A 
ATOM     16  C   UNL     1      47.924   8.892  14.857  0.00  0.00    +0.000 A 
BRANCH  11  17
ATOM     17  C   UNL     1      49.758   8.420  16.523  0.00  0.00    +0.000 C 
BRANCH  17  18
ATOM     18  N   UNL     1      50.215   7.230  17.232  0.00  0.00    +0.000 NA
ATOM     19  H   UNL     1      49.407   6.751  17.626  0.00  0.00    +0.000 HD
ATOM     20  H   UNL     1      50.786   7.520  18.026  0.00  0.00    +0.000 HD
ENDBRANCH  17  18
ENDBRANCH  11  17
ENDBRANCH  10  14
ENDBRANCH   1  10
BRANCH   6  21
ATOM     21  C   UNL     1      44.987   1.528   8.775  0.00  0.00    +0.000 C 
BRANCH  21  22
ATOM     22  O   UNL     1      46.306   1.280   8.346  0.00  0.00    +0.000 OA
ATOM     23  H   UNL     1      46.890   1.747   8.965  0.00  0.00    +0.000 HD
ENDBRANCH  21  22
ENDBRANCH   6  21
TORSDOF 6
ENDMDL
