MODEL 1
REMARK VINA RESULT:    -8.842      0.000      0.000
REMARK INTER + INTRA:         -12.427
REMARK INTER:                 -11.426
REMARK INTRA:                  -1.001
REMARK UNBOUND:                -1.001
REMARK  Name = 
REMARK  6 active torsions:
REMARK  status: ('A' for Active; 'I' for Inactive)
REMARK    1  A    between atoms: C_1  and  C_2
REMARK    2  A    between atoms: C_2  and  C_3
REMARK    3  A    between atoms: C_7  and  C_8
REMARK    4  A    between atoms: C_8  and  C_9
REMARK    5  A    between atoms: C_9  and  N_10
REMARK    6  A    between atoms: C_14  and  C_15
REMARK                            x       y       z     vdW  Elec       q    Type
REMARK                         _______ _______ _______ _____ _____    ______ ____
ROOT
ATOM      1  C   UNL     1      47.016   6.848  12.844  0.00  0.00    +0.000 A 
ATOM      2  C   UNL     1      47.582   5.797  13.591  0.00  0.00    +0.000 A 
ATOM      3  C   UNL     1      46.863   4.632  13.873  0.00  0.00    +0.000 A 
ATOM      4  C   UNL     1      45.558   4.485  13.413  0.00  0.00    +0.000 A 
ATOM      5  C   UNL     1      44.971   5.495  12.650  0.00  0.00    +0.000 A 
ATOM      6  C   UNL     1      45.708   6.660  12.364  0.00  0.00    +0.000 A 
ENDROOT
BRANCH   1   8
ATOM      7  C   UNL     1      48.910   7.889  11.623  0.00  0.00    +0.000 C 
ATOM      8  C   UNL     1      47.790   8.178  12.657  0.00  0.00    +0.000 C 
ATOM      9  C   UNL     1      46.842   9.291  12.132  0.00  0.00    +0.000 C 
ATOM     10  C   UNL     1      47.524  10.661  12.021  0.00  0.00    +0.000 C 
ATOM     11  N   UNL     1      48.130  11.099  13.278  0.00  0.00    +0.000 NA
ATOM     12  C   UNL     1      49.084  10.102  13.784  0.00  0.00    +0.000 C 
ATOM     13  C   UNL     1      48.445   8.717  13.962  0.00  0.00    +0.000 C 
ATOM     14  F   UNL     1      47.477   8.861  14.923  0.00  0.00    +0.000 F 
ATOM     15  H   UNL     1      47.387  11.194  13.977  0.00  0.00    +0.000 HD
ENDBRANCH   1   8
BRANCH   5  16
ATOM     16  C   UNL     1      43.519   5.401  12.234  0.00  0.00    +0.000 C 
BRANCH  16  17
ATOM     17  C   UNL     1      43.364   4.310  11.167  0.00  0.00    +0.000 C 
BRANCH  17  18
ATOM     18  N   UNL     1      43.750   4.784   9.844  0.00  0.00    +0.000 N 
ATOM     19  C   UNL     1      44.674   4.013   9.144  0.00  0.00    +0.000 A 
ATOM     20  C   UNL     1      44.693   2.611   9.160  0.00  0.00    +0.000 A 
ATOM     21  N   UNL     1      45.580   1.846   8.474  0.00  0.00    +0.000 NA
ATOM     22  C   UNL     1      46.454   2.554   7.712  0.00  0.00    +0.000 A 
ATOM     23  C   UNL     1      46.437   3.939   7.657  0.00  0.00    +0.000 A 
ATOM     24  N   UNL     1      45.555   4.689   8.377  0.00  0.00    +0.000 NA
ATOM     25  H   UNL     1      44.066   5.751   9.789  0.00  0.00    +0.000 HD
BRANCH  22  26
ATOM     26  C   UNL     1      47.458   1.777   6.937  0.00  0.00    +0.000 C 
ATOM     27  N   UNL     1      48.517   2.502   6.458  0.00  0.00    +0.000 N 
ATOM     28  O   UNL     1      47.347   0.576   6.738  0.00  0.00    +0.000 OA
ATOM     29  H   UNL     1      48.572   3.499   6.641  0.00  0.00    +0.000 HD
ATOM     30  H   UNL     1      49.237   2.043   5.917  0.00  0.00    +0.000 HD
ENDBRANCH  22  26
ENDBRANCH  17  18
ENDBRANCH  16  17
ENDBRANCH   5  16
TORSDOF 5
ENDMDL
MODEL 2
REMARK VINA RESULT:    -8.451      1.281      1.734
REMARK INTER + INTRA:         -11.923
REMARK INTER:                 -10.943
REMARK INTRA:                  -0.980
REMARK UNBOUND:                -1.001
REMARK  Name = 
REMARK  6 active torsions:
REMARK  status: ('A' for Active; 'I' for Inactive)
REMARK    1  A    between atoms: C_1  and  C_2
REMARK    2  A    between atoms: C_2  and  C_3
REMARK    3  A    between atoms: C_7  and  C_8
REMARK    4  A    between atoms: C_8  and  C_9
REMARK    5  A    between atoms: C_9  and  N_10
REMARK    6  A    between atoms: C_14  and  C_15
REMARK                            x       y       z     vdW  Elec       q    Type
REMARK                         _______ _______ _______ _____ _____    ______ ____
ROOT
ATOM      1  C   UNL     1      47.317   6.946  12.910  0.00  0.00    +0.000 A 
ATOM      2  C   UNL     1      47.652   5.848  13.725  0.00  0.00    +0.000 A 
ATOM      3  C   UNL     1      46.760   4.792  13.932  0.00  0.00    +0.000 A 
ATOM      4  C   UNL     1      45.508   4.805  13.327  0.00  0.00    +0.000 A 
ATOM      5  C   UNL     1      45.147   5.864  12.493  0.00  0.00    +0.000 A 
ATOM      6  C   UNL     1      46.058   6.918  12.285  0.00  0.00    +0.000 A 
ENDROOT
BRANCH   1   8
ATOM      7  C   UNL     1      47.372   9.418  12.692  0.00  0.00    +0.000 C 
ATOM      8  C   UNL     1      48.274   8.160  12.802  0.00  0.00    +0.000 C 
ATOM      9  C   UNL     1      49.181   8.254  14.060  0.00  0.00    +0.000 C 
ATOM     10  C   UNL     1      50.222   9.377  13.971  0.00  0.00    +0.000 C 
ATOM     11  N   UNL     1      51.063   9.280  12.779  0.00  0.00    +0.000 NA
ATOM     12  C   UNL     1      50.249   9.252  11.555  0.00  0.00    +0.000 C 
ATOM     13  C   UNL     1      49.218   8.115  11.565  0.00  0.00    +0.000 C 
ATOM     14  F   UNL     1      49.934   6.945  11.590  0.00  0.00    +0.000 F 
ATOM     15  H   UNL     1      51.583   8.399  12.822  0.00  0.00    +0.000 HD
ENDBRANCH   1   8
BRANCH   5  16
ATOM     16  C   UNL     1      43.751   5.950  11.914  0.00  0.00    +0.000 C 
BRANCH  16  17
ATOM     17  C   UNL     1      43.479   4.708  11.057  0.00  0.00    +0.000 C 
BRANCH  17  18
ATOM     18  N   UNL     1      43.793   4.937   9.652  0.00  0.00    +0.000 N 
ATOM     19  C   UNL     1      44.679   4.047   9.052  0.00  0.00    +0.000 A 
ATOM     20  C   UNL     1      44.702   2.670   9.315  0.00  0.00    +0.000 A 
ATOM     21  N   UNL     1      45.552   1.789   8.729  0.00  0.00    +0.000 NA
ATOM     22  C   UNL     1      46.383   2.345   7.809  0.00  0.00    +0.000 A 
ATOM     23  C   UNL     1      46.361   3.698   7.510  0.00  0.00    +0.000 A 
ATOM     24  N   UNL     1      45.517   4.570   8.132  0.00  0.00    +0.000 NA
ATOM     25  H   UNL     1      44.104   5.877   9.410  0.00  0.00    +0.000 HD
BRANCH  22  26
ATOM     26  C   UNL     1      47.346   1.435   7.132  0.00  0.00    +0.000 C 
ATOM     27  N   UNL     1      48.493   2.030   6.676  0.00  0.00    +0.000 N 
ATOM     28  O   UNL     1      47.130   0.240   6.988  0.00  0.00    +0.000 OA
ATOM     29  H   UNL     1      48.634   3.026   6.811  0.00  0.00    +0.000 HD
ATOM     30  H   UNL     1      49.191   1.476   6.201  0.00  0.00    +0.000 HD
ENDBRANCH  22  26
ENDBRANCH  17  18
ENDBRANCH  16  17
ENDBRANCH   5  16
TORSDOF 5
ENDMDL
MODEL 3
REMARK VINA RESULT:    -8.106      1.812      2.668
REMARK INTER + INTRA:         -11.476
REMARK INTER:                 -11.030
REMARK INTRA:                  -0.446
REMARK UNBOUND:                -1.001
REMARK  Name = 
REMARK  6 active torsions:
REMARK  status: ('A' for Active; 'I' for Inactive)
REMARK    1  A    between atoms: C_1  and  C_2
REMARK    2  A    between atoms: C_2  and  C_3
REMARK    3  A    between atoms: C_7  and  C_8
REMARK    4  A    between atoms: C_8  and  C_9
REMARK    5  A    between atoms: C_9  and  N_10
REMARK    6  A    between atoms: C_14  and  C_15
REMARK                            x       y       z     vdW  Elec       q    Type
REMARK                         _______ _______ _______ _____ _____    ______ ____
ROOT
ATOM      1  C   UNL     1      46.917   7.636  13.291  0.00  0.00    +0.000 A 
ATOM      2  C   UNL     1      46.300   8.713  12.626  0.00  0.00    +0.000 A 
ATOM      3  C   UNL     1      45.211   8.518  11.771  0.00  0.00    +0.000 A 
ATOM      4  C   UNL     1      44.707   7.239  11.560  0.00  0.00    +0.000 A 
ATOM      5  C   UNL     1      45.277   6.149  12.219  0.00  0.00    +0.000 A 
ATOM      6  C   UNL     1      46.367   6.359  13.084  0.00  0.00    +0.000 A 
ENDROOT
BRANCH   1   8
ATOM      7  C   UNL     1      47.943   9.138  14.979  0.00  0.00    +0.000 C 
ATOM      8  C   UNL     1      48.200   7.866  14.128  0.00  0.00    +0.000 C 
ATOM      9  C   UNL     1      48.477   6.646  15.049  0.00  0.00    +0.000 C 
ATOM     10  C   UNL     1      49.791   6.767  15.833  0.00  0.00    +0.000 C 
ATOM     11  N   UNL     1      50.950   6.990  14.969  0.00  0.00    +0.000 NA
ATOM     12  C   UNL     1      50.760   8.175  14.120  0.00  0.00    +0.000 C 
ATOM     13  C   UNL     1      49.482   8.090  13.274  0.00  0.00    +0.000 C 
ATOM     14  F   UNL     1      49.650   7.021  12.430  0.00  0.00    +0.000 F 
ATOM     15  H   UNL     1      51.049   6.182  14.349  0.00  0.00    +0.000 HD
ENDBRANCH   1   8
BRANCH   5  16
ATOM     16  C   UNL     1      44.814   4.739  11.918  0.00  0.00    +0.000 C 
BRANCH  16  17
ATOM     17  C   UNL     1      43.539   4.792  11.068  0.00  0.00    +0.000 C 
BRANCH  17  18
ATOM     18  N   UNL     1      43.838   4.906   9.646  0.00  0.00    +0.000 N 
ATOM     19  C   UNL     1      44.655   3.924   9.093  0.00  0.00    +0.000 A 
ATOM     20  C   UNL     1      44.598   2.569   9.449  0.00  0.00    +0.000 A 
ATOM     21  N   UNL     1      45.379   1.599   8.909  0.00  0.00    +0.000 NA
ATOM     22  C   UNL     1      46.223   2.039   7.941  0.00  0.00    +0.000 A 
ATOM     23  C   UNL     1      46.279   3.367   7.551  0.00  0.00    +0.000 A 
ATOM     24  N   UNL     1      45.504   4.331   8.126  0.00  0.00    +0.000 NA
ATOM     25  H   UNL     1      44.201   5.806   9.336  0.00  0.00    +0.000 HD
BRANCH  22  26
ATOM     26  C   UNL     1      47.114   1.027   7.311  0.00  0.00    +0.000 C 
ATOM     27  N   UNL     1      46.843  -0.276   7.638  0.00  0.00    +0.000 N 
ATOM     28  O   UNL     1      48.026   1.333   6.556  0.00  0.00    +0.000 OA
ATOM     29  H   UNL     1      46.080  -0.490   8.272  0.00  0.00    +0.000 HD
ATOM     30  H   UNL     1      47.410  -1.019   7.253  0.00  0.00    +0.000 HD
ENDBRANCH  22  26
ENDBRANCH  17  18
ENDBRANCH  16  17
ENDBRANCH   5  16
TORSDOF 5
ENDMDL
MODEL 4
REMARK VINA RESULT:    -7.251      4.060      7.584
REMARK INTER + INTRA:         -10.372
REMARK INTER:                  -9.524
REMARK INTRA:                  -0.848
REMARK UNBOUND:                -1.001
REMARK  Name = 
REMARK  6 active torsions:
REMARK  status: ('A' for Active; 'I' for Inactive)
REMARK    1  A    between atoms: C_1  and  C_2
REMARK    2  A    between atoms: C_2  and  C_3
REMARK    3  A    between atoms: C_7  and  C_8
REMARK    4  A    between atoms: C_8  and  C_9
REMARK    5  A    between atoms: C_9  and  N_10
REMARK    6  A    between atoms: C_14  and  C_15
REMARK                            x       y       z     vdW  Elec       q    Type
REMARK                         _______ _______ _______ _____ _____    ______ ____
ROOT
ATOM      1  C   UNL     1      45.246   6.808  11.635  0.00  0.00    +0.000 A 
ATOM      2  C   UNL     1      44.607   8.057  11.758  0.00  0.00    +0.000 A 
ATOM      3  C   UNL     1      45.327   9.222  12.038  0.00  0.00    +0.000 A 
ATOM      4  C   UNL     1      46.707   9.171  12.200  0.00  0.00    +0.000 A 
ATOM      5  C   UNL     1      47.380   7.956  12.064  0.00  0.00    +0.000 A 
ATOM      6  C   UNL     1      46.645   6.790  11.772  0.00  0.00    +0.000 A 
ENDROOT
BRANCH   1   8
ATOM      7  C   UNL     1      42.938   5.974  11.267  0.00  0.00    +0.000 C 
ATOM      8  C   UNL     1      44.409   5.517  11.452  0.00  0.00    +0.000 C 
ATOM      9  C   UNL     1      44.892   4.725  10.206  0.00  0.00    +0.000 C 
ATOM     10  C   UNL     1      44.170   3.384  10.027  0.00  0.00    +0.000 C 
ATOM     11  N   UNL     1      44.263   2.525  11.207  0.00  0.00    +0.000 NA
ATOM     12  C   UNL     1      43.758   3.212  12.405  0.00  0.00    +0.000 C 
ATOM     13  C   UNL     1      44.478   4.542  12.664  0.00  0.00    +0.000 C 
ATOM     14  F   UNL     1      45.790   4.228  12.913  0.00  0.00    +0.000 F 
ATOM     15  H   UNL     1      45.250   2.309  11.371  0.00  0.00    +0.000 HD
ENDBRANCH   1   8
BRANCH   5  16
ATOM     16  C   UNL     1      48.865   7.860  12.344  0.00  0.00    +0.000 C 
BRANCH  16  17
ATOM     17  C   UNL     1      49.135   8.272  13.796  0.00  0.00    +0.000 C 
BRANCH  17  18
ATOM     18  N   UNL     1      50.007   7.323  14.477  0.00  0.00    +0.000 N 
ATOM     19  C   UNL     1      49.392   6.370  15.284  0.00  0.00    +0.000 A 
ATOM     20  C   UNL     1      48.180   5.741  14.965  0.00  0.00    +0.000 A 
ATOM     21  N   UNL     1      47.576   4.801  15.735  0.00  0.00    +0.000 NA
ATOM     22  C   UNL     1      48.267   4.472  16.857  0.00  0.00    +0.000 A 
ATOM     23  C   UNL     1      49.480   5.058  17.180  0.00  0.00    +0.000 A 
ATOM     24  N   UNL     1      50.057   6.021  16.406  0.00  0.00    +0.000 NA
ATOM     25  H   UNL     1      50.770   7.726  15.020  0.00  0.00    +0.000 HD
BRANCH  22  26
ATOM     26  C   UNL     1      47.656   3.450  17.750  0.00  0.00    +0.000 C 
ATOM     27  N   UNL     1      48.338   3.208  18.914  0.00  0.00    +0.000 N 
ATOM     28  O   UNL     1      46.620   2.865  17.468  0.00  0.00    +0.000 OA
ATOM     29  H   UNL     1      49.196   3.711  19.112  0.00  0.00    +0.000 HD
ATOM     30  H   UNL     1      47.987   2.523  19.569  0.00  0.00    +0.000 HD
ENDBRANCH  22  26
ENDBRANCH  17  18
ENDBRANCH  16  17
ENDBRANCH   5  16
TORSDOF 5
ENDMDL
MODEL 5
REMARK VINA RESULT:    -6.548      4.288      6.327
REMARK INTER + INTRA:          -9.462
REMARK INTER:                  -8.438
REMARK INTRA:                  -1.025
REMARK UNBOUND:                -1.001
REMARK  Name = 
REMARK  6 active torsions:
REMARK  status: ('A' for Active; 'I' for Inactive)
REMARK    1  A    between atoms: C_1  and  C_2
REMARK    2  A    between atoms: C_2  and  C_3
REMARK    3  A    between atoms: C_7  and  C_8
REMARK    4  A    between atoms: C_8  and  C_9
REMARK    5  A    between atoms: C_9  and  N_10
REMARK    6  A    between atoms: C_14  and  C_15
REMARK                            x       y       z     vdW  Elec       q    Type
REMARK                         _______ _______ _______ _____ _____    ______ ____
ROOT
ATOM      1  C   UNL     1      48.791   6.947  17.272  0.00  0.00    +0.000 A 
ATOM      2  C   UNL     1      48.296   8.083  17.941  0.00  0.00    +0.000 A 
ATOM      3  C   UNL     1      48.086   9.292  17.271  0.00  0.00    +0.000 A 
ATOM      4  C   UNL     1      48.362   9.397  15.912  0.00  0.00    +0.000 A 
ATOM      5  C   UNL     1      48.832   8.287  15.209  0.00  0.00    +0.000 A 
ATOM      6  C   UNL     1      49.032   7.072  15.892  0.00  0.00    +0.000 A 
ENDROOT
BRANCH   1   8
ATOM      7  C   UNL     1      50.591   5.287  17.678  0.00  0.00    +0.000 C 
ATOM      8  C   UNL     1      49.136   5.662  18.065  0.00  0.00    +0.000 C 
ATOM      9  C   UNL     1      49.032   5.919  19.594  0.00  0.00    +0.000 C 
ATOM     10  C   UNL     1      49.264   4.658  20.435  0.00  0.00    +0.000 C 
ATOM     11  N   UNL     1      48.370   3.559  20.072  0.00  0.00    +0.000 NA
ATOM     12  C   UNL     1      48.479   3.236  18.642  0.00  0.00    +0.000 C 
ATOM     13  C   UNL     1      48.209   4.453  17.745  0.00  0.00    +0.000 C 
ATOM     14  F   UNL     1      46.905   4.815  17.970  0.00  0.00    +0.000 F 
ATOM     15  H   UNL     1      47.406   3.857  20.246  0.00  0.00    +0.000 HD
ENDBRANCH   1   8
BRANCH   5  16
ATOM     16  C   UNL     1      49.242   8.410  13.756  0.00  0.00    +0.000 C 
BRANCH  16  17
ATOM     17  C   UNL     1      48.743   7.186  12.981  0.00  0.00    +0.000 C 
BRANCH  17  18
ATOM     18  N   UNL     1      47.394   7.381  12.464  0.00  0.00    +0.000 N 
ATOM     19  C   UNL     1      46.592   6.249  12.354  0.00  0.00    +0.000 A 
ATOM     20  C   UNL     1      46.585   5.202  13.288  0.00  0.00    +0.000 A 
ATOM     21  N   UNL     1      45.800   4.099  13.199  0.00  0.00    +0.000 NA
ATOM     22  C   UNL     1      44.964   4.094  12.129  0.00  0.00    +0.000 A 
ATOM     23  C   UNL     1      44.931   5.129  11.208  0.00  0.00    +0.000 A 
ATOM     24  N   UNL     1      45.749   6.216  11.300  0.00  0.00    +0.000 NA
ATOM     25  H   UNL     1      47.322   7.885  11.581  0.00  0.00    +0.000 HD
BRANCH  22  26
ATOM     26  C   UNL     1      44.078   2.909  11.969  0.00  0.00    +0.000 C 
ATOM     27  N   UNL     1      44.075   2.345  10.720  0.00  0.00    +0.000 N 
ATOM     28  O   UNL     1      43.399   2.468  12.885  0.00  0.00    +0.000 OA
ATOM     29  H   UNL     1      44.650   2.741   9.984  0.00  0.00    +0.000 HD
ATOM     30  H   UNL     1      43.493   1.540  10.534  0.00  0.00    +0.000 HD
ENDBRANCH  22  26
ENDBRANCH  17  18
ENDBRANCH  16  17
ENDBRANCH   5  16
TORSDOF 5
ENDMDL
MODEL 6
REMARK VINA RESULT:    -6.399      4.101      7.608
REMARK INTER + INTRA:          -9.270
REMARK INTER:                  -7.998
REMARK INTRA:                  -1.271
REMARK UNBOUND:                -1.001
REMARK  Name = 
REMARK  6 active torsions:
REMARK  status: ('A' for Active; 'I' for Inactive)
REMARK    1  A    between atoms: C_1  and  C_2
REMARK    2  A    between atoms: C_2  and  C_3
REMARK    3  A    between atoms: C_7  and  C_8
REMARK    4  A    between atoms: C_8  and  C_9
REMARK    5  A    between atoms: C_9  and  N_10
REMARK    6  A    between atoms: C_14  and  C_15
REMARK                            x       y       z     vdW  Elec       q    Type
REMARK                         _______ _______ _______ _____ _____    ______ ____
ROOT
ATOM      1  C   UNL     1      47.310   7.424  12.596  0.00  0.00    +0.000 A 
ATOM      2  C   UNL     1      48.346   7.541  11.650  0.00  0.00    +0.000 A 
ATOM      3  C   UNL     1      49.492   8.299  11.911  0.00  0.00    +0.000 A 
ATOM      4  C   UNL     1      49.634   8.958  13.127  0.00  0.00    +0.000 A 
ATOM      5  C   UNL     1      48.639   8.848  14.100  0.00  0.00    +0.000 A 
ATOM      6  C   UNL     1      47.494   8.074  13.829  0.00  0.00    +0.000 A 
ENDROOT
BRANCH   1   8
ATOM      7  C   UNL     1      44.892   7.772  12.156  0.00  0.00    +0.000 C 
ATOM      8  C   UNL     1      45.998   6.685  12.230  0.00  0.00    +0.000 C 
ATOM      9  C   UNL     1      46.141   5.965  10.861  0.00  0.00    +0.000 C 
ATOM     10  C   UNL     1      44.909   5.130  10.488  0.00  0.00    +0.000 C 
ATOM     11  N   UNL     1      44.554   4.149  11.512  0.00  0.00    +0.000 NA
ATOM     12  C   UNL     1      44.347   4.794  12.816  0.00  0.00    +0.000 C 
ATOM     13  C   UNL     1      45.568   5.608  13.268  0.00  0.00    +0.000 C 
ATOM     14  F   UNL     1      46.591   4.708  13.430  0.00  0.00    +0.000 F 
ATOM     15  H   UNL     1      45.333   3.494  11.615  0.00  0.00    +0.000 HD
ENDBRANCH   1   8
BRANCH   5  16
ATOM     16  C   UNL     1      48.724   9.644  15.384  0.00  0.00    +0.000 C 
BRANCH  16  17
ATOM     17  C   UNL     1      49.910   9.144  16.216  0.00  0.00    +0.000 C 
BRANCH  17  18
ATOM     18  N   UNL     1      49.477   8.490  17.444  0.00  0.00    +0.000 N 
ATOM     19  C   UNL     1      49.054   7.168  17.339  0.00  0.00    +0.000 A 
ATOM     20  C   UNL     1      49.651   6.222  16.495  0.00  0.00    +0.000 A 
ATOM     21  N   UNL     1      49.257   4.927  16.391  0.00  0.00    +0.000 NA
ATOM     22  C   UNL     1      48.234   4.588  17.217  0.00  0.00    +0.000 A 
ATOM     23  C   UNL     1      47.646   5.497  18.081  0.00  0.00    +0.000 A 
ATOM     24  N   UNL     1      48.038   6.801  18.149  0.00  0.00    +0.000 NA
ATOM     25  H   UNL     1      48.774   8.986  17.991  0.00  0.00    +0.000 HD
BRANCH  22  26
ATOM     26  C   UNL     1      47.749   3.183  17.149  0.00  0.00    +0.000 C 
ATOM     27  N   UNL     1      48.625   2.287  16.595  0.00  0.00    +0.000 N 
ATOM     28  O   UNL     1      46.645   2.849  17.557  0.00  0.00    +0.000 OA
ATOM     29  H   UNL     1      49.531   2.603  16.265  0.00  0.00    +0.000 HD
ATOM     30  H   UNL     1      48.362   1.315  16.510  0.00  0.00    +0.000 HD
ENDBRANCH  22  26
ENDBRANCH  17  18
ENDBRANCH  16  17
ENDBRANCH   5  16
TORSDOF 5
ENDMDL
MODEL 7
REMARK VINA RESULT:    -6.235      4.099      6.461
REMARK INTER + INTRA:          -9.058
REMARK INTER:                  -8.076
REMARK INTRA:                  -0.983
REMARK UNBOUND:                -1.001
REMARK  Name = 
REMARK  6 active torsions:
REMARK  status: ('A' for Active; 'I' for Inactive)
REMARK    1  A    between atoms: C_1  and  C_2
REMARK    2  A    between atoms: C_2  and  C_3
REMARK    3  A    between atoms: C_7  and  C_8
REMARK    4  A    between atoms: C_8  and  C_9
REMARK    5  A    between atoms: C_9  and  N_10
REMARK    6  A    between atoms: C_14  and  C_15
REMARK                            x       y       z     vdW  Elec       q    Type
REMARK                         _______ _______ _______ _____ _____    ______ ____
ROOT
ATOM      1  C   UNL     1      49.954   6.405  16.521  0.00  0.00    +0.000 A 
ATOM      2  C   UNL     1      51.301   6.533  16.914  0.00  0.00    +0.000 A 
ATOM      3  C   UNL     1      52.233   7.208  16.121  0.00  0.00    +0.000 A 
ATOM      4  C   UNL     1      51.844   7.775  14.912  0.00  0.00    +0.000 A 
ATOM      5  C   UNL     1      50.513   7.690  14.499  0.00  0.00    +0.000 A 
ATOM      6  C   UNL     1      49.581   7.015  15.311  0.00  0.00    +0.000 A 
ENDROOT
BRANCH   1   8
ATOM      7  C   UNL     1      48.259   6.515  18.330  0.00  0.00    +0.000 C 
ATOM      8  C   UNL     1      48.975   5.542  17.357  0.00  0.00    +0.000 C 
ATOM      9  C   UNL     1      47.940   4.842  16.433  0.00  0.00    +0.000 C 
ATOM     10  C   UNL     1      47.003   3.892  17.190  0.00  0.00    +0.000 C 
ATOM     11  N   UNL     1      47.721   2.879  17.962  0.00  0.00    +0.000 NA
ATOM     12  C   UNL     1      48.671   3.498  18.897  0.00  0.00    +0.000 C 
ATOM     13  C   UNL     1      49.669   4.426  18.190  0.00  0.00    +0.000 C 
ATOM     14  F   UNL     1      50.405   3.630  17.350  0.00  0.00    +0.000 F 
ATOM     15  H   UNL     1      48.263   2.303  17.312  0.00  0.00    +0.000 HD
ENDBRANCH   1   8
BRANCH   5  16
ATOM     16  C   UNL     1      50.094   8.205  13.139  0.00  0.00    +0.000 C 
BRANCH  16  17
ATOM     17  C   UNL     1      49.185   7.173  12.462  0.00  0.00    +0.000 C 
BRANCH  17  18
ATOM     18  N   UNL     1      47.834   7.683  12.264  0.00  0.00    +0.000 N 
ATOM     19  C   UNL     1      46.798   6.755  12.296  0.00  0.00    +0.000 A 
ATOM     20  C   UNL     1      46.757   5.661  13.173  0.00  0.00    +0.000 A 
ATOM     21  N   UNL     1      45.748   4.754  13.224  0.00  0.00    +0.000 NA
ATOM     22  C   UNL     1      44.727   5.008  12.366  0.00  0.00    +0.000 A 
ATOM     23  C   UNL     1      44.730   6.098  11.511  0.00  0.00    +0.000 A 
ATOM     24  N   UNL     1      45.767   6.982  11.455  0.00  0.00    +0.000 NA
ATOM     25  H   UNL     1      47.691   8.261  11.436  0.00  0.00    +0.000 HD
BRANCH  22  26
ATOM     26  C   UNL     1      43.590   4.049  12.367  0.00  0.00    +0.000 C 
ATOM     27  N   UNL     1      42.470   4.467  11.697  0.00  0.00    +0.000 N 
ATOM     28  O   UNL     1      43.646   2.964  12.929  0.00  0.00    +0.000 OA
ATOM     29  H   UNL     1      42.460   5.376  11.247  0.00  0.00    +0.000 HD
ATOM     30  H   UNL     1      41.655   3.871  11.659  0.00  0.00    +0.000 HD
ENDBRANCH  22  26
ENDBRANCH  17  18
ENDBRANCH  16  17
ENDBRANCH   5  16
TORSDOF 5
ENDMDL
MODEL 8
REMARK VINA RESULT:    -6.029      4.551      8.419
REMARK INTER + INTRA:          -8.792
REMARK INTER:                  -8.016
REMARK INTRA:                  -0.775
REMARK UNBOUND:                -1.001
REMARK  Name = 
REMARK  6 active torsions:
REMARK  status: ('A' for Active; 'I' for Inactive)
REMARK    1  A    between atoms: C_1  and  C_2
REMARK    2  A    between atoms: C_2  and  C_3
REMARK    3  A    between atoms: C_7  and  C_8
REMARK    4  A    between atoms: C_8  and  C_9
REMARK    5  A    between atoms: C_9  and  N_10
REMARK    6  A    between atoms: C_14  and  C_15
REMARK                            x       y       z     vdW  Elec       q    Type
REMARK                         _______ _______ _______ _____ _____    ______ ____
ROOT
ATOM      1  C   UNL     1      45.773   6.828  11.683  0.00  0.00    +0.000 A 
ATOM      2  C   UNL     1      44.929   7.943  11.847  0.00  0.00    +0.000 A 
ATOM      3  C   UNL     1      45.440   9.208  12.153  0.00  0.00    +0.000 A 
ATOM      4  C   UNL     1      46.811   9.393  12.300  0.00  0.00    +0.000 A 
ATOM      5  C   UNL     1      47.682   8.317  12.122  0.00  0.00    +0.000 A 
ATOM      6  C   UNL     1      47.156   7.050  11.805  0.00  0.00    +0.000 A 
ENDROOT
BRANCH   1   8
ATOM      7  C   UNL     1      45.344   5.088   9.966  0.00  0.00    +0.000 C 
ATOM      8  C   UNL     1      45.170   5.416  11.472  0.00  0.00    +0.000 C 
ATOM      9  C   UNL     1      45.916   4.369  12.344  0.00  0.00    +0.000 C 
ATOM     10  C   UNL     1      45.302   2.966  12.259  0.00  0.00    +0.000 C 
ATOM     11  N   UNL     1      43.879   2.946  12.595  0.00  0.00    +0.000 NA
ATOM     12  C   UNL     1      43.120   3.879  11.751  0.00  0.00    +0.000 C 
ATOM     13  C   UNL     1      43.659   5.314  11.833  0.00  0.00    +0.000 C 
ATOM     14  F   UNL     1      43.479   5.719  13.131  0.00  0.00    +0.000 F 
ATOM     15  H   UNL     1      43.773   3.255  13.565  0.00  0.00    +0.000 HD
ENDBRANCH   1   8
BRANCH   5  16
ATOM     16  C   UNL     1      49.164   8.473  12.385  0.00  0.00    +0.000 C 
BRANCH  16  17
ATOM     17  C   UNL     1      49.562   7.608  13.586  0.00  0.00    +0.000 C 
BRANCH  17  18
ATOM     18  N   UNL     1      49.686   8.394  14.807  0.00  0.00    +0.000 N 
ATOM     19  C   UNL     1      49.222   7.810  15.982  0.00  0.00    +0.000 A 
ATOM     20  C   UNL     1      49.369   6.449  16.289  0.00  0.00    +0.000 A 
ATOM     21  N   UNL     1      48.933   5.868  17.435  0.00  0.00    +0.000 NA
ATOM     22  C   UNL     1      48.359   6.731  18.313  0.00  0.00    +0.000 A 
ATOM     23  C   UNL     1      48.228   8.084  18.047  0.00  0.00    +0.000 A 
ATOM     24  N   UNL     1      48.648   8.643  16.876  0.00  0.00    +0.000 NA
ATOM     25  H   UNL     1      49.303   9.338  14.772  0.00  0.00    +0.000 HD
BRANCH  22  26
ATOM     26  C   UNL     1      47.853   6.157  19.590  0.00  0.00    +0.000 C 
ATOM     27  N   UNL     1      47.852   4.789  19.657  0.00  0.00    +0.000 N 
ATOM     28  O   UNL     1      47.463   6.856  20.515  0.00  0.00    +0.000 OA
ATOM     29  H   UNL     1      48.180   4.243  18.867  0.00  0.00    +0.000 HD
ATOM     30  H   UNL     1      47.517   4.327  20.491  0.00  0.00    +0.000 HD
ENDBRANCH  22  26
ENDBRANCH  17  18
ENDBRANCH  16  17
ENDBRANCH   5  16
TORSDOF 5
ENDMDL
