MODEL 1
REMARK VINA RESULT:    -8.023      0.000      0.000
REMARK INTER + INTRA:         -11.011
REMARK INTER:                 -10.369
REMARK INTRA:                  -0.642
REMARK UNBOUND:                -0.642
REMARK  Name = 
REMARK  5 active torsions:
REMARK  status: ('A' for Active; 'I' for Inactive)
REMARK    1  A    between atoms: C_2  and  C_3
REMARK    2  A    between atoms: C_6  and  N_7
REMARK    3  A    between atoms: N_7  and  C_8
REMARK    4  A    between atoms: C_8  and  C_9
REMARK    5  A    between atoms: C_13  and  C_14
REMARK                            x       y       z     vdW  Elec       q    Type
REMARK                         _______ _______ _______ _____ _____    ______ ____
ROOT
ATOM      1  C   UNL     1      45.282   5.101  11.989  0.00  0.00    +0.000 A 
ATOM      2  C   UNL     1      45.367   3.989  12.808  0.00  0.00    +0.000 A 
ATOM      3  C   UNL     1      46.497   3.888  13.590  0.00  0.00    +0.000 A 
ATOM      4  N   UNL     1      47.478   4.803  13.598  0.00  0.00    +0.000 NA
ATOM      5  C   UNL     1      47.313   5.866  12.791  0.00  0.00    +0.000 A 
ATOM      6  N   UNL     1      46.248   6.050  11.983  0.00  0.00    +0.000 NA
ENDROOT
BRANCH   5   7
ATOM      7  C   UNL     1      48.380   6.872  12.766  0.00  0.00    +0.000 A 
ATOM      8  C   UNL     1      48.629   7.680  11.647  0.00  0.00    +0.000 A 
ATOM      9  C   UNL     1      49.668   8.610  11.664  0.00  0.00    +0.000 A 
ATOM     10  C   UNL     1      50.438   8.713  12.808  0.00  0.00    +0.000 A 
ATOM     11  F   UNL     1      51.445   9.596  12.822  0.00  0.00    +0.000 F 
ATOM     12  N   UNL     1      50.241   7.972  13.913  0.00  0.00    +0.000 NA
ATOM     13  C   UNL     1      49.221   7.077  13.863  0.00  0.00    +0.000 A 
ENDBRANCH   5   7
BRANCH   1  14
ATOM     14  C   UNL     1      44.128   5.264  11.009  0.00  0.00    +0.000 C 
BRANCH  14  15
ATOM     15  N   UNL     1      43.806   4.029  10.297  0.00  0.00    +0.000 N 
ATOM     16  H   UNL     1      43.334   3.326  10.859  0.00  0.00    +0.000 HD
BRANCH  15  20
ATOM     17  C   UNL     1      46.621   2.497   7.526  0.00  0.00    +0.000 A 
ATOM     18  C   UNL     1      45.947   1.620   8.381  0.00  0.00    +0.000 A 
ATOM     19  C   UNL     1      45.007   2.108   9.304  0.00  0.00    +0.000 A 
ATOM     20  C   UNL     1      44.691   3.470   9.373  0.00  0.00    +0.000 A 
ATOM     21  C   UNL     1      45.390   4.336   8.516  0.00  0.00    +0.000 A 
ATOM     22  C   UNL     1      46.341   3.859   7.601  0.00  0.00    +0.000 A 
BRANCH  17  24
ATOM     23  N   UNL     1      48.378   1.593   5.837  0.00  0.00    +0.000 NA
ATOM     24  C   UNL     1      47.594   1.997   6.589  0.00  0.00    +0.000 C 
ENDBRANCH  17  24
ENDBRANCH  15  20
ENDBRANCH  14  15
ENDBRANCH   1  14
TORSDOF 5
ENDMDL
MODEL 2
REMARK VINA RESULT:    -8.012      1.466      1.705
REMARK INTER + INTRA:         -10.996
REMARK INTER:                 -10.246
REMARK INTRA:                  -0.750
REMARK UNBOUND:                -0.642
REMARK  Name = 
REMARK  5 active torsions:
REMARK  status: ('A' for Active; 'I' for Inactive)
REMARK    1  A    between atoms: C_2  and  C_3
REMARK    2  A    between atoms: C_6  and  N_7
REMARK    3  A    between atoms: N_7  and  C_8
REMARK    4  A    between atoms: C_8  and  C_9
REMARK    5  A    between atoms: C_13  and  C_14
REMARK                            x       y       z     vdW  Elec       q    Type
REMARK                         _______ _______ _______ _____ _____    ______ ____
ROOT
ATOM      1  C   UNL     1      45.129   4.201  12.393  0.00  0.00    +0.000 A 
ATOM      2  C   UNL     1      45.917   3.367  13.167  0.00  0.00    +0.000 A 
ATOM      3  C   UNL     1      47.100   3.898  13.630  0.00  0.00    +0.000 A 
ATOM      4  N   UNL     1      47.499   5.154  13.379  0.00  0.00    +0.000 NA
ATOM      5  C   UNL     1      46.670   5.909  12.638  0.00  0.00    +0.000 A 
ATOM      6  N   UNL     1      45.496   5.479  12.132  0.00  0.00    +0.000 NA
ENDROOT
BRANCH   5   7
ATOM      7  C   UNL     1      47.091   7.281  12.332  0.00  0.00    +0.000 A 
ATOM      8  C   UNL     1      48.400   7.600  11.943  0.00  0.00    +0.000 A 
ATOM      9  C   UNL     1      48.757   8.922  11.682  0.00  0.00    +0.000 A 
ATOM     10  C   UNL     1      47.790   9.901  11.814  0.00  0.00    +0.000 A 
ATOM     11  F   UNL     1      48.134  11.174  11.577  0.00  0.00    +0.000 F 
ATOM     12  N   UNL     1      46.518   9.655  12.175  0.00  0.00    +0.000 NA
ATOM     13  C   UNL     1      46.204   8.358  12.422  0.00  0.00    +0.000 A 
ENDBRANCH   5   7
BRANCH   1  14
ATOM     14  C   UNL     1      43.849   3.689  11.745  0.00  0.00    +0.000 C 
BRANCH  14  15
ATOM     15  N   UNL     1      43.767   4.004  10.320  0.00  0.00    +0.000 N 
ATOM     16  H   UNL     1      42.821   4.075   9.955  0.00  0.00    +0.000 HD
BRANCH  15  20
ATOM     17  C   UNL     1      46.597   2.474   7.563  0.00  0.00    +0.000 A 
ATOM     18  C   UNL     1      45.906   1.595   8.403  0.00  0.00    +0.000 A 
ATOM     19  C   UNL     1      44.961   2.082   9.321  0.00  0.00    +0.000 A 
ATOM     20  C   UNL     1      44.657   3.447   9.399  0.00  0.00    +0.000 A 
ATOM     21  C   UNL     1      45.373   4.315   8.559  0.00  0.00    +0.000 A 
ATOM     22  C   UNL     1      46.329   3.838   7.649  0.00  0.00    +0.000 A 
BRANCH  17  24
ATOM     23  N   UNL     1      48.362   1.570   5.883  0.00  0.00    +0.000 NA
ATOM     24  C   UNL     1      47.576   1.975   6.632  0.00  0.00    +0.000 C 
ENDBRANCH  17  24
ENDBRANCH  15  20
ENDBRANCH  14  15
ENDBRANCH   1  14
TORSDOF 5
ENDMDL
MODEL 3
REMARK VINA RESULT:    -8.004      2.609      3.545
REMARK INTER + INTRA:         -10.985
REMARK INTER:                 -10.420
REMARK INTRA:                  -0.565
REMARK UNBOUND:                -0.642
REMARK  Name = 
REMARK  5 active torsions:
REMARK  status: ('A' for Active; 'I' for Inactive)
REMARK    1  A    between atoms: C_2  and  C_3
REMARK    2  A    between atoms: C_6  and  N_7
REMARK    3  A    between atoms: N_7  and  C_8
REMARK    4  A    between atoms: C_8  and  C_9
REMARK    5  A    between atoms: C_13  and  C_14
REMARK                            x       y       z     vdW  Elec       q    Type
REMARK                         _______ _______ _______ _____ _____    ______ ____
ROOT
ATOM      1  C   UNL     1      45.170   4.696  12.406  0.00  0.00    +0.000 A 
ATOM      2  C   UNL     1      45.406   5.947  11.863  0.00  0.00    +0.000 A 
ATOM      3  C   UNL     1      46.344   6.726  12.503  0.00  0.00    +0.000 A 
ATOM      4  N   UNL     1      47.025   6.328  13.588  0.00  0.00    +0.000 NA
ATOM      5  C   UNL     1      46.755   5.093  14.044  0.00  0.00    +0.000 A 
ATOM      6  N   UNL     1      45.849   4.258  13.493  0.00  0.00    +0.000 NA
ENDROOT
BRANCH   5   7
ATOM      7  C   UNL     1      47.470   4.639  15.242  0.00  0.00    +0.000 A 
ATOM      8  C   UNL     1      47.485   3.297  15.650  0.00  0.00    +0.000 A 
ATOM      9  C   UNL     1      48.163   2.917  16.807  0.00  0.00    +0.000 A 
ATOM     10  C   UNL     1      48.818   3.894  17.534  0.00  0.00    +0.000 A 
ATOM     11  F   UNL     1      49.460   3.535  18.654  0.00  0.00    +0.000 F 
ATOM     12  N   UNL     1      48.846   5.194  17.188  0.00  0.00    +0.000 NA
ATOM     13  C   UNL     1      48.176   5.529  16.056  0.00  0.00    +0.000 A 
ENDBRANCH   5   7
BRANCH   1  14
ATOM     14  C   UNL     1      44.083   3.790  11.842  0.00  0.00    +0.000 C 
BRANCH  14  15
ATOM     15  N   UNL     1      43.862   3.991  10.411  0.00  0.00    +0.000 N 
ATOM     16  H   UNL     1      42.888   3.949  10.123  0.00  0.00    +0.000 HD
BRANCH  15  20
ATOM     17  C   UNL     1      46.615   2.508   7.552  0.00  0.00    +0.000 A 
ATOM     18  C   UNL     1      45.964   1.617   8.410  0.00  0.00    +0.000 A 
ATOM     19  C   UNL     1      45.045   2.088   9.362  0.00  0.00    +0.000 A 
ATOM     20  C   UNL     1      44.727   3.449   9.458  0.00  0.00    +0.000 A 
ATOM     21  C   UNL     1      45.402   4.329   8.598  0.00  0.00    +0.000 A 
ATOM     22  C   UNL     1      46.333   3.869   7.653  0.00  0.00    +0.000 A 
BRANCH  17  24
ATOM     23  N   UNL     1      48.333   1.635   5.809  0.00  0.00    +0.000 NA
ATOM     24  C   UNL     1      47.567   2.026   6.585  0.00  0.00    +0.000 C 
ENDBRANCH  17  24
ENDBRANCH  15  20
ENDBRANCH  14  15
ENDBRANCH   1  14
TORSDOF 5
ENDMDL
MODEL 4
REMARK VINA RESULT:    -7.614      2.805      6.767
REMARK INTER + INTRA:         -10.482
REMARK INTER:                  -9.847
REMARK INTRA:                  -0.635
REMARK UNBOUND:                -0.642
REMARK  Name = 
REMARK  5 active torsions:
REMARK  status: ('A' for Active; 'I' for Inactive)
REMARK    1  A    between atoms: C_2  and  C_3
REMARK    2  A    between atoms: C_6  and  N_7
REMARK    3  A    between atoms: N_7  and  C_8
REMARK    4  A    between atoms: C_8  and  C_9
REMARK    5  A    between atoms: C_13  and  C_14
REMARK                            x       y       z     vdW  Elec       q    Type
REMARK                         _______ _______ _______ _____ _____    ______ ____
ROOT
ATOM      1  C   UNL     1      43.868   5.069  11.192  0.00  0.00    +0.000 A 
ATOM      2  C   UNL     1      43.152   4.119  11.900  0.00  0.00    +0.000 A 
ATOM      3  C   UNL     1      43.260   2.818  11.462  0.00  0.00    +0.000 A 
ATOM      4  N   UNL     1      44.017   2.445  10.420  0.00  0.00    +0.000 NA
ATOM      5  C   UNL     1      44.699   3.422   9.796  0.00  0.00    +0.000 A 
ATOM      6  N   UNL     1      44.653   4.725  10.143  0.00  0.00    +0.000 NA
ENDROOT
BRANCH   5   7
ATOM      7  C   UNL     1      45.520   3.046   8.640  0.00  0.00    +0.000 A 
ATOM      8  C   UNL     1      46.011   1.745   8.454  0.00  0.00    +0.000 A 
ATOM      9  C   UNL     1      46.805   1.440   7.349  0.00  0.00    +0.000 A 
ATOM     10  C   UNL     1      47.089   2.448   6.447  0.00  0.00    +0.000 A 
ATOM     11  F   UNL     1      47.862   2.162   5.391  0.00  0.00    +0.000 F 
ATOM     12  N   UNL     1      46.640   3.711   6.568  0.00  0.00    +0.000 NA
ATOM     13  C   UNL     1      45.871   3.974   7.655  0.00  0.00    +0.000 A 
ENDBRANCH   5   7
BRANCH   1  14
ATOM     14  C   UNL     1      43.745   6.550  11.524  0.00  0.00    +0.000 C 
BRANCH  14  15
ATOM     15  N   UNL     1      44.524   6.936  12.700  0.00  0.00    +0.000 N 
ATOM     16  H   UNL     1      44.023   7.516  13.368  0.00  0.00    +0.000 HD
BRANCH  15  20
ATOM     17  C   UNL     1      48.653   7.793  12.293  0.00  0.00    +0.000 A 
ATOM     18  C   UNL     1      47.715   8.814  12.113  0.00  0.00    +0.000 A 
ATOM     19  C   UNL     1      46.341   8.552  12.248  0.00  0.00    +0.000 A 
ATOM     20  C   UNL     1      45.874   7.279  12.598  0.00  0.00    +0.000 A 
ATOM     21  C   UNL     1      46.830   6.263  12.758  0.00  0.00    +0.000 A 
ATOM     22  C   UNL     1      48.203   6.514  12.611  0.00  0.00    +0.000 A 
BRANCH  17  24
ATOM     23  N   UNL     1      51.192   8.276  12.022  0.00  0.00    +0.000 NA
ATOM     24  C   UNL     1      50.060   8.061  12.141  0.00  0.00    +0.000 C 
ENDBRANCH  17  24
ENDBRANCH  15  20
ENDBRANCH  14  15
ENDBRANCH   1  14
TORSDOF 5
ENDMDL
MODEL 5
REMARK VINA RESULT:    -7.025      3.644      7.917
REMARK INTER + INTRA:          -9.721
REMARK INTER:                  -9.353
REMARK INTRA:                  -0.368
REMARK UNBOUND:                -0.642
REMARK  Name = 
REMARK  5 active torsions:
REMARK  status: ('A' for Active; 'I' for Inactive)
REMARK    1  A    between atoms: C_2  and  C_3
REMARK    2  A    between atoms: C_6  and  N_7
REMARK    3  A    between atoms: N_7  and  C_8
REMARK    4  A    between atoms: C_8  and  C_9
REMARK    5  A    between atoms: C_13  and  C_14
REMARK                            x       y       z     vdW  Elec       q    Type
REMARK                         _______ _______ _______ _____ _____    ______ ____
ROOT
ATOM      1  C   UNL     1      45.041   4.842  12.777  0.00  0.00    +0.000 A 
ATOM      2  C   UNL     1      43.682   5.058  12.921  0.00  0.00    +0.000 A 
ATOM      3  C   UNL     1      42.894   4.755  11.832  0.00  0.00    +0.000 A 
ATOM      4  N   UNL     1      43.375   4.263  10.681  0.00  0.00    +0.000 NA
ATOM      5  C   UNL     1      44.703   4.061  10.625  0.00  0.00    +0.000 A 
ATOM      6  N   UNL     1      45.558   4.333  11.633  0.00  0.00    +0.000 NA
ENDROOT
BRANCH   5   7
ATOM      7  C   UNL     1      45.260   3.541   9.371  0.00  0.00    +0.000 A 
ATOM      8  C   UNL     1      45.440   2.171   9.136  0.00  0.00    +0.000 A 
ATOM      9  C   UNL     1      45.991   1.726   7.935  0.00  0.00    +0.000 A 
ATOM     10  C   UNL     1      46.350   2.668   6.989  0.00  0.00    +0.000 A 
ATOM     11  F   UNL     1      46.892   2.245   5.839  0.00  0.00    +0.000 F 
ATOM     12  N   UNL     1      46.193   3.994   7.154  0.00  0.00    +0.000 NA
ATOM     13  C   UNL     1      45.653   4.393   8.335  0.00  0.00    +0.000 A 
ENDBRANCH   5   7
BRANCH   1  14
ATOM     14  C   UNL     1      46.017   5.235  13.878  0.00  0.00    +0.000 C 
BRANCH  14  15
ATOM     15  N   UNL     1      46.416   4.104  14.714  0.00  0.00    +0.000 N 
ATOM     16  H   UNL     1      45.648   3.520  15.033  0.00  0.00    +0.000 HD
BRANCH  15  20
ATOM     17  C   UNL     1      49.568   4.299  17.539  0.00  0.00    +0.000 A 
ATOM     18  C   UNL     1      49.127   5.469  16.915  0.00  0.00    +0.000 A 
ATOM     19  C   UNL     1      48.081   5.427  15.979  0.00  0.00    +0.000 A 
ATOM     20  C   UNL     1      47.428   4.227  15.669  0.00  0.00    +0.000 A 
ATOM     21  C   UNL     1      47.895   3.060  16.295  0.00  0.00    +0.000 A 
ATOM     22  C   UNL     1      48.949   3.091  17.221  0.00  0.00    +0.000 A 
BRANCH  17  24
ATOM     23  N   UNL     1      51.522   4.375  19.251  0.00  0.00    +0.000 NA
ATOM     24  C   UNL     1      50.649   4.341  18.489  0.00  0.00    +0.000 C 
ENDBRANCH  17  24
ENDBRANCH  15  20
ENDBRANCH  14  15
ENDBRANCH   1  14
TORSDOF 5
ENDMDL
MODEL 6
REMARK VINA RESULT:    -6.535      3.231      7.458
REMARK INTER + INTRA:          -9.087
REMARK INTER:                  -8.579
REMARK INTRA:                  -0.508
REMARK UNBOUND:                -0.642
REMARK  Name = 
REMARK  5 active torsions:
REMARK  status: ('A' for Active; 'I' for Inactive)
REMARK    1  A    between atoms: C_2  and  C_3
REMARK    2  A    between atoms: C_6  and  N_7
REMARK    3  A    between atoms: N_7  and  C_8
REMARK    4  A    between atoms: C_8  and  C_9
REMARK    5  A    between atoms: C_13  and  C_14
REMARK                            x       y       z     vdW  Elec       q    Type
REMARK                         _______ _______ _______ _____ _____    ______ ____
ROOT
ATOM      1  C   UNL     1      45.367   6.540  11.908  0.00  0.00    +0.000 A 
ATOM      2  C   UNL     1      44.033   6.538  12.275  0.00  0.00    +0.000 A 
ATOM      3  C   UNL     1      43.202   5.708  11.556  0.00  0.00    +0.000 A 
ATOM      4  N   UNL     1      43.623   4.920  10.556  0.00  0.00    +0.000 NA
ATOM      5  C   UNL     1      44.936   4.963  10.272  0.00  0.00    +0.000 A 
ATOM      6  N   UNL     1      45.829   5.746  10.912  0.00  0.00    +0.000 NA
ENDROOT
BRANCH   5   7
ATOM      7  C   UNL     1      45.421   4.125   9.170  0.00  0.00    +0.000 A 
ATOM      8  C   UNL     1      45.312   2.726   9.180  0.00  0.00    +0.000 A 
ATOM      9  C   UNL     1      45.806   1.971   8.118  0.00  0.00    +0.000 A 
ATOM     10  C   UNL     1      46.400   2.635   7.061  0.00  0.00    +0.000 A 
ATOM     11  F   UNL     1      46.887   1.911   6.044  0.00  0.00    +0.000 F 
ATOM     12  N   UNL     1      46.526   3.973   6.991  0.00  0.00    +0.000 NA
ATOM     13  C   UNL     1      46.034   4.678   8.042  0.00  0.00    +0.000 A 
ENDBRANCH   5   7
BRANCH   1  14
ATOM     14  C   UNL     1      46.358   7.491  12.567  0.00  0.00    +0.000 C 
BRANCH  14  15
ATOM     15  N   UNL     1      47.636   6.854  12.882  0.00  0.00    +0.000 N 
ATOM     16  H   UNL     1      48.090   6.404  12.092  0.00  0.00    +0.000 HD
BRANCH  15  20
ATOM     17  C   UNL     1      48.230   4.934  16.611  0.00  0.00    +0.000 A 
ATOM     18  C   UNL     1      47.321   4.397  15.695  0.00  0.00    +0.000 A 
ATOM     19  C   UNL     1      47.112   5.016  14.452  0.00  0.00    +0.000 A 
ATOM     20  C   UNL     1      47.828   6.160  14.078  0.00  0.00    +0.000 A 
ATOM     21  C   UNL     1      48.724   6.694  15.018  0.00  0.00    +0.000 A 
ATOM     22  C   UNL     1      48.928   6.090  16.268  0.00  0.00    +0.000 A 
BRANCH  17  24
ATOM     23  N   UNL     1      48.594   3.801  18.922  0.00  0.00    +0.000 NA
ATOM     24  C   UNL     1      48.433   4.306  17.891  0.00  0.00    +0.000 C 
ENDBRANCH  17  24
ENDBRANCH  15  20
ENDBRANCH  14  15
ENDBRANCH   1  14
TORSDOF 5
ENDMDL
MODEL 7
REMARK VINA RESULT:    -6.273      4.113      7.847
REMARK INTER + INTRA:          -8.748
REMARK INTER:                  -8.138
REMARK INTRA:                  -0.610
REMARK UNBOUND:                -0.642
REMARK  Name = 
REMARK  5 active torsions:
REMARK  status: ('A' for Active; 'I' for Inactive)
REMARK    1  A    between atoms: C_2  and  C_3
REMARK    2  A    between atoms: C_6  and  N_7
REMARK    3  A    between atoms: N_7  and  C_8
REMARK    4  A    between atoms: C_8  and  C_9
REMARK    5  A    between atoms: C_13  and  C_14
REMARK                            x       y       z     vdW  Elec       q    Type
REMARK                         _______ _______ _______ _____ _____    ______ ____
ROOT
ATOM      1  C   UNL     1      48.229   7.116  14.277  0.00  0.00    +0.000 A 
ATOM      2  C   UNL     1      48.774   7.974  13.338  0.00  0.00    +0.000 A 
ATOM      3  C   UNL     1      48.300   7.854  12.051  0.00  0.00    +0.000 A 
ATOM      4  N   UNL     1      47.352   6.977  11.686  0.00  0.00    +0.000 NA
ATOM      5  C   UNL     1      46.857   6.193  12.659  0.00  0.00    +0.000 A 
ATOM      6  N   UNL     1      47.260   6.229  13.946  0.00  0.00    +0.000 NA
ENDROOT
BRANCH   5   7
ATOM      7  C   UNL     1      45.833   5.212  12.285  0.00  0.00    +0.000 A 
ATOM      8  C   UNL     1      45.255   5.172  11.008  0.00  0.00    +0.000 A 
ATOM      9  C   UNL     1      44.271   4.233  10.705  0.00  0.00    +0.000 A 
ATOM     10  C   UNL     1      43.885   3.346  11.693  0.00  0.00    +0.000 A 
ATOM     11  F   UNL     1      42.929   2.450  11.410  0.00  0.00    +0.000 F 
ATOM     12  N   UNL     1      44.408   3.330  12.933  0.00  0.00    +0.000 NA
ATOM     13  C   UNL     1      45.364   4.258  13.193  0.00  0.00    +0.000 A 
ENDBRANCH   5   7
BRANCH   1  14
ATOM     14  C   UNL     1      48.748   7.091  15.709  0.00  0.00    +0.000 C 
BRANCH  14  15
ATOM     15  N   UNL     1      48.201   5.985  16.493  0.00  0.00    +0.000 N 
ATOM     16  H   UNL     1      47.569   6.265  17.238  0.00  0.00    +0.000 HD
BRANCH  15  20
ATOM     17  C   UNL     1      50.497   2.537  17.384  0.00  0.00    +0.000 A 
ATOM     18  C   UNL     1      51.067   3.805  17.535  0.00  0.00    +0.000 A 
ATOM     19  C   UNL     1      50.322   4.960  17.249  0.00  0.00    +0.000 A 
ATOM     20  C   UNL     1      48.984   4.882  16.841  0.00  0.00    +0.000 A 
ATOM     21  C   UNL     1      48.435   3.600  16.679  0.00  0.00    +0.000 A 
ATOM     22  C   UNL     1      49.177   2.440  16.949  0.00  0.00    +0.000 A 
BRANCH  17  24
ATOM     23  N   UNL     1      51.886   0.400  17.892  0.00  0.00    +0.000 NA
ATOM     24  C   UNL     1      51.267   1.353  17.664  0.00  0.00    +0.000 C 
ENDBRANCH  17  24
ENDBRANCH  15  20
ENDBRANCH  14  15
ENDBRANCH   1  14
TORSDOF 5
ENDMDL
MODEL 8
REMARK VINA RESULT:    -6.192      2.068      2.626
REMARK INTER + INTRA:          -8.644
REMARK INTER:                  -8.131
REMARK INTRA:                  -0.513
REMARK UNBOUND:                -0.642
REMARK  Name = 
REMARK  5 active torsions:
REMARK  status: ('A' for Active; 'I' for Inactive)
REMARK    1  A    between atoms: C_2  and  C_3
REMARK    2  A    between atoms: C_6  and  N_7
REMARK    3  A    between atoms: N_7  and  C_8
REMARK    4  A    between atoms: C_8  and  C_9
REMARK    5  A    between atoms: C_13  and  C_14
REMARK                            x       y       z     vdW  Elec       q    Type
REMARK                         _______ _______ _______ _____ _____    ______ ____
ROOT
ATOM      1  C   UNL     1      45.980   5.888  13.044  0.00  0.00    +0.000 A 
ATOM      2  C   UNL     1      45.411   7.086  12.648  0.00  0.00    +0.000 A 
ATOM      3  C   UNL     1      46.094   8.231  12.990  0.00  0.00    +0.000 A 
ATOM      4  N   UNL     1      47.258   8.231  13.657  0.00  0.00    +0.000 NA
ATOM      5  C   UNL     1      47.758   7.028  13.988  0.00  0.00    +0.000 A 
ATOM      6  N   UNL     1      47.160   5.852  13.707  0.00  0.00    +0.000 NA
ENDROOT
BRANCH   5   7
ATOM      7  C   UNL     1      49.019   6.999  14.735  0.00  0.00    +0.000 A 
ATOM      8  C   UNL     1      50.123   7.791  14.386  0.00  0.00    +0.000 A 
ATOM      9  C   UNL     1      51.309   7.714  15.115  0.00  0.00    +0.000 A 
ATOM     10  C   UNL     1      51.364   6.842  16.187  0.00  0.00    +0.000 A 
ATOM     11  F   UNL     1      52.506   6.756  16.882  0.00  0.00    +0.000 F 
ATOM     12  N   UNL     1      50.336   6.064  16.575  0.00  0.00    +0.000 NA
ATOM     13  C   UNL     1      49.198   6.164  15.843  0.00  0.00    +0.000 A 
ENDBRANCH   5   7
BRANCH   1  14
ATOM     14  C   UNL     1      45.262   4.566  12.808  0.00  0.00    +0.000 C 
BRANCH  14  15
ATOM     15  N   UNL     1      44.378   4.597  11.644  0.00  0.00    +0.000 N 
ATOM     16  H   UNL     1      43.417   4.326  11.834  0.00  0.00    +0.000 HD
BRANCH  15  20
ATOM     17  C   UNL     1      45.879   3.434   7.856  0.00  0.00    +0.000 A 
ATOM     18  C   UNL     1      45.233   2.492   8.662  0.00  0.00    +0.000 A 
ATOM     19  C   UNL     1      44.725   2.858   9.919  0.00  0.00    +0.000 A 
ATOM     20  C   UNL     1      44.816   4.175  10.387  0.00  0.00    +0.000 A 
ATOM     21  C   UNL     1      45.482   5.103   9.570  0.00  0.00    +0.000 A 
ATOM     22  C   UNL     1      46.005   4.742   8.319  0.00  0.00    +0.000 A 
BRANCH  17  24
ATOM     23  N   UNL     1      46.842   2.750   5.541  0.00  0.00    +0.000 NA
ATOM     24  C   UNL     1      46.411   3.054   6.573  0.00  0.00    +0.000 C 
ENDBRANCH  17  24
ENDBRANCH  15  20
ENDBRANCH  14  15
ENDBRANCH   1  14
TORSDOF 5
ENDMDL
MODEL 9
REMARK VINA RESULT:    -6.157      2.520      2.988
REMARK INTER + INTRA:          -8.599
REMARK INTER:                  -8.302
REMARK INTRA:                  -0.297
REMARK UNBOUND:                -0.642
REMARK  Name = 
REMARK  5 active torsions:
REMARK  status: ('A' for Active; 'I' for Inactive)
REMARK    1  A    between atoms: C_2  and  C_3
REMARK    2  A    between atoms: C_6  and  N_7
REMARK    3  A    between atoms: N_7  and  C_8
REMARK    4  A    between atoms: C_8  and  C_9
REMARK    5  A    between atoms: C_13  and  C_14
REMARK                            x       y       z     vdW  Elec       q    Type
REMARK                         _______ _______ _______ _____ _____    ______ ____
ROOT
ATOM      1  C   UNL     1      45.456   5.592  11.489  0.00  0.00    +0.000 A 
ATOM      2  C   UNL     1      44.218   5.043  11.775  0.00  0.00    +0.000 A 
ATOM      3  C   UNL     1      44.035   4.579  13.059  0.00  0.00    +0.000 A 
ATOM      4  N   UNL     1      44.974   4.649  14.015  0.00  0.00    +0.000 NA
ATOM      5  C   UNL     1      46.142   5.215  13.666  0.00  0.00    +0.000 A 
ATOM      6  N   UNL     1      46.421   5.690  12.435  0.00  0.00    +0.000 NA
ENDROOT
BRANCH   5   7
ATOM      7  C   UNL     1      47.194   5.286  14.686  0.00  0.00    +0.000 A 
ATOM      8  C   UNL     1      48.065   6.380  14.797  0.00  0.00    +0.000 A 
ATOM      9  C   UNL     1      49.062   6.394  15.772  0.00  0.00    +0.000 A 
ATOM     10  C   UNL     1      49.165   5.307  16.621  0.00  0.00    +0.000 A 
ATOM     11  F   UNL     1      50.130   5.312  17.549  0.00  0.00    +0.000 F 
ATOM     12  N   UNL     1      48.354   4.235  16.568  0.00  0.00    +0.000 NA
ATOM     13  C   UNL     1      47.394   4.254  15.608  0.00  0.00    +0.000 A 
ENDBRANCH   5   7
BRANCH   1  14
ATOM     14  C   UNL     1      45.804   6.044  10.077  0.00  0.00    +0.000 C 
BRANCH  14  15
ATOM     15  N   UNL     1      45.042   5.337   9.049  0.00  0.00    +0.000 N 
ATOM     16  H   UNL     1      44.041   5.518   9.064  0.00  0.00    +0.000 HD
BRANCH  15  20
ATOM     17  C   UNL     1      46.162   1.396   7.973  0.00  0.00    +0.000 A 
ATOM     18  C   UNL     1      45.140   1.592   8.907  0.00  0.00    +0.000 A 
ATOM     19  C   UNL     1      44.752   2.891   9.274  0.00  0.00    +0.000 A 
ATOM     20  C   UNL     1      45.344   4.020   8.696  0.00  0.00    +0.000 A 
ATOM     21  C   UNL     1      46.379   3.802   7.772  0.00  0.00    +0.000 A 
ATOM     22  C   UNL     1      46.783   2.508   7.410  0.00  0.00    +0.000 A 
BRANCH  17  24
ATOM     23  N   UNL     1      46.896  -1.008   7.311  0.00  0.00    +0.000 NA
ATOM     24  C   UNL     1      46.569   0.064   7.607  0.00  0.00    +0.000 C 
ENDBRANCH  17  24
ENDBRANCH  15  20
ENDBRANCH  14  15
ENDBRANCH   1  14
TORSDOF 5
ENDMDL
