MODEL 1
REMARK VINA RESULT:    -7.935      0.000      0.000
REMARK INTER + INTRA:         -11.633
REMARK INTER:                 -10.718
REMARK INTRA:                  -0.915
REMARK UNBOUND:                -0.915
REMARK  Name = 
REMARK  7 active torsions:
REMARK  status: ('A' for Active; 'I' for Inactive)
REMARK    1  A    between atoms: C_1  and  C_2
REMARK    2  A    between atoms: C_2  and  N_3
REMARK    3  A    between atoms: C_2  and  C_21
REMARK    4  A    between atoms: C_4  and  C_6
REMARK    5  A    between atoms: C_9  and  C_10
REMARK    6  A    between atoms: C_10  and  N_11
REMARK    7  A    between atoms: C_12  and  C_14
REMARK                            x       y       z     vdW  Elec       q    Type
REMARK                         _______ _______ _______ _____ _____    ______ ____
ROOT
ATOM      1  N   UNL     1      47.256   4.979  15.988  0.00  0.00    +0.000 N 
ATOM      2  C   UNL     1      47.618   5.591  14.803  0.00  0.00    +0.000 C 
ATOM      3  O   UNL     1      48.572   6.349  14.701  0.00  0.00    +0.000 OA
ATOM      4  H   UNL     1      46.668   4.152  15.959  0.00  0.00    +0.000 HD
ENDROOT
BRANCH   2   5
ATOM      5  C   UNL     1      46.779   5.300  13.601  0.00  0.00    +0.000 A 
ATOM      6  C   UNL     1      46.556   6.248  12.595  0.00  0.00    +0.000 A 
ATOM      7  C   UNL     1      45.854   5.894  11.434  0.00  0.00    +0.000 A 
ATOM      8  C   UNL     1      45.356   4.592  11.262  0.00  0.00    +0.000 A 
ATOM      9  C   UNL     1      45.580   3.650  12.275  0.00  0.00    +0.000 A 
ATOM     10  C   UNL     1      46.284   4.000  13.432  0.00  0.00    +0.000 A 
BRANCH   8  11
ATOM     11  C   UNL     1      44.586   4.200  10.026  0.00  0.00    +0.000 C 
BRANCH  11  12
ATOM     12  N   UNL     1      45.422   3.938   8.884  0.00  0.00    +0.000 N 
ATOM     13  C   UNL     1      45.713   2.643   8.515  0.00  0.00    +0.000 C 
ATOM     14  O   UNL     1      45.302   1.660   9.125  0.00  0.00    +0.000 OA
ATOM     15  H   UNL     1      45.844   4.684   8.339  0.00  0.00    +0.000 HD
BRANCH  13  16
ATOM     16  C   UNL     1      46.553   2.540   7.321  0.00  0.00    +0.000 A 
ATOM     17  C   UNL     1      47.627   1.686   7.139  0.00  0.00    +0.000 A 
ATOM     18  N   UNL     1      48.086   1.936   5.877  0.00  0.00    +0.000 N 
ATOM     19  C   UNL     1      47.303   2.917   5.339  0.00  0.00    +0.000 A 
ATOM     20  N   UNL     1      46.371   3.310   6.178  0.00  0.00    +0.000 NA
ATOM     21  H   UNL     1      48.864   1.479   5.420  0.00  0.00    +0.000 HD
ENDBRANCH  13  16
ENDBRANCH  11  12
ENDBRANCH   8  11
ENDBRANCH   2   5
BRANCH   1  23
ATOM     22  C   UNL     1      47.143   5.172  18.450  0.00  0.00    +0.000 C 
ATOM     23  C   UNL     1      48.027   5.182  17.204  0.00  0.00    +0.000 C 
BRANCH  23  24
ATOM     24  C   UNL     1      49.123   4.145  17.261  0.00  0.00    +0.000 A 
ATOM     25  C   UNL     1      48.926   2.814  16.924  0.00  0.00    +0.000 A 
ATOM     26  S   UNL     1      50.337   1.864  17.079  0.00  0.00    +0.000 S 
ATOM     27  C   UNL     1      51.251   3.202  17.606  0.00  0.00    +0.000 A 
ATOM     28  N   UNL     1      52.567   3.076  17.925  0.00  0.00    +0.000 NA
ATOM     29  C   UNL     1      53.128   4.177  18.302  0.00  0.00    +0.000 A 
ATOM     30  N   UNL     1      52.499   5.392  18.384  0.00  0.00    +0.000 N 
ATOM     31  C   UNL     1      51.159   5.559  18.119  0.00  0.00    +0.000 A 
ATOM     32  O   UNL     1      50.603   6.639  18.295  0.00  0.00    +0.000 OA
ATOM     33  C   UNL     1      50.492   4.354  17.663  0.00  0.00    +0.000 A 
ATOM     34  H   UNL     1      52.993   6.210  18.705  0.00  0.00    +0.000 HD
ENDBRANCH  23  24
ENDBRANCH   1  23
TORSDOF 6
ENDMDL
MODEL 2
REMARK VINA RESULT:    -7.720      2.616      3.251
REMARK INTER + INTRA:         -11.342
REMARK INTER:                 -10.235
REMARK INTRA:                  -1.107
REMARK UNBOUND:                -0.915
REMARK  Name = 
REMARK  7 active torsions:
REMARK  status: ('A' for Active; 'I' for Inactive)
REMARK    1  A    between atoms: C_1  and  C_2
REMARK    2  A    between atoms: C_2  and  N_3
REMARK    3  A    between atoms: C_2  and  C_21
REMARK    4  A    between atoms: C_4  and  C_6
REMARK    5  A    between atoms: C_9  and  C_10
REMARK    6  A    between atoms: C_10  and  N_11
REMARK    7  A    between atoms: C_12  and  C_14
REMARK                            x       y       z     vdW  Elec       q    Type
REMARK                         _______ _______ _______ _____ _____    ______ ____
ROOT
ATOM      1  N   UNL     1      47.913   7.684  15.261  0.00  0.00    +0.000 N 
ATOM      2  C   UNL     1      48.313   7.181  14.038  0.00  0.00    +0.000 C 
ATOM      3  O   UNL     1      49.458   7.267  13.617  0.00  0.00    +0.000 OA
ATOM      4  H   UNL     1      47.061   7.333  15.686  0.00  0.00    +0.000 HD
ENDROOT
BRANCH   2   5
ATOM      5  C   UNL     1      47.271   6.511  13.202  0.00  0.00    +0.000 A 
ATOM      6  C   UNL     1      46.865   7.018  11.962  0.00  0.00    +0.000 A 
ATOM      7  C   UNL     1      45.965   6.295  11.164  0.00  0.00    +0.000 A 
ATOM      8  C   UNL     1      45.452   5.061  11.594  0.00  0.00    +0.000 A 
ATOM      9  C   UNL     1      45.861   4.562  12.838  0.00  0.00    +0.000 A 
ATOM     10  C   UNL     1      46.761   5.280  13.634  0.00  0.00    +0.000 A 
BRANCH   8  11
ATOM     11  C   UNL     1      44.473   4.280  10.755  0.00  0.00    +0.000 C 
BRANCH  11  12
ATOM     12  N   UNL     1      45.084   3.232   9.980  0.00  0.00    +0.000 N 
ATOM     13  C   UNL     1      45.546   3.485   8.707  0.00  0.00    +0.000 C 
ATOM     14  O   UNL     1      45.459   4.583   8.164  0.00  0.00    +0.000 OA
ATOM     15  H   UNL     1      45.164   2.281  10.325  0.00  0.00    +0.000 HD
BRANCH  13  16
ATOM     16  C   UNL     1      46.162   2.328   8.058  0.00  0.00    +0.000 A 
ATOM     17  C   UNL     1      47.039   2.352   6.987  0.00  0.00    +0.000 A 
ATOM     18  N   UNL     1      47.354   1.046   6.740  0.00  0.00    +0.000 N 
ATOM     19  C   UNL     1      46.671   0.278   7.641  0.00  0.00    +0.000 A 
ATOM     20  N   UNL     1      45.940   1.013   8.448  0.00  0.00    +0.000 NA
ATOM     21  H   UNL     1      47.979   0.705   6.022  0.00  0.00    +0.000 HD
ENDBRANCH  13  16
ENDBRANCH  11  12
ENDBRANCH   8  11
ENDBRANCH   2   5
BRANCH   1  23
ATOM     22  C   UNL     1      48.891   9.845  15.956  0.00  0.00    +0.000 C 
ATOM     23  C   UNL     1      48.862   8.330  16.154  0.00  0.00    +0.000 C 
BRANCH  23  24
ATOM     24  C   UNL     1      48.535   7.936  17.575  0.00  0.00    +0.000 A 
ATOM     25  C   UNL     1      48.018   8.823  18.508  0.00  0.00    +0.000 A 
ATOM     26  S   UNL     1      47.743   8.108  20.035  0.00  0.00    +0.000 S 
ATOM     27  C   UNL     1      48.311   6.595  19.495  0.00  0.00    +0.000 A 
ATOM     28  N   UNL     1      48.354   5.520  20.327  0.00  0.00    +0.000 NA
ATOM     29  C   UNL     1      48.803   4.441  19.775  0.00  0.00    +0.000 A 
ATOM     30  N   UNL     1      49.207   4.336  18.470  0.00  0.00    +0.000 N 
ATOM     31  C   UNL     1      49.230   5.406  17.605  0.00  0.00    +0.000 A 
ATOM     32  O   UNL     1      49.688   5.303  16.471  0.00  0.00    +0.000 OA
ATOM     33  C   UNL     1      48.705   6.635  18.172  0.00  0.00    +0.000 A 
ATOM     34  H   UNL     1      49.566   3.466  18.107  0.00  0.00    +0.000 HD
ENDBRANCH  23  24
ENDBRANCH   1  23
TORSDOF 6
ENDMDL
MODEL 3
REMARK VINA RESULT:    -7.569      1.628      2.191
REMARK INTER + INTRA:         -11.139
REMARK INTER:                 -10.160
REMARK INTRA:                  -0.979
REMARK UNBOUND:                -0.915
REMARK  Name = 
REMARK  7 active torsions:
REMARK  status: ('A' for Active; 'I' for Inactive)
REMARK    1  A    between atoms: C_1  and  C_2
REMARK    2  A    between atoms: C_2  and  N_3
REMARK    3  A    between atoms: C_2  and  C_21
REMARK    4  A    between atoms: C_4  and  C_6
REMARK    5  A    between atoms: C_9  and  C_10
REMARK    6  A    between atoms: C_10  and  N_11
REMARK    7  A    between atoms: C_12  and  C_14
REMARK                            x       y       z     vdW  Elec       q    Type
REMARK                         _______ _______ _______ _____ _____    ______ ____
ROOT
ATOM      1  N   UNL     1      47.921   5.627  16.176  0.00  0.00    +0.000 N 
ATOM      2  C   UNL     1      47.847   6.122  14.889  0.00  0.00    +0.000 C 
ATOM      3  O   UNL     1      48.373   7.170  14.539  0.00  0.00    +0.000 OA
ATOM      4  H   UNL     1      47.738   4.642  16.340  0.00  0.00    +0.000 HD
ENDROOT
BRANCH   2   5
ATOM      5  C   UNL     1      47.071   5.322  13.894  0.00  0.00    +0.000 A 
ATOM      6  C   UNL     1      47.010   3.924  13.940  0.00  0.00    +0.000 A 
ATOM      7  C   UNL     1      46.180   3.223  13.052  0.00  0.00    +0.000 A 
ATOM      8  C   UNL     1      45.406   3.905  12.100  0.00  0.00    +0.000 A 
ATOM      9  C   UNL     1      45.475   5.304  12.057  0.00  0.00    +0.000 A 
ATOM     10  C   UNL     1      46.299   6.005  12.944  0.00  0.00    +0.000 A 
BRANCH   8  11
ATOM     11  C   UNL     1      44.521   3.165  11.129  0.00  0.00    +0.000 C 
BRANCH  11  12
ATOM     12  N   UNL     1      45.231   2.618  10.002  0.00  0.00    +0.000 N 
ATOM     13  C   UNL     1      45.274   3.300   8.806  0.00  0.00    +0.000 C 
ATOM     14  O   UNL     1      44.717   4.380   8.626  0.00  0.00    +0.000 OA
ATOM     15  H   UNL     1      45.688   1.712  10.039  0.00  0.00    +0.000 HD
BRANCH  13  16
ATOM     16  C   UNL     1      46.053   2.628   7.766  0.00  0.00    +0.000 A 
ATOM     17  C   UNL     1      46.578   1.349   7.826  0.00  0.00    +0.000 A 
ATOM     18  N   UNL     1      47.207   1.153   6.630  0.00  0.00    +0.000 N 
ATOM     19  C   UNL     1      47.058   2.293   5.892  0.00  0.00    +0.000 A 
ATOM     20  N   UNL     1      46.372   3.206   6.543  0.00  0.00    +0.000 NA
ATOM     21  H   UNL     1      47.695   0.317   6.338  0.00  0.00    +0.000 HD
ENDBRANCH  13  16
ENDBRANCH  11  12
ENDBRANCH   8  11
ENDBRANCH   2   5
BRANCH   1  23
ATOM     22  C   UNL     1      47.965   6.283  18.559  0.00  0.00    +0.000 C 
ATOM     23  C   UNL     1      48.674   6.324  17.207  0.00  0.00    +0.000 C 
BRANCH  23  24
ATOM     24  C   UNL     1      50.067   5.744  17.263  0.00  0.00    +0.000 A 
ATOM     25  C   UNL     1      51.215   6.516  17.156  0.00  0.00    +0.000 A 
ATOM     26  S   UNL     1      52.654   5.600  17.256  0.00  0.00    +0.000 S 
ATOM     27  C   UNL     1      51.785   4.145  17.440  0.00  0.00    +0.000 A 
ATOM     28  N   UNL     1      52.425   2.953  17.571  0.00  0.00    +0.000 NA
ATOM     29  C   UNL     1      51.635   1.940  17.707  0.00  0.00    +0.000 A 
ATOM     30  N   UNL     1      50.266   2.008  17.731  0.00  0.00    +0.000 N 
ATOM     31  C   UNL     1      49.573   3.183  17.553  0.00  0.00    +0.000 A 
ATOM     32  O   UNL     1      48.348   3.199  17.482  0.00  0.00    +0.000 OA
ATOM     33  C   UNL     1      50.420   4.355  17.425  0.00  0.00    +0.000 A 
ATOM     34  H   UNL     1      49.708   1.173  17.822  0.00  0.00    +0.000 HD
ENDBRANCH  23  24
ENDBRANCH   1  23
TORSDOF 6
ENDMDL
MODEL 4
REMARK VINA RESULT:    -7.330      2.771      3.667
REMARK INTER + INTRA:         -10.816
REMARK INTER:                  -9.944
REMARK INTRA:                  -0.872
REMARK UNBOUND:                -0.915
REMARK  Name = 
REMARK  7 active torsions:
REMARK  status: ('A' for Active; 'I' for Inactive)
REMARK    1  A    between atoms: C_1  and  C_2
REMARK    2  A    between atoms: C_2  and  N_3
REMARK    3  A    between atoms: C_2  and  C_21
REMARK    4  A    between atoms: C_4  and  C_6
REMARK    5  A    between atoms: C_9  and  C_10
REMARK    6  A    between atoms: C_10  and  N_11
REMARK    7  A    between atoms: C_12  and  C_14
REMARK                            x       y       z     vdW  Elec       q    Type
REMARK                         _______ _______ _______ _____ _____    ______ ____
ROOT
ATOM      1  N   UNL     1      47.926   5.917  15.380  0.00  0.00    +0.000 N 
ATOM      2  C   UNL     1      47.161   4.812  15.060  0.00  0.00    +0.000 C 
ATOM      3  O   UNL     1      47.042   3.841  15.793  0.00  0.00    +0.000 OA
ATOM      4  H   UNL     1      47.755   6.795  14.900  0.00  0.00    +0.000 HD
ENDROOT
BRANCH   2   5
ATOM      5  C   UNL     1      46.459   4.828  13.741  0.00  0.00    +0.000 A 
ATOM      6  C   UNL     1      46.565   5.901  12.848  0.00  0.00    +0.000 A 
ATOM      7  C   UNL     1      45.979   5.823  11.576  0.00  0.00    +0.000 A 
ATOM      8  C   UNL     1      45.271   4.677  11.178  0.00  0.00    +0.000 A 
ATOM      9  C   UNL     1      45.166   3.608  12.079  0.00  0.00    +0.000 A 
ATOM     10  C   UNL     1      45.754   3.684  13.347  0.00  0.00    +0.000 A 
BRANCH   8  11
ATOM     11  C   UNL     1      44.623   4.584   9.820  0.00  0.00    +0.000 C 
BRANCH  11  12
ATOM     12  N   UNL     1      45.527   4.185   8.774  0.00  0.00    +0.000 N 
ATOM     13  C   UNL     1      45.628   2.861   8.407  0.00  0.00    +0.000 C 
ATOM     14  O   UNL     1      44.983   1.962   8.939  0.00  0.00    +0.000 OA
ATOM     15  H   UNL     1      46.134   4.848   8.302  0.00  0.00    +0.000 HD
BRANCH  13  16
ATOM     16  C   UNL     1      46.571   2.618   7.314  0.00  0.00    +0.000 A 
ATOM     17  C   UNL     1      47.573   1.664   7.285  0.00  0.00    +0.000 A 
ATOM     18  N   UNL     1      48.178   1.802   6.069  0.00  0.00    +0.000 N 
ATOM     19  C   UNL     1      47.549   2.818   5.407  0.00  0.00    +0.000 A 
ATOM     20  N   UNL     1      46.578   3.337   6.125  0.00  0.00    +0.000 NA
ATOM     21  H   UNL     1      48.952   1.254   5.718  0.00  0.00    +0.000 HD
ENDBRANCH  13  16
ENDBRANCH  11  12
ENDBRANCH   8  11
ENDBRANCH   2   5
BRANCH   1  23
ATOM     22  C   UNL     1      50.112   5.684  16.510  0.00  0.00    +0.000 C 
ATOM     23  C   UNL     1      48.625   6.002  16.653  0.00  0.00    +0.000 C 
BRANCH  23  24
ATOM     24  C   UNL     1      48.379   7.368  17.250  0.00  0.00    +0.000 A 
ATOM     25  C   UNL     1      48.485   8.544  16.523  0.00  0.00    +0.000 A 
ATOM     26  S   UNL     1      48.150   9.940  17.449  0.00  0.00    +0.000 S 
ATOM     27  C   UNL     1      47.859   9.014  18.849  0.00  0.00    +0.000 A 
ATOM     28  N   UNL     1      47.527   9.604  20.029  0.00  0.00    +0.000 NA
ATOM     29  C   UNL     1      47.332   8.773  20.999  0.00  0.00    +0.000 A 
ATOM     30  N   UNL     1      47.432   7.410  20.899  0.00  0.00    +0.000 N 
ATOM     31  C   UNL     1      47.814   6.771  19.742  0.00  0.00    +0.000 A 
ATOM     32  O   UNL     1      47.990   5.557  19.709  0.00  0.00    +0.000 OA
ATOM     33  C   UNL     1      48.016   7.662  18.614  0.00  0.00    +0.000 A 
ATOM     34  H   UNL     1      47.285   6.820  21.704  0.00  0.00    +0.000 HD
ENDBRANCH  23  24
ENDBRANCH   1  23
TORSDOF 6
ENDMDL
MODEL 5
REMARK VINA RESULT:    -7.328      1.355      1.523
REMARK INTER + INTRA:         -10.813
REMARK INTER:                  -9.977
REMARK INTRA:                  -0.836
REMARK UNBOUND:                -0.915
REMARK  Name = 
REMARK  7 active torsions:
REMARK  status: ('A' for Active; 'I' for Inactive)
REMARK    1  A    between atoms: C_1  and  C_2
REMARK    2  A    between atoms: C_2  and  N_3
REMARK    3  A    between atoms: C_2  and  C_21
REMARK    4  A    between atoms: C_4  and  C_6
REMARK    5  A    between atoms: C_9  and  C_10
REMARK    6  A    between atoms: C_10  and  N_11
REMARK    7  A    between atoms: C_12  and  C_14
REMARK                            x       y       z     vdW  Elec       q    Type
REMARK                         _______ _______ _______ _____ _____    ______ ____
ROOT
ATOM      1  N   UNL     1      48.044   6.063  15.678  0.00  0.00    +0.000 N 
ATOM      2  C   UNL     1      48.128   6.626  14.419  0.00  0.00    +0.000 C 
ATOM      3  O   UNL     1      48.969   7.456  14.107  0.00  0.00    +0.000 OA
ATOM      4  H   UNL     1      47.546   5.188  15.798  0.00  0.00    +0.000 HD
ENDROOT
BRANCH   2   5
ATOM      5  C   UNL     1      47.121   6.183  13.406  0.00  0.00    +0.000 A 
ATOM      6  C   UNL     1      46.921   6.866  12.201  0.00  0.00    +0.000 A 
ATOM      7  C   UNL     1      46.044   6.351  11.234  0.00  0.00    +0.000 A 
ATOM      8  C   UNL     1      45.349   5.152  11.459  0.00  0.00    +0.000 A 
ATOM      9  C   UNL     1      45.552   4.476  12.670  0.00  0.00    +0.000 A 
ATOM     10  C   UNL     1      46.429   4.987  13.633  0.00  0.00    +0.000 A 
BRANCH   8  11
ATOM     11  C   UNL     1      44.392   4.593  10.436  0.00  0.00    +0.000 C 
BRANCH  11  12
ATOM     12  N   UNL     1      44.948   3.526   9.647  0.00  0.00    +0.000 N 
ATOM     13  C   UNL     1      45.720   3.806   8.541  0.00  0.00    +0.000 C 
ATOM     14  O   UNL     1      45.966   4.948   8.161  0.00  0.00    +0.000 OA
ATOM     15  H   UNL     1      44.768   2.548   9.855  0.00  0.00    +0.000 HD
BRANCH  13  16
ATOM     16  C   UNL     1      46.233   2.617   7.858  0.00  0.00    +0.000 A 
ATOM     17  C   UNL     1      46.788   2.569   6.592  0.00  0.00    +0.000 A 
ATOM     18  N   UNL     1      47.131   1.262   6.389  0.00  0.00    +0.000 N 
ATOM     19  C   UNL     1      46.777   0.564   7.509  0.00  0.00    +0.000 A 
ATOM     20  N   UNL     1      46.230   1.344   8.414  0.00  0.00    +0.000 NA
ATOM     21  H   UNL     1      47.567   0.877   5.563  0.00  0.00    +0.000 HD
ENDBRANCH  13  16
ENDBRANCH  11  12
ENDBRANCH   8  11
ENDBRANCH   2   5
BRANCH   1  23
ATOM     22  C   UNL     1      48.313   7.068  17.921  0.00  0.00    +0.000 C 
ATOM     23  C   UNL     1      48.995   6.414  16.721  0.00  0.00    +0.000 C 
BRANCH  23  24
ATOM     24  C   UNL     1      49.776   5.177  17.099  0.00  0.00    +0.000 A 
ATOM     25  C   UNL     1      49.187   3.934  17.279  0.00  0.00    +0.000 A 
ATOM     26  S   UNL     1      50.306   2.714  17.702  0.00  0.00    +0.000 S 
ATOM     27  C   UNL     1      51.609   3.812  17.662  0.00  0.00    +0.000 A 
ATOM     28  N   UNL     1      52.878   3.412  17.943  0.00  0.00    +0.000 NA
ATOM     29  C   UNL     1      53.759   4.355  17.867  0.00  0.00    +0.000 A 
ATOM     30  N   UNL     1      53.490   5.656  17.531  0.00  0.00    +0.000 N 
ATOM     31  C   UNL     1      52.218   6.119  17.288  0.00  0.00    +0.000 A 
ATOM     32  O   UNL     1      51.998   7.309  17.085  0.00  0.00    +0.000 OA
ATOM     33  C   UNL     1      51.196   5.089  17.332  0.00  0.00    +0.000 A 
ATOM     34  H   UNL     1      54.225   6.347  17.509  0.00  0.00    +0.000 HD
ENDBRANCH  23  24
ENDBRANCH   1  23
TORSDOF 6
ENDMDL
MODEL 6
REMARK VINA RESULT:    -6.958      2.856      3.842
REMARK INTER + INTRA:         -10.314
REMARK INTER:                  -9.429
REMARK INTRA:                  -0.885
REMARK UNBOUND:                -0.915
REMARK  Name = 
REMARK  7 active torsions:
REMARK  status: ('A' for Active; 'I' for Inactive)
REMARK    1  A    between atoms: C_1  and  C_2
REMARK    2  A    between atoms: C_2  and  N_3
REMARK    3  A    between atoms: C_2  and  C_21
REMARK    4  A    between atoms: C_4  and  C_6
REMARK    5  A    between atoms: C_9  and  C_10
REMARK    6  A    between atoms: C_10  and  N_11
REMARK    7  A    between atoms: C_12  and  C_14
REMARK                            x       y       z     vdW  Elec       q    Type
REMARK                         _______ _______ _______ _____ _____    ______ ____
ROOT
ATOM      1  N   UNL     1      48.093   5.630  15.763  0.00  0.00    +0.000 N 
ATOM      2  C   UNL     1      47.309   4.535  15.454  0.00  0.00    +0.000 C 
ATOM      3  O   UNL     1      47.275   3.517  16.131  0.00  0.00    +0.000 OA
ATOM      4  H   UNL     1      47.866   6.532  15.360  0.00  0.00    +0.000 HD
ENDROOT
BRANCH   2   5
ATOM      5  C   UNL     1      46.474   4.623  14.217  0.00  0.00    +0.000 A 
ATOM      6  C   UNL     1      46.066   5.847  13.674  0.00  0.00    +0.000 A 
ATOM      7  C   UNL     1      45.377   5.883  12.452  0.00  0.00    +0.000 A 
ATOM      8  C   UNL     1      45.078   4.699  11.759  0.00  0.00    +0.000 A 
ATOM      9  C   UNL     1      45.487   3.477  12.311  0.00  0.00    +0.000 A 
ATOM     10  C   UNL     1      46.177   3.440  13.528  0.00  0.00    +0.000 A 
BRANCH   8  11
ATOM     11  C   UNL     1      44.326   4.720  10.452  0.00  0.00    +0.000 C 
BRANCH  11  12
ATOM     12  N   UNL     1      44.859   3.820   9.464  0.00  0.00    +0.000 N 
ATOM     13  C   UNL     1      45.818   4.250   8.573  0.00  0.00    +0.000 C 
ATOM     14  O   UNL     1      46.257   5.396   8.557  0.00  0.00    +0.000 OA
ATOM     15  H   UNL     1      44.530   2.864   9.369  0.00  0.00    +0.000 HD
BRANCH  13  16
ATOM     16  C   UNL     1      46.276   3.213   7.648  0.00  0.00    +0.000 A 
ATOM     17  C   UNL     1      46.577   3.379   6.307  0.00  0.00    +0.000 A 
ATOM     18  N   UNL     1      46.972   2.148   5.864  0.00  0.00    +0.000 N 
ATOM     19  C   UNL     1      46.897   1.285   6.920  0.00  0.00    +0.000 A 
ATOM     20  N   UNL     1      46.479   1.887   8.010  0.00  0.00    +0.000 NA
ATOM     21  H   UNL     1      47.267   1.915   4.925  0.00  0.00    +0.000 HD
ENDBRANCH  13  16
ENDBRANCH  11  12
ENDBRANCH   8  11
ENDBRANCH   2   5
BRANCH   1  23
ATOM     22  C   UNL     1      50.397   5.857  16.631  0.00  0.00    +0.000 C 
ATOM     23  C   UNL     1      48.920   5.645  16.960  0.00  0.00    +0.000 C 
BRANCH  23  24
ATOM     24  C   UNL     1      48.381   6.690  17.907  0.00  0.00    +0.000 A 
ATOM     25  C   UNL     1      47.948   6.399  19.192  0.00  0.00    +0.000 A 
ATOM     26  S   UNL     1      47.390   7.771  20.043  0.00  0.00    +0.000 S 
ATOM     27  C   UNL     1      47.705   8.794  18.717  0.00  0.00    +0.000 A 
ATOM     28  N   UNL     1      47.439  10.127  18.775  0.00  0.00    +0.000 NA
ATOM     29  C   UNL     1      47.735  10.773  17.696  0.00  0.00    +0.000 A 
ATOM     30  N   UNL     1      48.276  10.213  16.568  0.00  0.00    +0.000 N 
ATOM     31  C   UNL     1      48.516   8.864  16.444  0.00  0.00    +0.000 A 
ATOM     32  O   UNL     1      48.910   8.379  15.387  0.00  0.00    +0.000 OA
ATOM     33  C   UNL     1      48.226   8.100  17.643  0.00  0.00    +0.000 A 
ATOM     34  H   UNL     1      48.466  10.775  15.752  0.00  0.00    +0.000 HD
ENDBRANCH  23  24
ENDBRANCH   1  23
TORSDOF 6
ENDMDL
MODEL 7
REMARK VINA RESULT:    -6.909      2.602      9.806
REMARK INTER + INTRA:         -10.246
REMARK INTER:                  -9.563
REMARK INTRA:                  -0.684
REMARK UNBOUND:                -0.915
REMARK  Name = 
REMARK  7 active torsions:
REMARK  status: ('A' for Active; 'I' for Inactive)
REMARK    1  A    between atoms: C_1  and  C_2
REMARK    2  A    between atoms: C_2  and  N_3
REMARK    3  A    between atoms: C_2  and  C_21
REMARK    4  A    between atoms: C_4  and  C_6
REMARK    5  A    between atoms: C_9  and  C_10
REMARK    6  A    between atoms: C_10  and  N_11
REMARK    7  A    between atoms: C_12  and  C_14
REMARK                            x       y       z     vdW  Elec       q    Type
REMARK                         _______ _______ _______ _____ _____    ______ ____
ROOT
ATOM      1  N   UNL     1      45.348   4.776  14.010  0.00  0.00    +0.000 N 
ATOM      2  C   UNL     1      46.439   3.952  14.210  0.00  0.00    +0.000 C 
ATOM      3  O   UNL     1      46.662   2.955  13.537  0.00  0.00    +0.000 OA
ATOM      4  H   UNL     1      45.369   5.722  14.375  0.00  0.00    +0.000 HD
ENDROOT
BRANCH   2   5
ATOM      5  C   UNL     1      47.374   4.315  15.317  0.00  0.00    +0.000 A 
ATOM      6  C   UNL     1      47.973   5.578  15.408  0.00  0.00    +0.000 A 
ATOM      7  C   UNL     1      48.756   5.909  16.525  0.00  0.00    +0.000 A 
ATOM      8  C   UNL     1      48.960   4.985  17.561  0.00  0.00    +0.000 A 
ATOM      9  C   UNL     1      48.360   3.722  17.461  0.00  0.00    +0.000 A 
ATOM     10  C   UNL     1      47.576   3.391  16.350  0.00  0.00    +0.000 A 
BRANCH   8  11
ATOM     11  C   UNL     1      49.811   5.321  18.760  0.00  0.00    +0.000 C 
BRANCH  11  12
ATOM     12  N   UNL     1      50.828   4.342  19.039  0.00  0.00    +0.000 N 
ATOM     13  C   UNL     1      51.980   4.298  18.286  0.00  0.00    +0.000 C 
ATOM     14  O   UNL     1      52.202   5.060  17.348  0.00  0.00    +0.000 OA
ATOM     15  H   UNL     1      50.719   3.642  19.767  0.00  0.00    +0.000 HD
BRANCH  13  16
ATOM     16  C   UNL     1      52.927   3.265  18.707  0.00  0.00    +0.000 A 
ATOM     17  C   UNL     1      53.600   3.206  19.915  0.00  0.00    +0.000 A 
ATOM     18  N   UNL     1      54.353   2.068  19.862  0.00  0.00    +0.000 N 
ATOM     19  C   UNL     1      54.129   1.481  18.649  0.00  0.00    +0.000 A 
ATOM     20  N   UNL     1      53.280   2.173  17.924  0.00  0.00    +0.000 NA
ATOM     21  H   UNL     1      54.966   1.719  20.587  0.00  0.00    +0.000 HD
ENDBRANCH  13  16
ENDBRANCH  11  12
ENDBRANCH   8  11
ENDBRANCH   2   5
BRANCH   1  23
ATOM     22  C   UNL     1      43.052   5.192  13.195  0.00  0.00    +0.000 C 
ATOM     23  C   UNL     1      44.397   4.515  12.941  0.00  0.00    +0.000 C 
BRANCH  23  24
ATOM     24  C   UNL     1      45.018   4.933  11.629  0.00  0.00    +0.000 A 
ATOM     25  C   UNL     1      45.798   6.070  11.486  0.00  0.00    +0.000 A 
ATOM     26  S   UNL     1      46.373   6.298   9.893  0.00  0.00    +0.000 S 
ATOM     27  C   UNL     1      45.591   4.886   9.346  0.00  0.00    +0.000 A 
ATOM     28  N   UNL     1      45.670   4.494   8.046  0.00  0.00    +0.000 NA
ATOM     29  C   UNL     1      45.032   3.402   7.783  0.00  0.00    +0.000 A 
ATOM     30  N   UNL     1      44.328   2.663   8.698  0.00  0.00    +0.000 N 
ATOM     31  C   UNL     1      44.178   3.045  10.011  0.00  0.00    +0.000 A 
ATOM     32  O   UNL     1      43.462   2.414  10.783  0.00  0.00    +0.000 OA
ATOM     33  C   UNL     1      44.903   4.252  10.362  0.00  0.00    +0.000 A 
ATOM     34  H   UNL     1      43.835   1.828   8.420  0.00  0.00    +0.000 HD
ENDBRANCH  23  24
ENDBRANCH   1  23
TORSDOF 6
ENDMDL
MODEL 8
REMARK VINA RESULT:    -6.523      3.014      3.896
REMARK INTER + INTRA:          -9.726
REMARK INTER:                  -9.544
REMARK INTRA:                  -0.182
REMARK UNBOUND:                -0.915
REMARK  Name = 
REMARK  7 active torsions:
REMARK  status: ('A' for Active; 'I' for Inactive)
REMARK    1  A    between atoms: C_1  and  C_2
REMARK    2  A    between atoms: C_2  and  N_3
REMARK    3  A    between atoms: C_2  and  C_21
REMARK    4  A    between atoms: C_4  and  C_6
REMARK    5  A    between atoms: C_9  and  C_10
REMARK    6  A    between atoms: C_10  and  N_11
REMARK    7  A    between atoms: C_12  and  C_14
REMARK                            x       y       z     vdW  Elec       q    Type
REMARK                         _______ _______ _______ _____ _____    ______ ____
ROOT
ATOM      1  N   UNL     1      47.944   5.972  15.008  0.00  0.00    +0.000 N 
ATOM      2  C   UNL     1      47.017   4.948  15.058  0.00  0.00    +0.000 C 
ATOM      3  O   UNL     1      46.863   4.226  16.033  0.00  0.00    +0.000 OA
ATOM      4  H   UNL     1      47.829   6.711  14.323  0.00  0.00    +0.000 HD
ENDROOT
BRANCH   2   5
ATOM      5  C   UNL     1      46.177   4.729  13.842  0.00  0.00    +0.000 A 
ATOM      6  C   UNL     1      45.524   5.777  13.183  0.00  0.00    +0.000 A 
ATOM      7  C   UNL     1      44.838   5.538  11.982  0.00  0.00    +0.000 A 
ATOM      8  C   UNL     1      44.787   4.250  11.426  0.00  0.00    +0.000 A 
ATOM      9  C   UNL     1      45.440   3.205  12.093  0.00  0.00    +0.000 A 
ATOM     10  C   UNL     1      46.128   3.442  13.289  0.00  0.00    +0.000 A 
BRANCH   8  11
ATOM     11  C   UNL     1      44.041   3.975  10.145  0.00  0.00    +0.000 C 
BRANCH  11  12
ATOM     12  N   UNL     1      44.796   3.206   9.191  0.00  0.00    +0.000 N 
ATOM     13  C   UNL     1      45.672   3.830   8.329  0.00  0.00    +0.000 C 
ATOM     14  O   UNL     1      45.850   5.045   8.311  0.00  0.00    +0.000 OA
ATOM     15  H   UNL     1      44.688   2.201   9.100  0.00  0.00    +0.000 HD
BRANCH  13  16
ATOM     16  C   UNL     1      46.382   2.912   7.437  0.00  0.00    +0.000 A 
ATOM     17  C   UNL     1      46.808   3.180   6.148  0.00  0.00    +0.000 A 
ATOM     18  N   UNL     1      47.428   2.039   5.721  0.00  0.00    +0.000 N 
ATOM     19  C   UNL     1      47.358   1.127   6.735  0.00  0.00    +0.000 A 
ATOM     20  N   UNL     1      46.733   1.613   7.784  0.00  0.00    +0.000 NA
ATOM     21  H   UNL     1      47.861   1.893   4.819  0.00  0.00    +0.000 HD
ENDBRANCH  13  16
ENDBRANCH  11  12
ENDBRANCH   8  11
ENDBRANCH   2   5
BRANCH   1  23
ATOM     22  C   UNL     1      49.247   5.011  16.877  0.00  0.00    +0.000 C 
ATOM     23  C   UNL     1      48.788   6.276  16.152  0.00  0.00    +0.000 C 
BRANCH  23  24
ATOM     24  C   UNL     1      49.944   7.129  15.687  0.00  0.00    +0.000 A 
ATOM     25  C   UNL     1      51.271   6.810  15.934  0.00  0.00    +0.000 A 
ATOM     26  S   UNL     1      52.370   7.950  15.292  0.00  0.00    +0.000 S 
ATOM     27  C   UNL     1      51.104   8.907  14.670  0.00  0.00    +0.000 A 
ATOM     28  N   UNL     1      51.358  10.062  13.998  0.00  0.00    +0.000 NA
ATOM     29  C   UNL     1      50.299  10.675  13.582  0.00  0.00    +0.000 A 
ATOM     30  N   UNL     1      49.013  10.240  13.770  0.00  0.00    +0.000 N 
ATOM     31  C   UNL     1      48.705   9.106  14.486  0.00  0.00    +0.000 A 
ATOM     32  O   UNL     1      47.541   8.794  14.720  0.00  0.00    +0.000 OA
ATOM     33  C   UNL     1      49.864   8.365  14.949  0.00  0.00    +0.000 A 
ATOM     34  H   UNL     1      48.230  10.779  13.435  0.00  0.00    +0.000 HD
ENDBRANCH  23  24
ENDBRANCH   1  23
TORSDOF 6
ENDMDL
MODEL 9
REMARK VINA RESULT:    -6.436      3.202      9.178
REMARK INTER + INTRA:          -9.608
REMARK INTER:                  -9.148
REMARK INTRA:                  -0.460
REMARK UNBOUND:                -0.915
REMARK  Name = 
REMARK  7 active torsions:
REMARK  status: ('A' for Active; 'I' for Inactive)
REMARK    1  A    between atoms: C_1  and  C_2
REMARK    2  A    between atoms: C_2  and  N_3
REMARK    3  A    between atoms: C_2  and  C_21
REMARK    4  A    between atoms: C_4  and  C_6
REMARK    5  A    between atoms: C_9  and  C_10
REMARK    6  A    between atoms: C_10  and  N_11
REMARK    7  A    between atoms: C_12  and  C_14
REMARK                            x       y       z     vdW  Elec       q    Type
REMARK                         _______ _______ _______ _____ _____    ______ ____
ROOT
ATOM      1  N   UNL     1      45.623   6.153  13.549  0.00  0.00    +0.000 N 
ATOM      2  C   UNL     1      47.003   6.109  13.515  0.00  0.00    +0.000 C 
ATOM      3  O   UNL     1      47.665   6.459  12.548  0.00  0.00    +0.000 OA
ATOM      4  H   UNL     1      45.148   6.144  14.445  0.00  0.00    +0.000 HD
ENDROOT
BRANCH   2   5
ATOM      5  C   UNL     1      47.699   5.596  14.734  0.00  0.00    +0.000 A 
ATOM      6  C   UNL     1      48.648   6.354  15.431  0.00  0.00    +0.000 A 
ATOM      7  C   UNL     1      49.192   5.874  16.632  0.00  0.00    +0.000 A 
ATOM      8  C   UNL     1      48.804   4.630  17.152  0.00  0.00    +0.000 A 
ATOM      9  C   UNL     1      47.855   3.875  16.447  0.00  0.00    +0.000 A 
ATOM     10  C   UNL     1      47.309   4.354  15.251  0.00  0.00    +0.000 A 
BRANCH   8  11
ATOM     11  C   UNL     1      49.391   4.094  18.433  0.00  0.00    +0.000 C 
BRANCH  11  12
ATOM     12  N   UNL     1      50.329   3.021  18.235  0.00  0.00    +0.000 N 
ATOM     13  C   UNL     1      51.656   3.291  17.982  0.00  0.00    +0.000 C 
ATOM     14  O   UNL     1      52.108   4.430  17.900  0.00  0.00    +0.000 OA
ATOM     15  H   UNL     1      50.045   2.045  18.242  0.00  0.00    +0.000 HD
BRANCH  13  16
ATOM     16  C   UNL     1      52.487   2.097  17.828  0.00  0.00    +0.000 A 
ATOM     17  C   UNL     1      52.045   0.787  17.765  0.00  0.00    +0.000 A 
ATOM     18  N   UNL     1      53.169   0.027  17.606  0.00  0.00    +0.000 N 
ATOM     19  C   UNL     1      54.241   0.873  17.583  0.00  0.00    +0.000 A 
ATOM     20  N   UNL     1      53.872   2.127  17.717  0.00  0.00    +0.000 NA
ATOM     21  H   UNL     1      53.205  -0.980  17.520  0.00  0.00    +0.000 HD
ENDBRANCH  13  16
ENDBRANCH  11  12
ENDBRANCH   8  11
ENDBRANCH   2   5
BRANCH   1  23
ATOM     22  C   UNL     1      45.301   8.066  12.017  0.00  0.00    +0.000 C 
ATOM     23  C   UNL     1      44.861   6.660  12.418  0.00  0.00    +0.000 C 
BRANCH  23  24
ATOM     24  C   UNL     1      44.967   5.672  11.281  0.00  0.00    +0.000 A 
ATOM     25  C   UNL     1      45.580   5.968  10.073  0.00  0.00    +0.000 A 
ATOM     26  S   UNL     1      45.557   4.665   8.968  0.00  0.00    +0.000 S 
ATOM     27  C   UNL     1      44.723   3.669  10.070  0.00  0.00    +0.000 A 
ATOM     28  N   UNL     1      44.374   2.395   9.746  0.00  0.00    +0.000 NA
ATOM     29  C   UNL     1      43.752   1.761  10.684  0.00  0.00    +0.000 A 
ATOM     30  N   UNL     1      43.451   2.279  11.917  0.00  0.00    +0.000 N 
ATOM     31  C   UNL     1      43.739   3.576  12.273  0.00  0.00    +0.000 A 
ATOM     32  O   UNL     1      43.371   4.040  13.349  0.00  0.00    +0.000 OA
ATOM     33  C   UNL     1      44.466   4.320  11.261  0.00  0.00    +0.000 A 
ATOM     34  H   UNL     1      42.945   1.733  12.598  0.00  0.00    +0.000 HD
ENDBRANCH  23  24
ENDBRANCH   1  23
TORSDOF 6
ENDMDL
