MODEL 1
REMARK VINA RESULT:    -7.981      0.000      0.000
REMARK INTER + INTRA:         -11.984
REMARK INTER:                 -11.014
REMARK INTRA:                  -0.969
REMARK UNBOUND:                -0.969
REMARK  Name = 
REMARK  7 active torsions:
REMARK  status: ('A' for Active; 'I' for Inactive)
REMARK    1  A    between atoms: C_2  and  C_21
REMARK    2  A    between atoms: N_3  and  C_4
REMARK    3  A    between atoms: C_4  and  C_5
REMARK    4  A    between atoms: C_8  and  C_9
REMARK    5  A    between atoms: C_9  and  C_10
REMARK    6  A    between atoms: C_10  and  O_11
REMARK    7  A    between atoms: C_10  and  C_12
REMARK                            x       y       z     vdW  Elec       q    Type
REMARK                         _______ _______ _______ _____ _____    ______ ____
ROOT
ATOM      1  C   UNL     1      47.429   6.371  13.121  0.00  0.00    +0.000 A 
ATOM      2  C   UNL     1      46.806   5.212  13.601  0.00  0.00    +0.000 A 
ATOM      3  C   UNL     1      45.785   4.592  12.876  0.00  0.00    +0.000 A 
ATOM      4  C   UNL     1      45.357   5.119  11.653  0.00  0.00    +0.000 A 
ATOM      5  C   UNL     1      45.973   6.290  11.180  0.00  0.00    +0.000 A 
ATOM      6  C   UNL     1      47.002   6.907  11.901  0.00  0.00    +0.000 A 
ENDROOT
BRANCH   1   7
ATOM      7  C   UNL     1      48.576   6.973  13.885  0.00  0.00    +0.000 C 
BRANCH   7  10
ATOM      8  O   UNL     1      49.931   8.432  15.928  0.00  0.00    +0.000 OA
ATOM      9  C   UNL     1      49.061   7.621  16.228  0.00  0.00    +0.000 C 
ATOM     10  N   UNL     1      48.340   6.911  15.305  0.00  0.00    +0.000 N 
ATOM     11  H   UNL     1      47.671   6.222  15.617  0.00  0.00    +0.000 HD
BRANCH   9  12
ATOM     12  C   UNL     1      48.683   7.380  17.624  0.00  0.00    +0.000 A 
ATOM     13  C   UNL     1      48.141   8.395  18.398  0.00  0.00    +0.000 A 
ATOM     14  S   UNL     1      47.717   7.887  19.973  0.00  0.00    +0.000 S 
ATOM     15  C   UNL     1      48.290   6.310  19.683  0.00  0.00    +0.000 A 
ATOM     16  N   UNL     1      48.222   5.347  20.640  0.00  0.00    +0.000 NA
ATOM     17  C   UNL     1      48.718   4.209  20.286  0.00  0.00    +0.000 A 
ATOM     18  N   UNL     1      49.291   3.950  19.067  0.00  0.00    +0.000 N 
ATOM     19  C   UNL     1      49.365   4.882  18.064  0.00  0.00    +0.000 A 
ATOM     20  O   UNL     1      49.845   4.598  16.970  0.00  0.00    +0.000 OA
ATOM     21  C   UNL     1      48.802   6.173  18.404  0.00  0.00    +0.000 A 
ATOM     22  H   UNL     1      49.664   3.035  18.851  0.00  0.00    +0.000 HD
ENDBRANCH   9  12
ENDBRANCH   7  10
ENDBRANCH   1   7
BRANCH   4  23
ATOM     23  C   UNL     1      44.342   4.392  10.793  0.00  0.00    +0.000 C 
BRANCH  23  24
ATOM     24  C   UNL     1      44.675   4.166   9.314  0.00  0.00    +0.000 C 
BRANCH  24  25
ATOM     25  C   UNL     1      45.200   2.756   8.978  0.00  0.00    +0.000 C 
ATOM     26  O   UNL     1      44.699   1.776   9.541  0.00  0.00    +0.000 OA
ATOM     27  N   UNL     1      46.182   2.613   8.023  0.00  0.00    +0.000 N 
ATOM     28  C   UNL     1      46.817   3.640   7.216  0.00  0.00    +0.000 C 
ATOM     29  C   UNL     1      47.135   2.923   5.913  0.00  0.00    +0.000 C 
ATOM     30  C   UNL     1      47.475   1.508   6.363  0.00  0.00    +0.000 C 
ATOM     31  C   UNL     1      46.611   1.288   7.602  0.00  0.00    +0.000 C 
ENDBRANCH  24  25
BRANCH  24  32
ATOM     32  O   UNL     1      43.556   4.507   8.491  0.00  0.00    +0.000 OA
ATOM     33  H   UNL     1      43.747   4.108   7.617  0.00  0.00    +0.000 HD
ENDBRANCH  24  32
ENDBRANCH  23  24
ENDBRANCH   4  23
TORSDOF 7
ENDMDL
MODEL 2
REMARK VINA RESULT:    -7.955      1.249      1.982
REMARK INTER + INTRA:         -11.948
REMARK INTER:                 -10.945
REMARK INTRA:                  -1.002
REMARK UNBOUND:                -0.969
REMARK  Name = 
REMARK  7 active torsions:
REMARK  status: ('A' for Active; 'I' for Inactive)
REMARK    1  A    between atoms: C_2  and  C_21
REMARK    2  A    between atoms: N_3  and  C_4
REMARK    3  A    between atoms: C_4  and  C_5
REMARK    4  A    between atoms: C_8  and  C_9
REMARK    5  A    between atoms: C_9  and  C_10
REMARK    6  A    between atoms: C_10  and  O_11
REMARK    7  A    between atoms: C_10  and  C_12
REMARK                            x       y       z     vdW  Elec       q    Type
REMARK                         _______ _______ _______ _____ _____    ______ ____
ROOT
ATOM      1  C   UNL     1      47.301   6.362  13.247  0.00  0.00    +0.000 A 
ATOM      2  C   UNL     1      46.661   5.209  13.718  0.00  0.00    +0.000 A 
ATOM      3  C   UNL     1      45.681   4.569  12.956  0.00  0.00    +0.000 A 
ATOM      4  C   UNL     1      45.311   5.069  11.703  0.00  0.00    +0.000 A 
ATOM      5  C   UNL     1      45.944   6.235  11.238  0.00  0.00    +0.000 A 
ATOM      6  C   UNL     1      46.933   6.872  11.997  0.00  0.00    +0.000 A 
ENDROOT
BRANCH   1   7
ATOM      7  C   UNL     1      48.406   6.986  14.055  0.00  0.00    +0.000 C 
BRANCH   7  10
ATOM      8  O   UNL     1      50.474   6.267  15.884  0.00  0.00    +0.000 OA
ATOM      9  C   UNL     1      49.305   6.300  16.260  0.00  0.00    +0.000 C 
ATOM     10  N   UNL     1      48.263   6.672  15.454  0.00  0.00    +0.000 N 
ATOM     11  H   UNL     1      47.319   6.631  15.808  0.00  0.00    +0.000 HD
BRANCH   9  12
ATOM     12  C   UNL     1      48.934   5.985  17.642  0.00  0.00    +0.000 A 
ATOM     13  C   UNL     1      49.081   4.699  18.142  0.00  0.00    +0.000 A 
ATOM     14  S   UNL     1      48.648   4.563  19.789  0.00  0.00    +0.000 S 
ATOM     15  C   UNL     1      48.205   6.205  19.869  0.00  0.00    +0.000 A 
ATOM     16  N   UNL     1      47.740   6.756  21.022  0.00  0.00    +0.000 NA
ATOM     17  C   UNL     1      47.419   8.001  20.926  0.00  0.00    +0.000 A 
ATOM     18  N   UNL     1      47.505   8.746  19.777  0.00  0.00    +0.000 N 
ATOM     19  C   UNL     1      47.986   8.241  18.596  0.00  0.00    +0.000 A 
ATOM     20  O   UNL     1      48.090   8.952  17.599  0.00  0.00    +0.000 OA
ATOM     21  C   UNL     1      48.381   6.848  18.656  0.00  0.00    +0.000 A 
ATOM     22  H   UNL     1      47.237   9.720  19.766  0.00  0.00    +0.000 HD
ENDBRANCH   9  12
ENDBRANCH   7  10
ENDBRANCH   1   7
BRANCH   4  23
ATOM     23  C   UNL     1      44.344   4.319  10.809  0.00  0.00    +0.000 C 
BRANCH  23  24
ATOM     24  C   UNL     1      44.716   4.136   9.333  0.00  0.00    +0.000 C 
BRANCH  24  25
ATOM     25  C   UNL     1      45.251   2.735   8.971  0.00  0.00    +0.000 C 
ATOM     26  O   UNL     1      44.767   1.743   9.528  0.00  0.00    +0.000 OA
ATOM     27  N   UNL     1      46.220   2.615   8.000  0.00  0.00    +0.000 N 
ATOM     28  C   UNL     1      46.832   3.659   7.198  0.00  0.00    +0.000 C 
ATOM     29  C   UNL     1      47.139   2.962   5.881  0.00  0.00    +0.000 C 
ATOM     30  C   UNL     1      47.500   1.545   6.308  0.00  0.00    +0.000 C 
ATOM     31  C   UNL     1      46.656   1.300   7.556  0.00  0.00    +0.000 C 
ENDBRANCH  24  25
BRANCH  24  32
ATOM     32  O   UNL     1      43.618   4.500   8.491  0.00  0.00    +0.000 OA
ATOM     33  H   UNL     1      43.771   4.024   7.649  0.00  0.00    +0.000 HD
ENDBRANCH  24  32
ENDBRANCH  23  24
ENDBRANCH   4  23
TORSDOF 7
ENDMDL
MODEL 3
REMARK VINA RESULT:    -7.720      1.720      2.150
REMARK INTER + INTRA:         -11.623
REMARK INTER:                 -10.403
REMARK INTRA:                  -1.219
REMARK UNBOUND:                -0.969
REMARK  Name = 
REMARK  7 active torsions:
REMARK  status: ('A' for Active; 'I' for Inactive)
REMARK    1  A    between atoms: C_2  and  C_21
REMARK    2  A    between atoms: N_3  and  C_4
REMARK    3  A    between atoms: C_4  and  C_5
REMARK    4  A    between atoms: C_8  and  C_9
REMARK    5  A    between atoms: C_9  and  C_10
REMARK    6  A    between atoms: C_10  and  O_11
REMARK    7  A    between atoms: C_10  and  C_12
REMARK                            x       y       z     vdW  Elec       q    Type
REMARK                         _______ _______ _______ _____ _____    ______ ____
ROOT
ATOM      1  C   UNL     1      47.803   6.661  13.605  0.00  0.00    +0.000 A 
ATOM      2  C   UNL     1      46.834   7.563  13.150  0.00  0.00    +0.000 A 
ATOM      3  C   UNL     1      45.528   7.144  12.886  0.00  0.00    +0.000 A 
ATOM      4  C   UNL     1      45.158   5.808  13.067  0.00  0.00    +0.000 A 
ATOM      5  C   UNL     1      46.134   4.899  13.510  0.00  0.00    +0.000 A 
ATOM      6  C   UNL     1      47.441   5.321  13.783  0.00  0.00    +0.000 A 
ENDROOT
BRANCH   1   7
ATOM      7  C   UNL     1      49.180   7.155  13.953  0.00  0.00    +0.000 C 
BRANCH   7  10
ATOM      8  O   UNL     1      48.367   8.789  16.146  0.00  0.00    +0.000 OA
ATOM      9  C   UNL     1      49.068   7.801  16.344  0.00  0.00    +0.000 C 
ATOM     10  N   UNL     1      49.466   6.947  15.349  0.00  0.00    +0.000 N 
ATOM     11  H   UNL     1      50.084   6.180  15.569  0.00  0.00    +0.000 HD
BRANCH   9  12
ATOM     12  C   UNL     1      49.501   7.423  17.691  0.00  0.00    +0.000 A 
ATOM     13  C   UNL     1      50.426   8.191  18.382  0.00  0.00    +0.000 A 
ATOM     14  S   UNL     1      50.746   7.609  19.956  0.00  0.00    +0.000 S 
ATOM     15  C   UNL     1      49.695   6.286  19.743  0.00  0.00    +0.000 A 
ATOM     16  N   UNL     1      49.497   5.374  20.732  0.00  0.00    +0.000 NA
ATOM     17  C   UNL     1      48.695   4.413  20.419  0.00  0.00    +0.000 A 
ATOM     18  N   UNL     1      48.083   4.271  19.199  0.00  0.00    +0.000 N 
ATOM     19  C   UNL     1      48.235   5.174  18.179  0.00  0.00    +0.000 A 
ATOM     20  O   UNL     1      47.633   5.036  17.116  0.00  0.00    +0.000 OA
ATOM     21  C   UNL     1      49.111   6.285  18.488  0.00  0.00    +0.000 A 
ATOM     22  H   UNL     1      47.464   3.493  19.015  0.00  0.00    +0.000 HD
ENDBRANCH   9  12
ENDBRANCH   7  10
ENDBRANCH   1   7
BRANCH   4  23
ATOM     23  C   UNL     1      43.718   5.360  12.908  0.00  0.00    +0.000 C 
BRANCH  23  24
ATOM     24  C   UNL     1      43.209   5.041  11.498  0.00  0.00    +0.000 C 
BRANCH  24  25
ATOM     25  C   UNL     1      43.565   3.631  10.986  0.00  0.00    +0.000 C 
ATOM     26  O   UNL     1      42.944   2.656  11.425  0.00  0.00    +0.000 OA
ATOM     27  N   UNL     1      44.531   3.491  10.014  0.00  0.00    +0.000 N 
ATOM     28  C   UNL     1      45.291   4.527   9.338  0.00  0.00    +0.000 C 
ATOM     29  C   UNL     1      45.534   3.945   7.954  0.00  0.00    +0.000 C 
ATOM     30  C   UNL     1      45.697   2.454   8.222  0.00  0.00    +0.000 C 
ATOM     31  C   UNL     1      44.801   2.187   9.429  0.00  0.00    +0.000 C 
ENDBRANCH  24  25
BRANCH  24  32
ATOM     32  O   UNL     1      41.802   5.282  11.407  0.00  0.00    +0.000 OA
ATOM     33  H   UNL     1      41.675   5.743  10.552  0.00  0.00    +0.000 HD
ENDBRANCH  24  32
ENDBRANCH  23  24
ENDBRANCH   4  23
TORSDOF 7
ENDMDL
MODEL 4
REMARK VINA RESULT:    -7.637      2.357      2.852
REMARK INTER + INTRA:         -11.508
REMARK INTER:                 -10.306
REMARK INTRA:                  -1.203
REMARK UNBOUND:                -0.969
REMARK  Name = 
REMARK  7 active torsions:
REMARK  status: ('A' for Active; 'I' for Inactive)
REMARK    1  A    between atoms: C_2  and  C_21
REMARK    2  A    between atoms: N_3  and  C_4
REMARK    3  A    between atoms: C_4  and  C_5
REMARK    4  A    between atoms: C_8  and  C_9
REMARK    5  A    between atoms: C_9  and  C_10
REMARK    6  A    between atoms: C_10  and  O_11
REMARK    7  A    between atoms: C_10  and  C_12
REMARK                            x       y       z     vdW  Elec       q    Type
REMARK                         _______ _______ _______ _____ _____    ______ ____
ROOT
ATOM      1  C   UNL     1      47.789   7.139  12.675  0.00  0.00    +0.000 A 
ATOM      2  C   UNL     1      47.538   5.876  13.225  0.00  0.00    +0.000 A 
ATOM      3  C   UNL     1      46.239   5.368  13.296  0.00  0.00    +0.000 A 
ATOM      4  C   UNL     1      45.155   6.112  12.821  0.00  0.00    +0.000 A 
ATOM      5  C   UNL     1      45.405   7.386  12.282  0.00  0.00    +0.000 A 
ATOM      6  C   UNL     1      46.709   7.892  12.203  0.00  0.00    +0.000 A 
ENDROOT
BRANCH   1   7
ATOM      7  C   UNL     1      49.205   7.629  12.544  0.00  0.00    +0.000 C 
BRANCH   7  10
ATOM      8  O   UNL     1      50.028   9.035  14.886  0.00  0.00    +0.000 OA
ATOM      9  C   UNL     1      50.408   7.883  14.696  0.00  0.00    +0.000 C 
ATOM     10  N   UNL     1      50.025   7.131  13.618  0.00  0.00    +0.000 N 
ATOM     11  H   UNL     1      50.412   6.206  13.493  0.00  0.00    +0.000 HD
BRANCH   9  12
ATOM     12  C   UNL     1      51.277   7.194  15.653  0.00  0.00    +0.000 A 
ATOM     13  C   UNL     1      52.646   7.420  15.660  0.00  0.00    +0.000 A 
ATOM     14  S   UNL     1      53.464   6.564  16.891  0.00  0.00    +0.000 S 
ATOM     15  C   UNL     1      52.021   5.829  17.420  0.00  0.00    +0.000 A 
ATOM     16  N   UNL     1      52.013   4.962  18.468  0.00  0.00    +0.000 NA
ATOM     17  C   UNL     1      50.854   4.464  18.737  0.00  0.00    +0.000 A 
ATOM     18  N   UNL     1      49.702   4.741  18.045  0.00  0.00    +0.000 N 
ATOM     19  C   UNL     1      49.656   5.623  16.996  0.00  0.00    +0.000 A 
ATOM     20  O   UNL     1      48.597   5.880  16.430  0.00  0.00    +0.000 OA
ATOM     21  C   UNL     1      50.931   6.227  16.666  0.00  0.00    +0.000 A 
ATOM     22  H   UNL     1      48.823   4.317  18.306  0.00  0.00    +0.000 HD
ENDBRANCH   9  12
ENDBRANCH   7  10
ENDBRANCH   1   7
BRANCH   4  23
ATOM     23  C   UNL     1      43.757   5.527  12.772  0.00  0.00    +0.000 C 
BRANCH  23  24
ATOM     24  C   UNL     1      43.194   5.108  11.409  0.00  0.00    +0.000 C 
BRANCH  24  25
ATOM     25  C   UNL     1      43.593   3.689  10.955  0.00  0.00    +0.000 C 
ATOM     26  O   UNL     1      42.997   2.715  11.429  0.00  0.00    +0.000 OA
ATOM     27  N   UNL     1      44.569   3.537   9.996  0.00  0.00    +0.000 N 
ATOM     28  C   UNL     1      45.305   4.567   9.283  0.00  0.00    +0.000 C 
ATOM     29  C   UNL     1      45.573   3.938   7.925  0.00  0.00    +0.000 C 
ATOM     30  C   UNL     1      45.775   2.464   8.253  0.00  0.00    +0.000 C 
ATOM     31  C   UNL     1      44.880   2.219   9.464  0.00  0.00    +0.000 C 
ENDBRANCH  24  25
BRANCH  24  32
ATOM     32  O   UNL     1      41.775   5.278  11.379  0.00  0.00    +0.000 OA
ATOM     33  H   UNL     1      41.406   4.371  11.435  0.00  0.00    +0.000 HD
ENDBRANCH  24  32
ENDBRANCH  23  24
ENDBRANCH   4  23
TORSDOF 7
ENDMDL
MODEL 5
REMARK VINA RESULT:    -7.187      2.638      4.197
REMARK INTER + INTRA:         -10.887
REMARK INTER:                  -9.919
REMARK INTRA:                  -0.968
REMARK UNBOUND:                -0.969
REMARK  Name = 
REMARK  7 active torsions:
REMARK  status: ('A' for Active; 'I' for Inactive)
REMARK    1  A    between atoms: C_2  and  C_21
REMARK    2  A    between atoms: N_3  and  C_4
REMARK    3  A    between atoms: C_4  and  C_5
REMARK    4  A    between atoms: C_8  and  C_9
REMARK    5  A    between atoms: C_9  and  C_10
REMARK    6  A    between atoms: C_10  and  O_11
REMARK    7  A    between atoms: C_10  and  C_12
REMARK                            x       y       z     vdW  Elec       q    Type
REMARK                         _______ _______ _______ _____ _____    ______ ____
ROOT
ATOM      1  C   UNL     1      46.350   4.720  14.031  0.00  0.00    +0.000 A 
ATOM      2  C   UNL     1      46.425   3.471  13.404  0.00  0.00    +0.000 A 
ATOM      3  C   UNL     1      45.597   3.158  12.323  0.00  0.00    +0.000 A 
ATOM      4  C   UNL     1      44.668   4.087  11.844  0.00  0.00    +0.000 A 
ATOM      5  C   UNL     1      44.583   5.336  12.484  0.00  0.00    +0.000 A 
ATOM      6  C   UNL     1      45.419   5.653  13.562  0.00  0.00    +0.000 A 
ENDROOT
BRANCH   1   7
ATOM      7  C   UNL     1      47.305   5.056  15.143  0.00  0.00    +0.000 C 
BRANCH   7  10
ATOM      8  O   UNL     1      49.806   5.932  16.202  0.00  0.00    +0.000 OA
ATOM      9  C   UNL     1      49.154   6.674  15.472  0.00  0.00    +0.000 C 
ATOM     10  N   UNL     1      47.966   6.312  14.895  0.00  0.00    +0.000 N 
ATOM     11  H   UNL     1      47.454   6.985  14.345  0.00  0.00    +0.000 HD
BRANCH   9  12
ATOM     12  C   UNL     1      49.631   8.013  15.115  0.00  0.00    +0.000 A 
ATOM     13  C   UNL     1      49.886   8.961  16.095  0.00  0.00    +0.000 A 
ATOM     14  S   UNL     1      50.490  10.431  15.469  0.00  0.00    +0.000 S 
ATOM     15  C   UNL     1      50.383   9.861  13.868  0.00  0.00    +0.000 A 
ATOM     16  N   UNL     1      50.757  10.637  12.816  0.00  0.00    +0.000 NA
ATOM     17  C   UNL     1      50.595  10.084  11.662  0.00  0.00    +0.000 A 
ATOM     18  N   UNL     1      50.079   8.828  11.461  0.00  0.00    +0.000 N 
ATOM     19  C   UNL     1      49.708   8.001  12.490  0.00  0.00    +0.000 A 
ATOM     20  O   UNL     1      49.293   6.866  12.271  0.00  0.00    +0.000 OA
ATOM     21  C   UNL     1      49.890   8.570  13.810  0.00  0.00    +0.000 A 
ATOM     22  H   UNL     1      49.977   8.450  10.529  0.00  0.00    +0.000 HD
ENDBRANCH   9  12
ENDBRANCH   7  10
ENDBRANCH   1   7
BRANCH   4  23
ATOM     23  C   UNL     1      43.852   3.815  10.596  0.00  0.00    +0.000 C 
BRANCH  23  24
ATOM     24  C   UNL     1      44.565   3.864   9.239  0.00  0.00    +0.000 C 
BRANCH  24  25
ATOM     25  C   UNL     1      45.208   2.534   8.799  0.00  0.00    +0.000 C 
ATOM     26  O   UNL     1      44.757   1.471   9.241  0.00  0.00    +0.000 OA
ATOM     27  N   UNL     1      46.239   2.553   7.886  0.00  0.00    +0.000 N 
ATOM     28  C   UNL     1      46.829   3.696   7.212  0.00  0.00    +0.000 C 
ATOM     29  C   UNL     1      47.257   3.133   5.865  0.00  0.00    +0.000 C 
ATOM     30  C   UNL     1      47.681   1.708   6.197  0.00  0.00    +0.000 C 
ATOM     31  C   UNL     1      46.783   1.309   7.364  0.00  0.00    +0.000 C 
ENDBRANCH  24  25
BRANCH  24  32
ATOM     32  O   UNL     1      43.686   4.369   8.230  0.00  0.00    +0.000 OA
ATOM     33  H   UNL     1      44.027   5.262   8.015  0.00  0.00    +0.000 HD
ENDBRANCH  24  32
ENDBRANCH  23  24
ENDBRANCH   4  23
TORSDOF 7
ENDMDL
MODEL 6
REMARK VINA RESULT:    -7.155      2.869      8.893
REMARK INTER + INTRA:         -10.843
REMARK INTER:                  -9.486
REMARK INTRA:                  -1.357
REMARK UNBOUND:                -0.969
REMARK  Name = 
REMARK  7 active torsions:
REMARK  status: ('A' for Active; 'I' for Inactive)
REMARK    1  A    between atoms: C_2  and  C_21
REMARK    2  A    between atoms: N_3  and  C_4
REMARK    3  A    between atoms: C_4  and  C_5
REMARK    4  A    between atoms: C_8  and  C_9
REMARK    5  A    between atoms: C_9  and  C_10
REMARK    6  A    between atoms: C_10  and  O_11
REMARK    7  A    between atoms: C_10  and  C_12
REMARK                            x       y       z     vdW  Elec       q    Type
REMARK                         _______ _______ _______ _____ _____    ______ ____
ROOT
ATOM      1  C   UNL     1      48.377   8.029  13.202  0.00  0.00    +0.000 A 
ATOM      2  C   UNL     1      49.500   7.313  13.632  0.00  0.00    +0.000 A 
ATOM      3  C   UNL     1      49.944   7.397  14.954  0.00  0.00    +0.000 A 
ATOM      4  C   UNL     1      49.276   8.204  15.881  0.00  0.00    +0.000 A 
ATOM      5  C   UNL     1      48.157   8.934  15.444  0.00  0.00    +0.000 A 
ATOM      6  C   UNL     1      47.707   8.843  14.121  0.00  0.00    +0.000 A 
ENDROOT
BRANCH   1   7
ATOM      7  C   UNL     1      47.879   7.861  11.793  0.00  0.00    +0.000 C 
BRANCH   7  10
ATOM      8  O   UNL     1      45.028   7.735  11.819  0.00  0.00    +0.000 OA
ATOM      9  C   UNL     1      45.688   6.703  11.731  0.00  0.00    +0.000 C 
ATOM     10  N   UNL     1      47.056   6.684  11.673  0.00  0.00    +0.000 N 
ATOM     11  H   UNL     1      47.542   5.800  11.651  0.00  0.00    +0.000 HD
BRANCH   9  12
ATOM     12  C   UNL     1      45.048   5.389  11.628  0.00  0.00    +0.000 A 
ATOM     13  C   UNL     1      44.394   4.830  12.717  0.00  0.00    +0.000 A 
ATOM     14  S   UNL     1      43.668   3.324  12.366  0.00  0.00    +0.000 S 
ATOM     15  C   UNL     1      44.246   3.352  10.765  0.00  0.00    +0.000 A 
ATOM     16  N   UNL     1      43.974   2.340   9.898  0.00  0.00    +0.000 NA
ATOM     17  C   UNL     1      44.499   2.485   8.729  0.00  0.00    +0.000 A 
ATOM     18  N   UNL     1      45.286   3.543   8.349  0.00  0.00    +0.000 N 
ATOM     19  C   UNL     1      45.571   4.595   9.180  0.00  0.00    +0.000 A 
ATOM     20  O   UNL     1      46.243   5.547   8.789  0.00  0.00    +0.000 OA
ATOM     21  C   UNL     1      44.986   4.491  10.501  0.00  0.00    +0.000 A 
ATOM     22  H   UNL     1      45.669   3.598   7.416  0.00  0.00    +0.000 HD
ENDBRANCH   9  12
ENDBRANCH   7  10
ENDBRANCH   1   7
BRANCH   4  23
ATOM     23  C   UNL     1      49.663   8.210  17.347  0.00  0.00    +0.000 C 
BRANCH  23  24
ATOM     24  C   UNL     1      49.067   7.130  18.258  0.00  0.00    +0.000 C 
BRANCH  24  25
ATOM     25  C   UNL     1      49.813   5.780  18.232  0.00  0.00    +0.000 C 
ATOM     26  O   UNL     1      50.843   5.648  18.901  0.00  0.00    +0.000 OA
ATOM     27  N   UNL     1      49.288   4.735  17.504  0.00  0.00    +0.000 N 
ATOM     28  C   UNL     1      48.057   4.696  16.735  0.00  0.00    +0.000 C 
ATOM     29  C   UNL     1      47.607   3.249  16.857  0.00  0.00    +0.000 C 
ATOM     30  C   UNL     1      48.918   2.472  16.880  0.00  0.00    +0.000 C 
ATOM     31  C   UNL     1      49.905   3.419  17.558  0.00  0.00    +0.000 C 
ENDBRANCH  24  25
BRANCH  24  32
ATOM     32  O   UNL     1      48.936   7.620  19.595  0.00  0.00    +0.000 OA
ATOM     33  H   UNL     1      48.462   8.473  19.511  0.00  0.00    +0.000 HD
ENDBRANCH  24  32
ENDBRANCH  23  24
ENDBRANCH   4  23
TORSDOF 7
ENDMDL
MODEL 7
REMARK VINA RESULT:    -7.105      1.693      2.413
REMARK INTER + INTRA:         -10.774
REMARK INTER:                 -10.608
REMARK INTRA:                  -0.166
REMARK UNBOUND:                -0.969
REMARK  Name = 
REMARK  7 active torsions:
REMARK  status: ('A' for Active; 'I' for Inactive)
REMARK    1  A    between atoms: C_2  and  C_21
REMARK    2  A    between atoms: N_3  and  C_4
REMARK    3  A    between atoms: C_4  and  C_5
REMARK    4  A    between atoms: C_8  and  C_9
REMARK    5  A    between atoms: C_9  and  C_10
REMARK    6  A    between atoms: C_10  and  O_11
REMARK    7  A    between atoms: C_10  and  C_12
REMARK                            x       y       z     vdW  Elec       q    Type
REMARK                         _______ _______ _______ _____ _____    ______ ____
ROOT
ATOM      1  C   UNL     1      46.693   4.767  14.109  0.00  0.00    +0.000 A 
ATOM      2  C   UNL     1      45.831   3.912  13.412  0.00  0.00    +0.000 A 
ATOM      3  C   UNL     1      45.469   4.177  12.089  0.00  0.00    +0.000 A 
ATOM      4  C   UNL     1      45.959   5.309  11.429  0.00  0.00    +0.000 A 
ATOM      5  C   UNL     1      46.812   6.175  12.134  0.00  0.00    +0.000 A 
ATOM      6  C   UNL     1      47.182   5.905  13.457  0.00  0.00    +0.000 A 
ENDROOT
BRANCH   1   7
ATOM      7  C   UNL     1      47.124   4.416  15.506  0.00  0.00    +0.000 C 
BRANCH   7  10
ATOM      8  O   UNL     1      49.677   4.571  16.769  0.00  0.00    +0.000 OA
ATOM      9  C   UNL     1      48.925   5.540  16.786  0.00  0.00    +0.000 C 
ATOM     10  N   UNL     1      47.701   5.557  16.170  0.00  0.00    +0.000 N 
ATOM     11  H   UNL     1      47.108   6.368  16.263  0.00  0.00    +0.000 HD
BRANCH   9  12
ATOM     12  C   UNL     1      49.305   6.796  17.437  0.00  0.00    +0.000 A 
ATOM     13  C   UNL     1      50.355   7.560  16.949  0.00  0.00    +0.000 A 
ATOM     14  S   UNL     1      50.592   9.012  17.816  0.00  0.00    +0.000 S 
ATOM     15  C   UNL     1      49.332   8.640  18.899  0.00  0.00    +0.000 A 
ATOM     16  N   UNL     1      48.997   9.486  19.911  0.00  0.00    +0.000 NA
ATOM     17  C   UNL     1      48.042   9.060  20.666  0.00  0.00    +0.000 A 
ATOM     18  N   UNL     1      47.399   7.858  20.513  0.00  0.00    +0.000 N 
ATOM     19  C   UNL     1      47.686   6.982  19.498  0.00  0.00    +0.000 A 
ATOM     20  O   UNL     1      47.057   5.936  19.367  0.00  0.00    +0.000 OA
ATOM     21  C   UNL     1      48.740   7.424  18.607  0.00  0.00    +0.000 A 
ATOM     22  H   UNL     1      46.657   7.581  21.140  0.00  0.00    +0.000 HD
ENDBRANCH   9  12
ENDBRANCH   7  10
ENDBRANCH   1   7
BRANCH   4  23
ATOM     23  C   UNL     1      45.681   5.546   9.957  0.00  0.00    +0.000 C 
BRANCH  23  24
ATOM     24  C   UNL     1      44.627   4.671   9.268  0.00  0.00    +0.000 C 
BRANCH  24  25
ATOM     25  C   UNL     1      45.021   3.188   9.112  0.00  0.00    +0.000 C 
ATOM     26  O   UNL     1      44.430   2.334   9.781  0.00  0.00    +0.000 OA
ATOM     27  N   UNL     1      45.988   2.841   8.195  0.00  0.00    +0.000 N 
ATOM     28  C   UNL     1      46.717   3.701   7.279  0.00  0.00    +0.000 C 
ATOM     29  C   UNL     1      46.971   2.806   6.076  0.00  0.00    +0.000 C 
ATOM     30  C   UNL     1      47.177   1.430   6.698  0.00  0.00    +0.000 C 
ATOM     31  C   UNL     1      46.293   1.442   7.942  0.00  0.00    +0.000 C 
ENDBRANCH  24  25
BRANCH  24  32
ATOM     32  O   UNL     1      43.363   4.801   9.924  0.00  0.00    +0.000 OA
ATOM     33  H   UNL     1      43.577   5.027  10.853  0.00  0.00    +0.000 HD
ENDBRANCH  24  32
ENDBRANCH  23  24
ENDBRANCH   4  23
TORSDOF 7
ENDMDL
MODEL 8
REMARK VINA RESULT:    -6.835      3.286      4.498
REMARK INTER + INTRA:         -10.402
REMARK INTER:                  -9.894
REMARK INTRA:                  -0.507
REMARK UNBOUND:                -0.969
REMARK  Name = 
REMARK  7 active torsions:
REMARK  status: ('A' for Active; 'I' for Inactive)
REMARK    1  A    between atoms: C_2  and  C_21
REMARK    2  A    between atoms: N_3  and  C_4
REMARK    3  A    between atoms: C_4  and  C_5
REMARK    4  A    between atoms: C_8  and  C_9
REMARK    5  A    between atoms: C_9  and  C_10
REMARK    6  A    between atoms: C_10  and  O_11
REMARK    7  A    between atoms: C_10  and  C_12
REMARK                            x       y       z     vdW  Elec       q    Type
REMARK                         _______ _______ _______ _____ _____    ______ ____
ROOT
ATOM      1  C   UNL     1      47.907   5.197  15.770  0.00  0.00    +0.000 A 
ATOM      2  C   UNL     1      48.316   6.426  15.237  0.00  0.00    +0.000 A 
ATOM      3  C   UNL     1      47.939   6.812  13.949  0.00  0.00    +0.000 A 
ATOM      4  C   UNL     1      47.145   5.975  13.157  0.00  0.00    +0.000 A 
ATOM      5  C   UNL     1      46.747   4.736  13.688  0.00  0.00    +0.000 A 
ATOM      6  C   UNL     1      47.118   4.352  14.983  0.00  0.00    +0.000 A 
ENDROOT
BRANCH   1   7
ATOM      7  C   UNL     1      48.266   4.842  17.187  0.00  0.00    +0.000 C 
BRANCH   7  10
ATOM      8  O   UNL     1      49.891   4.739  19.530  0.00  0.00    +0.000 OA
ATOM      9  C   UNL     1      50.362   4.423  18.441  0.00  0.00    +0.000 C 
ATOM     10  N   UNL     1      49.637   4.409  17.280  0.00  0.00    +0.000 N 
ATOM     11  H   UNL     1      50.095   4.187  16.408  0.00  0.00    +0.000 HD
BRANCH   9  12
ATOM     12  C   UNL     1      51.752   3.979  18.306  0.00  0.00    +0.000 A 
ATOM     13  C   UNL     1      52.803   4.838  18.592  0.00  0.00    +0.000 A 
ATOM     14  S   UNL     1      54.337   4.104  18.427  0.00  0.00    +0.000 S 
ATOM     15  C   UNL     1      53.644   2.633  17.923  0.00  0.00    +0.000 A 
ATOM     16  N   UNL     1      54.417   1.556  17.618  0.00  0.00    +0.000 NA
ATOM     17  C   UNL     1      53.756   0.520  17.226  0.00  0.00    +0.000 A 
ATOM     18  N   UNL     1      52.391   0.465  17.095  0.00  0.00    +0.000 N 
ATOM     19  C   UNL     1      51.569   1.517  17.409  0.00  0.00    +0.000 A 
ATOM     20  O   UNL     1      50.348   1.414  17.322  0.00  0.00    +0.000 OA
ATOM     21  C   UNL     1      52.262   2.700  17.876  0.00  0.00    +0.000 A 
ATOM     22  H   UNL     1      51.931  -0.378  16.781  0.00  0.00    +0.000 HD
ENDBRANCH   9  12
ENDBRANCH   7  10
ENDBRANCH   1   7
BRANCH   4  23
ATOM     23  C   UNL     1      46.620   6.429  11.809  0.00  0.00    +0.000 C 
BRANCH  23  24
ATOM     24  C   UNL     1      45.105   6.401  11.574  0.00  0.00    +0.000 C 
BRANCH  24  25
ATOM     25  C   UNL     1      44.498   4.990  11.441  0.00  0.00    +0.000 C 
ATOM     26  O   UNL     1      43.717   4.586  12.309  0.00  0.00    +0.000 OA
ATOM     27  N   UNL     1      44.800   4.229  10.333  0.00  0.00    +0.000 N 
ATOM     28  C   UNL     1      45.626   4.580   9.192  0.00  0.00    +0.000 C 
ATOM     29  C   UNL     1      44.986   3.820   8.041  0.00  0.00    +0.000 C 
ATOM     30  C   UNL     1      44.499   2.533   8.697  0.00  0.00    +0.000 C 
ATOM     31  C   UNL     1      44.149   2.945  10.124  0.00  0.00    +0.000 C 
ENDBRANCH  24  25
BRANCH  24  32
ATOM     32  O   UNL     1      44.429   7.159  12.580  0.00  0.00    +0.000 OA
ATOM     33  H   UNL     1      44.849   6.897  13.426  0.00  0.00    +0.000 HD
ENDBRANCH  24  32
ENDBRANCH  23  24
ENDBRANCH   4  23
TORSDOF 7
ENDMDL
MODEL 9
REMARK VINA RESULT:    -6.725      3.336      4.780
REMARK INTER + INTRA:         -10.250
REMARK INTER:                  -9.871
REMARK INTRA:                  -0.378
REMARK UNBOUND:                -0.969
REMARK  Name = 
REMARK  7 active torsions:
REMARK  status: ('A' for Active; 'I' for Inactive)
REMARK    1  A    between atoms: C_2  and  C_21
REMARK    2  A    between atoms: N_3  and  C_4
REMARK    3  A    between atoms: C_4  and  C_5
REMARK    4  A    between atoms: C_8  and  C_9
REMARK    5  A    between atoms: C_9  and  C_10
REMARK    6  A    between atoms: C_10  and  O_11
REMARK    7  A    between atoms: C_10  and  C_12
REMARK                            x       y       z     vdW  Elec       q    Type
REMARK                         _______ _______ _______ _____ _____    ______ ____
ROOT
ATOM      1  C   UNL     1      47.554   4.211  15.886  0.00  0.00    +0.000 A 
ATOM      2  C   UNL     1      47.919   5.557  15.760  0.00  0.00    +0.000 A 
ATOM      3  C   UNL     1      47.721   6.246  14.561  0.00  0.00    +0.000 A 
ATOM      4  C   UNL     1      47.155   5.604  13.455  0.00  0.00    +0.000 A 
ATOM      5  C   UNL     1      46.801   4.250  13.578  0.00  0.00    +0.000 A 
ATOM      6  C   UNL     1      46.992   3.561  14.783  0.00  0.00    +0.000 A 
ENDROOT
BRANCH   1   7
ATOM      7  C   UNL     1      47.709   3.517  17.212  0.00  0.00    +0.000 C 
BRANCH   7  10
ATOM      8  O   UNL     1      49.449   1.615  15.989  0.00  0.00    +0.000 OA
ATOM      9  C   UNL     1      49.860   2.323  16.903  0.00  0.00    +0.000 C 
ATOM     10  N   UNL     1      49.099   3.284  17.513  0.00  0.00    +0.000 N 
ATOM     11  H   UNL     1      49.479   3.801  18.293  0.00  0.00    +0.000 HD
BRANCH   9  12
ATOM     12  C   UNL     1      51.239   2.228  17.388  0.00  0.00    +0.000 A 
ATOM     13  C   UNL     1      51.802   0.998  17.694  0.00  0.00    +0.000 A 
ATOM     14  S   UNL     1      53.435   1.106  18.184  0.00  0.00    +0.000 S 
ATOM     15  C   UNL     1      53.423   2.804  18.049  0.00  0.00    +0.000 A 
ATOM     16  N   UNL     1      54.532   3.541  18.325  0.00  0.00    +0.000 NA
ATOM     17  C   UNL     1      54.368   4.815  18.205  0.00  0.00    +0.000 A 
ATOM     18  N   UNL     1      53.190   5.422  17.848  0.00  0.00    +0.000 N 
ATOM     19  C   UNL     1      52.053   4.721  17.541  0.00  0.00    +0.000 A 
ATOM     20  O   UNL     1      51.030   5.299  17.181  0.00  0.00    +0.000 OA
ATOM     21  C   UNL     1      52.191   3.282  17.640  0.00  0.00    +0.000 A 
ATOM     22  H   UNL     1      53.125   6.428  17.772  0.00  0.00    +0.000 HD
ENDBRANCH   9  12
ENDBRANCH   7  10
ENDBRANCH   1   7
BRANCH   4  23
ATOM     23  C   UNL     1      46.814   6.367  12.189  0.00  0.00    +0.000 C 
BRANCH  23  24
ATOM     24  C   UNL     1      45.339   6.487  11.790  0.00  0.00    +0.000 C 
BRANCH  24  25
ATOM     25  C   UNL     1      44.609   5.141  11.605  0.00  0.00    +0.000 C 
ATOM     26  O   UNL     1      43.775   4.788  12.446  0.00  0.00    +0.000 OA
ATOM     27  N   UNL     1      44.864   4.385  10.482  0.00  0.00    +0.000 N 
ATOM     28  C   UNL     1      45.744   4.689   9.368  0.00  0.00    +0.000 C 
ATOM     29  C   UNL     1      45.062   4.021   8.184  0.00  0.00    +0.000 C 
ATOM     30  C   UNL     1      44.445   2.768   8.793  0.00  0.00    +0.000 C 
ATOM     31  C   UNL     1      44.103   3.173  10.224  0.00  0.00    +0.000 C 
ENDBRANCH  24  25
BRANCH  24  32
ATOM     32  O   UNL     1      44.639   7.330  12.708  0.00  0.00    +0.000 OA
ATOM     33  H   UNL     1      44.936   7.045  13.597  0.00  0.00    +0.000 HD
ENDBRANCH  24  32
ENDBRANCH  23  24
ENDBRANCH   4  23
TORSDOF 7
ENDMDL
