MODEL 1
REMARK VINA RESULT:    -8.969      0.000      0.000
REMARK INTER + INTRA:         -12.222
REMARK INTER:                 -11.591
REMARK INTRA:                  -0.631
REMARK UNBOUND:                -0.631
REMARK  Name = 
REMARK  6 active torsions:
REMARK  status: ('A' for Active; 'I' for Inactive)
REMARK    1  A    between atoms: C_1  and  C_2
REMARK    2  A    between atoms: C_2  and  N_3
REMARK    3  A    between atoms: C_2  and  C_16
REMARK    4  A    between atoms: C_4  and  C_6
REMARK    5  A    between atoms: C_19  and  C_20
REMARK    6  A    between atoms: C_20  and  C_21
REMARK                            x       y       z     vdW  Elec       q    Type
REMARK                         _______ _______ _______ _____ _____    ______ ____
ROOT
ATOM      1  C   UNL     1      45.348   8.640  12.882  0.00  0.00    +0.000 C 
ATOM      2  C   UNL     1      46.460   7.599  12.704  0.00  0.00    +0.000 C 
ENDROOT
BRANCH   2   3
ATOM      3  C   UNL     1      45.964   6.428  11.865  0.00  0.00    +0.000 A 
ATOM      4  C   UNL     1      45.324   5.343  12.479  0.00  0.00    +0.000 A 
ATOM      5  C   UNL     1      44.889   4.251  11.721  0.00  0.00    +0.000 A 
ATOM      6  C   UNL     1      45.065   4.227  10.331  0.00  0.00    +0.000 A 
ATOM      7  C   UNL     1      45.682   5.321   9.714  0.00  0.00    +0.000 A 
ATOM      8  C   UNL     1      46.130   6.406  10.471  0.00  0.00    +0.000 A 
BRANCH   6   9
ATOM      9  C   UNL     1      44.615   3.042   9.507  0.00  0.00    +0.000 C 
BRANCH   9  10
ATOM     10  C   UNL     1      45.594   2.551   8.462  0.00  0.00    +0.000 A 
ATOM     11  C   UNL     1      45.930   3.344   7.366  0.00  0.00    +0.000 A 
ATOM     12  C   UNL     1      46.722   2.806   6.354  0.00  0.00    +0.000 A 
ATOM     13  C   UNL     1      47.163   1.494   6.461  0.00  0.00    +0.000 A 
ATOM     14  C   UNL     1      46.806   0.777   7.589  0.00  0.00    +0.000 A 
ATOM     15  N   UNL     1      46.034   1.271   8.583  0.00  0.00    +0.000 NA
ENDBRANCH   9  10
ENDBRANCH   6   9
ENDBRANCH   2   3
BRANCH   2  16
ATOM     16  N   UNL     1      46.974   7.108  13.972  0.00  0.00    +0.000 N 
ATOM     17  C   UNL     1      48.276   6.689  14.124  0.00  0.00    +0.000 C 
ATOM     18  O   UNL     1      49.100   6.742  13.218  0.00  0.00    +0.000 OA
ATOM     19  H   UNL     1      46.285   6.762  14.632  0.00  0.00    +0.000 HD
BRANCH  17  20
ATOM     20  C   UNL     1      48.658   6.222  15.460  0.00  0.00    +0.000 A 
ATOM     21  C   UNL     1      49.620   6.918  16.179  0.00  0.00    +0.000 A 
ATOM     22  S   UNL     1      49.951   6.240  17.708  0.00  0.00    +0.000 S 
ATOM     23  C   UNL     1      48.855   4.967  17.441  0.00  0.00    +0.000 A 
ATOM     24  N   UNL     1      48.690   3.980  18.361  0.00  0.00    +0.000 NA
ATOM     25  C   UNL     1      47.852   3.061  18.013  0.00  0.00    +0.000 A 
ATOM     26  N   UNL     1      47.152   3.049  16.833  0.00  0.00    +0.000 N 
ATOM     27  C   UNL     1      47.253   4.045  15.893  0.00  0.00    +0.000 A 
ATOM     28  O   UNL     1      46.568   4.044  14.878  0.00  0.00    +0.000 OA
ATOM     29  C   UNL     1      48.213   5.082  16.221  0.00  0.00    +0.000 A 
ATOM     30  H   UNL     1      46.493   2.312  16.631  0.00  0.00    +0.000 HD
ENDBRANCH  17  20
ENDBRANCH   2  16
TORSDOF 5
ENDMDL
MODEL 2
REMARK VINA RESULT:    -8.303      1.593      2.157
REMARK INTER + INTRA:         -11.360
REMARK INTER:                 -10.468
REMARK INTRA:                  -0.892
REMARK UNBOUND:                -0.631
REMARK  Name = 
REMARK  6 active torsions:
REMARK  status: ('A' for Active; 'I' for Inactive)
REMARK    1  A    between atoms: C_1  and  C_2
REMARK    2  A    between atoms: C_2  and  N_3
REMARK    3  A    between atoms: C_2  and  C_16
REMARK    4  A    between atoms: C_4  and  C_6
REMARK    5  A    between atoms: C_19  and  C_20
REMARK    6  A    between atoms: C_20  and  C_21
REMARK                            x       y       z     vdW  Elec       q    Type
REMARK                         _______ _______ _______ _____ _____    ______ ____
ROOT
ATOM      1  C   UNL     1      46.059   8.249  13.246  0.00  0.00    +0.000 C 
ATOM      2  C   UNL     1      46.883   6.960  13.135  0.00  0.00    +0.000 C 
ENDROOT
BRANCH   2   3
ATOM      3  C   UNL     1      46.274   6.027  12.096  0.00  0.00    +0.000 A 
ATOM      4  C   UNL     1      45.715   4.803  12.489  0.00  0.00    +0.000 A 
ATOM      5  C   UNL     1      45.177   3.928  11.541  0.00  0.00    +0.000 A 
ATOM      6  C   UNL     1      45.169   4.262  10.180  0.00  0.00    +0.000 A 
ATOM      7  C   UNL     1      45.705   5.494   9.788  0.00  0.00    +0.000 A 
ATOM      8  C   UNL     1      46.255   6.364  10.732  0.00  0.00    +0.000 A 
BRANCH   6   9
ATOM      9  C   UNL     1      44.608   3.313   9.145  0.00  0.00    +0.000 C 
BRANCH   9  10
ATOM     10  C   UNL     1      45.616   2.682   8.208  0.00  0.00    +0.000 A 
ATOM     11  C   UNL     1      46.025   3.339   7.048  0.00  0.00    +0.000 A 
ATOM     12  C   UNL     1      46.843   2.671   6.141  0.00  0.00    +0.000 A 
ATOM     13  C   UNL     1      47.237   1.368   6.412  0.00  0.00    +0.000 A 
ATOM     14  C   UNL     1      46.808   0.791   7.594  0.00  0.00    +0.000 A 
ATOM     15  N   UNL     1      46.009   1.413   8.490  0.00  0.00    +0.000 NA
ENDBRANCH   9  10
ENDBRANCH   6   9
ENDBRANCH   2   3
BRANCH   2  16
ATOM     16  N   UNL     1      47.005   6.262  14.405  0.00  0.00    +0.000 N 
ATOM     17  C   UNL     1      48.219   6.061  15.019  0.00  0.00    +0.000 C 
ATOM     18  O   UNL     1      49.273   6.491  14.563  0.00  0.00    +0.000 OA
ATOM     19  H   UNL     1      46.241   5.642  14.651  0.00  0.00    +0.000 HD
BRANCH  17  20
ATOM     20  C   UNL     1      48.192   5.346  16.298  0.00  0.00    +0.000 A 
ATOM     21  C   UNL     1      47.828   4.006  16.325  0.00  0.00    +0.000 A 
ATOM     22  S   UNL     1      47.843   3.328  17.889  0.00  0.00    +0.000 S 
ATOM     23  C   UNL     1      48.291   4.812  18.588  0.00  0.00    +0.000 A 
ATOM     24  N   UNL     1      48.429   4.941  19.934  0.00  0.00    +0.000 NA
ATOM     25  C   UNL     1      48.739   6.130  20.328  0.00  0.00    +0.000 A 
ATOM     26  N   UNL     1      48.941   7.201  19.494  0.00  0.00    +0.000 N 
ATOM     27  C   UNL     1      48.855   7.110  18.126  0.00  0.00    +0.000 A 
ATOM     28  O   UNL     1      49.104   8.066  17.401  0.00  0.00    +0.000 OA
ATOM     29  C   UNL     1      48.470   5.801  17.636  0.00  0.00    +0.000 A 
ATOM     30  H   UNL     1      49.205   8.102  19.865  0.00  0.00    +0.000 HD
ENDBRANCH  17  20
ENDBRANCH   2  16
TORSDOF 5
ENDMDL
MODEL 3
REMARK VINA RESULT:    -7.999      2.696      3.921
REMARK INTER + INTRA:         -10.968
REMARK INTER:                  -9.893
REMARK INTRA:                  -1.075
REMARK UNBOUND:                -0.631
REMARK  Name = 
REMARK  6 active torsions:
REMARK  status: ('A' for Active; 'I' for Inactive)
REMARK    1  A    between atoms: C_1  and  C_2
REMARK    2  A    between atoms: C_2  and  N_3
REMARK    3  A    between atoms: C_2  and  C_16
REMARK    4  A    between atoms: C_4  and  C_6
REMARK    5  A    between atoms: C_19  and  C_20
REMARK    6  A    between atoms: C_20  and  C_21
REMARK                            x       y       z     vdW  Elec       q    Type
REMARK                         _______ _______ _______ _____ _____    ______ ____
ROOT
ATOM      1  C   UNL     1      46.671   4.550  14.572  0.00  0.00    +0.000 C 
ATOM      2  C   UNL     1      46.436   5.715  13.602  0.00  0.00    +0.000 C 
ENDROOT
BRANCH   2   3
ATOM      3  C   UNL     1      45.946   5.197  12.257  0.00  0.00    +0.000 A 
ATOM      4  C   UNL     1      45.331   3.941  12.166  0.00  0.00    +0.000 A 
ATOM      5  C   UNL     1      44.901   3.445  10.932  0.00  0.00    +0.000 A 
ATOM      6  C   UNL     1      45.057   4.200   9.762  0.00  0.00    +0.000 A 
ATOM      7  C   UNL     1      45.648   5.466   9.854  0.00  0.00    +0.000 A 
ATOM      8  C   UNL     1      46.091   5.956  11.084  0.00  0.00    +0.000 A 
BRANCH   6   9
ATOM      9  C   UNL     1      44.613   3.663   8.420  0.00  0.00    +0.000 C 
BRANCH   9  10
ATOM     10  C   UNL     1      45.676   2.961   7.602  0.00  0.00    +0.000 A 
ATOM     11  C   UNL     1      46.228   1.754   8.029  0.00  0.00    +0.000 A 
ATOM     12  C   UNL     1      47.300   1.210   7.325  0.00  0.00    +0.000 A 
ATOM     13  C   UNL     1      47.793   1.878   6.213  0.00  0.00    +0.000 A 
ATOM     14  C   UNL     1      47.178   3.059   5.838  0.00  0.00    +0.000 A 
ATOM     15  N   UNL     1      46.141   3.614   6.505  0.00  0.00    +0.000 NA
ENDBRANCH   9  10
ENDBRANCH   6   9
ENDBRANCH   2   3
BRANCH   2  16
ATOM     16  N   UNL     1      47.624   6.530  13.408  0.00  0.00    +0.000 N 
ATOM     17  C   UNL     1      47.583   7.905  13.427  0.00  0.00    +0.000 C 
ATOM     18  O   UNL     1      46.556   8.535  13.653  0.00  0.00    +0.000 OA
ATOM     19  H   UNL     1      48.398   6.086  12.926  0.00  0.00    +0.000 HD
BRANCH  17  20
ATOM     20  C   UNL     1      48.858   8.597  13.221  0.00  0.00    +0.000 A 
ATOM     21  C   UNL     1      48.934   9.630  12.297  0.00  0.00    +0.000 A 
ATOM     22  S   UNL     1      50.487  10.324  12.176  0.00  0.00    +0.000 S 
ATOM     23  C   UNL     1      51.121   9.237  13.320  0.00  0.00    +0.000 A 
ATOM     24  N   UNL     1      52.441   9.254  13.647  0.00  0.00    +0.000 NA
ATOM     25  C   UNL     1      52.790   8.352  14.503  0.00  0.00    +0.000 A 
ATOM     26  N   UNL     1      51.934   7.444  15.073  0.00  0.00    +0.000 N 
ATOM     27  C   UNL     1      50.587   7.415  14.806  0.00  0.00    +0.000 A 
ATOM     28  O   UNL     1      49.834   6.636  15.378  0.00  0.00    +0.000 OA
ATOM     29  C   UNL     1      50.152   8.385  13.820  0.00  0.00    +0.000 A 
ATOM     30  H   UNL     1      52.267   6.778  15.754  0.00  0.00    +0.000 HD
ENDBRANCH  17  20
ENDBRANCH   2  16
TORSDOF 5
ENDMDL
MODEL 4
REMARK VINA RESULT:    -7.694      2.791      3.761
REMARK INTER + INTRA:         -10.574
REMARK INTER:                  -9.433
REMARK INTRA:                  -1.140
REMARK UNBOUND:                -0.631
REMARK  Name = 
REMARK  6 active torsions:
REMARK  status: ('A' for Active; 'I' for Inactive)
REMARK    1  A    between atoms: C_1  and  C_2
REMARK    2  A    between atoms: C_2  and  N_3
REMARK    3  A    between atoms: C_2  and  C_16
REMARK    4  A    between atoms: C_4  and  C_6
REMARK    5  A    between atoms: C_19  and  C_20
REMARK    6  A    between atoms: C_20  and  C_21
REMARK                            x       y       z     vdW  Elec       q    Type
REMARK                         _______ _______ _______ _____ _____    ______ ____
ROOT
ATOM      1  C   UNL     1      49.538   8.174  13.558  0.00  0.00    +0.000 C 
ATOM      2  C   UNL     1      48.923   6.897  14.143  0.00  0.00    +0.000 C 
ENDROOT
BRANCH   2   3
ATOM      3  C   UNL     1      47.777   6.407  13.268  0.00  0.00    +0.000 A 
ATOM      4  C   UNL     1      47.066   5.251  13.619  0.00  0.00    +0.000 A 
ATOM      5  C   UNL     1      46.029   4.779  12.808  0.00  0.00    +0.000 A 
ATOM      6  C   UNL     1      45.665   5.460  11.639  0.00  0.00    +0.000 A 
ATOM      7  C   UNL     1      46.358   6.628  11.300  0.00  0.00    +0.000 A 
ATOM      8  C   UNL     1      47.403   7.094  12.101  0.00  0.00    +0.000 A 
BRANCH   6   9
ATOM      9  C   UNL     1      44.559   4.945  10.746  0.00  0.00    +0.000 C 
BRANCH   9  10
ATOM     10  C   UNL     1      44.988   4.028   9.621  0.00  0.00    +0.000 A 
ATOM     11  C   UNL     1      44.897   2.642   9.750  0.00  0.00    +0.000 A 
ATOM     12  C   UNL     1      45.430   1.830   8.752  0.00  0.00    +0.000 A 
ATOM     13  C   UNL     1      46.037   2.416   7.649  0.00  0.00    +0.000 A 
ATOM     14  C   UNL     1      46.069   3.797   7.582  0.00  0.00    +0.000 A 
ATOM     15  N   UNL     1      45.565   4.611   8.538  0.00  0.00    +0.000 NA
ENDBRANCH   9  10
ENDBRANCH   6   9
ENDBRANCH   2   3
BRANCH   2  16
ATOM     16  N   UNL     1      48.453   7.077  15.507  0.00  0.00    +0.000 N 
ATOM     17  C   UNL     1      49.032   6.433  16.575  0.00  0.00    +0.000 C 
ATOM     18  O   UNL     1      50.009   5.700  16.458  0.00  0.00    +0.000 OA
ATOM     19  H   UNL     1      47.498   7.404  15.613  0.00  0.00    +0.000 HD
BRANCH  17  20
ATOM     20  C   UNL     1      48.457   6.711  17.894  0.00  0.00    +0.000 A 
ATOM     21  C   UNL     1      48.146   5.657  18.742  0.00  0.00    +0.000 A 
ATOM     22  S   UNL     1      47.482   6.152  20.232  0.00  0.00    +0.000 S 
ATOM     23  C   UNL     1      47.545   7.790  19.777  0.00  0.00    +0.000 A 
ATOM     24  N   UNL     1      47.071   8.765  20.598  0.00  0.00    +0.000 NA
ATOM     25  C   UNL     1      47.152   9.958  20.111  0.00  0.00    +0.000 A 
ATOM     26  N   UNL     1      47.679  10.266  18.882  0.00  0.00    +0.000 N 
ATOM     27  C   UNL     1      48.209   9.322  18.038  0.00  0.00    +0.000 A 
ATOM     28  O   UNL     1      48.733   9.631  16.974  0.00  0.00    +0.000 OA
ATOM     29  C   UNL     1      48.106   7.960  18.523  0.00  0.00    +0.000 A 
ATOM     30  H   UNL     1      47.734  11.225  18.570  0.00  0.00    +0.000 HD
ENDBRANCH  17  20
ENDBRANCH   2  16
TORSDOF 5
ENDMDL
MODEL 5
REMARK VINA RESULT:    -7.664      2.732      4.397
REMARK INTER + INTRA:         -10.534
REMARK INTER:                  -9.324
REMARK INTRA:                  -1.211
REMARK UNBOUND:                -0.631
REMARK  Name = 
REMARK  6 active torsions:
REMARK  status: ('A' for Active; 'I' for Inactive)
REMARK    1  A    between atoms: C_1  and  C_2
REMARK    2  A    between atoms: C_2  and  N_3
REMARK    3  A    between atoms: C_2  and  C_16
REMARK    4  A    between atoms: C_4  and  C_6
REMARK    5  A    between atoms: C_19  and  C_20
REMARK    6  A    between atoms: C_20  and  C_21
REMARK                            x       y       z     vdW  Elec       q    Type
REMARK                         _______ _______ _______ _____ _____    ______ ____
ROOT
ATOM      1  C   UNL     1      47.254   4.436  15.426  0.00  0.00    +0.000 C 
ATOM      2  C   UNL     1      47.154   5.643  14.485  0.00  0.00    +0.000 C 
ENDROOT
BRANCH   2   3
ATOM      3  C   UNL     1      46.435   5.257  13.199  0.00  0.00    +0.000 A 
ATOM      4  C   UNL     1      45.827   4.001  13.080  0.00  0.00    +0.000 A 
ATOM      5  C   UNL     1      45.187   3.627  11.894  0.00  0.00    +0.000 A 
ATOM      6  C   UNL     1      45.124   4.507  10.806  0.00  0.00    +0.000 A 
ATOM      7  C   UNL     1      45.711   5.772  10.930  0.00  0.00    +0.000 A 
ATOM      8  C   UNL     1      46.362   6.141  12.109  0.00  0.00    +0.000 A 
BRANCH   6   9
ATOM      9  C   UNL     1      44.453   4.103   9.512  0.00  0.00    +0.000 C 
BRANCH   9  10
ATOM     10  C   UNL     1      45.308   3.326   8.535  0.00  0.00    +0.000 A 
ATOM     11  C   UNL     1      45.545   1.963   8.716  0.00  0.00    +0.000 A 
ATOM     12  C   UNL     1      46.449   1.314   7.879  0.00  0.00    +0.000 A 
ATOM     13  C   UNL     1      47.090   2.034   6.880  0.00  0.00    +0.000 A 
ATOM     14  C   UNL     1      46.786   3.377   6.749  0.00  0.00    +0.000 A 
ATOM     15  N   UNL     1      45.918   4.035   7.551  0.00  0.00    +0.000 NA
ENDBRANCH   9  10
ENDBRANCH   6   9
ENDBRANCH   2   3
BRANCH   2  16
ATOM     16  N   UNL     1      48.452   6.213  14.167  0.00  0.00    +0.000 N 
ATOM     17  C   UNL     1      48.973   7.285  14.854  0.00  0.00    +0.000 C 
ATOM     18  O   UNL     1      48.401   7.803  15.807  0.00  0.00    +0.000 OA
ATOM     19  H   UNL     1      48.803   6.035  13.231  0.00  0.00    +0.000 HD
BRANCH  17  20
ATOM     20  C   UNL     1      50.294   7.753  14.428  0.00  0.00    +0.000 A 
ATOM     21  C   UNL     1      51.372   7.645  15.296  0.00  0.00    +0.000 A 
ATOM     22  S   UNL     1      52.833   8.240  14.648  0.00  0.00    +0.000 S 
ATOM     23  C   UNL     1      52.064   8.706  13.203  0.00  0.00    +0.000 A 
ATOM     24  N   UNL     1      52.752   9.339  12.216  0.00  0.00    +0.000 NA
ATOM     25  C   UNL     1      52.037   9.664  11.192  0.00  0.00    +0.000 A 
ATOM     26  N   UNL     1      50.697   9.399  11.059  0.00  0.00    +0.000 N 
ATOM     27  C   UNL     1      49.971   8.725  12.009  0.00  0.00    +0.000 A 
ATOM     28  O   UNL     1      48.791   8.443  11.837  0.00  0.00    +0.000 OA
ATOM     29  C   UNL     1      50.722   8.372  13.198  0.00  0.00    +0.000 A 
ATOM     30  H   UNL     1      50.200   9.660  10.220  0.00  0.00    +0.000 HD
ENDBRANCH  17  20
ENDBRANCH   2  16
TORSDOF 5
ENDMDL
MODEL 6
REMARK VINA RESULT:    -7.582      3.120      7.765
REMARK INTER + INTRA:         -10.429
REMARK INTER:                  -9.505
REMARK INTRA:                  -0.925
REMARK UNBOUND:                -0.631
REMARK  Name = 
REMARK  6 active torsions:
REMARK  status: ('A' for Active; 'I' for Inactive)
REMARK    1  A    between atoms: C_1  and  C_2
REMARK    2  A    between atoms: C_2  and  N_3
REMARK    3  A    between atoms: C_2  and  C_16
REMARK    4  A    between atoms: C_4  and  C_6
REMARK    5  A    between atoms: C_19  and  C_20
REMARK    6  A    between atoms: C_20  and  C_21
REMARK                            x       y       z     vdW  Elec       q    Type
REMARK                         _______ _______ _______ _____ _____    ______ ____
ROOT
ATOM      1  C   UNL     1      49.663   8.241  12.032  0.00  0.00    +0.000 C 
ATOM      2  C   UNL     1      48.486   7.703  12.855  0.00  0.00    +0.000 C 
ENDROOT
BRANCH   2   3
ATOM      3  C   UNL     1      48.977   7.143  14.184  0.00  0.00    +0.000 A 
ATOM      4  C   UNL     1      50.253   7.473  14.660  0.00  0.00    +0.000 A 
ATOM      5  C   UNL     1      50.723   6.943  15.865  0.00  0.00    +0.000 A 
ATOM      6  C   UNL     1      49.922   6.088  16.634  0.00  0.00    +0.000 A 
ATOM      7  C   UNL     1      48.638   5.776  16.172  0.00  0.00    +0.000 A 
ATOM      8  C   UNL     1      48.172   6.293  14.961  0.00  0.00    +0.000 A 
BRANCH   6   9
ATOM      9  C   UNL     1      50.430   5.495  17.928  0.00  0.00    +0.000 C 
BRANCH   9  10
ATOM     10  C   UNL     1      50.950   4.076  17.849  0.00  0.00    +0.000 A 
ATOM     11  C   UNL     1      52.261   3.771  18.213  0.00  0.00    +0.000 A 
ATOM     12  C   UNL     1      52.746   2.484  17.994  0.00  0.00    +0.000 A 
ATOM     13  C   UNL     1      51.914   1.531  17.423  0.00  0.00    +0.000 A 
ATOM     14  C   UNL     1      50.619   1.903  17.109  0.00  0.00    +0.000 A 
ATOM     15  N   UNL     1      50.123   3.146  17.304  0.00  0.00    +0.000 NA
ENDBRANCH   9  10
ENDBRANCH   6   9
ENDBRANCH   2   3
BRANCH   2  16
ATOM     16  N   UNL     1      47.728   6.684  12.147  0.00  0.00    +0.000 N 
ATOM     17  C   UNL     1      46.435   6.890  11.726  0.00  0.00    +0.000 C 
ATOM     18  O   UNL     1      45.849   7.956  11.880  0.00  0.00    +0.000 OA
ATOM     19  H   UNL     1      48.039   5.726  12.271  0.00  0.00    +0.000 HD
BRANCH  17  20
ATOM     20  C   UNL     1      45.793   5.777  11.021  0.00  0.00    +0.000 A 
ATOM     21  C   UNL     1      45.918   5.679   9.642  0.00  0.00    +0.000 A 
ATOM     22  S   UNL     1      45.109   4.333   8.978  0.00  0.00    +0.000 S 
ATOM     23  C   UNL     1      44.527   3.862  10.506  0.00  0.00    +0.000 A 
ATOM     24  N   UNL     1      43.707   2.786  10.642  0.00  0.00    +0.000 NA
ATOM     25  C   UNL     1      43.315   2.564  11.852  0.00  0.00    +0.000 A 
ATOM     26  N   UNL     1      43.682   3.313  12.942  0.00  0.00    +0.000 N 
ATOM     27  C   UNL     1      44.541   4.381  12.860  0.00  0.00    +0.000 A 
ATOM     28  O   UNL     1      44.905   4.993  13.857  0.00  0.00    +0.000 OA
ATOM     29  C   UNL     1      44.979   4.695  11.513  0.00  0.00    +0.000 A 
ATOM     30  H   UNL     1      43.358   3.072  13.867  0.00  0.00    +0.000 HD
ENDBRANCH  17  20
ENDBRANCH   2  16
TORSDOF 5
ENDMDL
MODEL 7
REMARK VINA RESULT:    -7.276      3.012      8.191
REMARK INTER + INTRA:         -10.033
REMARK INTER:                  -9.029
REMARK INTRA:                  -1.004
REMARK UNBOUND:                -0.631
REMARK  Name = 
REMARK  6 active torsions:
REMARK  status: ('A' for Active; 'I' for Inactive)
REMARK    1  A    between atoms: C_1  and  C_2
REMARK    2  A    between atoms: C_2  and  N_3
REMARK    3  A    between atoms: C_2  and  C_16
REMARK    4  A    between atoms: C_4  and  C_6
REMARK    5  A    between atoms: C_19  and  C_20
REMARK    6  A    between atoms: C_20  and  C_21
REMARK                            x       y       z     vdW  Elec       q    Type
REMARK                         _______ _______ _______ _____ _____    ______ ____
ROOT
ATOM      1  C   UNL     1      48.729   7.861  11.798  0.00  0.00    +0.000 C 
ATOM      2  C   UNL     1      47.739   7.320  12.837  0.00  0.00    +0.000 C 
ENDROOT
BRANCH   2   3
ATOM      3  C   UNL     1      48.470   6.914  14.110  0.00  0.00    +0.000 A 
ATOM      4  C   UNL     1      49.750   7.418  14.379  0.00  0.00    +0.000 A 
ATOM      5  C   UNL     1      50.441   7.032  15.531  0.00  0.00    +0.000 A 
ATOM      6  C   UNL     1      49.861   6.148  16.452  0.00  0.00    +0.000 A 
ATOM      7  C   UNL     1      48.574   5.663  16.197  0.00  0.00    +0.000 A 
ATOM      8  C   UNL     1      47.888   6.037  15.040  0.00  0.00    +0.000 A 
BRANCH   6   9
ATOM      9  C   UNL     1      50.609   5.709  17.690  0.00  0.00    +0.000 C 
BRANCH   9  10
ATOM     10  C   UNL     1      51.264   4.346  17.622  0.00  0.00    +0.000 A 
ATOM     11  C   UNL     1      50.505   3.196  17.406  0.00  0.00    +0.000 A 
ATOM     12  C   UNL     1      51.121   1.950  17.490  0.00  0.00    +0.000 A 
ATOM     13  C   UNL     1      52.476   1.879  17.782  0.00  0.00    +0.000 A 
ATOM     14  C   UNL     1      53.166   3.063  17.961  0.00  0.00    +0.000 A 
ATOM     15  N   UNL     1      52.594   4.287  17.892  0.00  0.00    +0.000 NA
ENDBRANCH   9  10
ENDBRANCH   6   9
ENDBRANCH   2   3
BRANCH   2  16
ATOM     16  N   UNL     1      46.965   6.195  12.339  0.00  0.00    +0.000 N 
ATOM     17  C   UNL     1      45.590   6.205  12.307  0.00  0.00    +0.000 C 
ATOM     18  O   UNL     1      44.925   7.177  12.653  0.00  0.00    +0.000 OA
ATOM     19  H   UNL     1      47.431   5.294  12.341  0.00  0.00    +0.000 HD
BRANCH  17  20
ATOM     20  C   UNL     1      44.941   5.004  11.776  0.00  0.00    +0.000 A 
ATOM     21  C   UNL     1      44.165   4.217  12.616  0.00  0.00    +0.000 A 
ATOM     22  S   UNL     1      43.487   2.856  11.844  0.00  0.00    +0.000 S 
ATOM     23  C   UNL     1      44.246   3.247  10.372  0.00  0.00    +0.000 A 
ATOM     24  N   UNL     1      44.120   2.443   9.283  0.00  0.00    +0.000 NA
ATOM     25  C   UNL     1      44.776   2.843   8.246  0.00  0.00    +0.000 A 
ATOM     26  N   UNL     1      45.535   3.985   8.195  0.00  0.00    +0.000 N 
ATOM     27  C   UNL     1      45.658   4.849   9.254  0.00  0.00    +0.000 A 
ATOM     28  O   UNL     1      46.289   5.895   9.162  0.00  0.00    +0.000 OA
ATOM     29  C   UNL     1      44.971   4.423  10.458  0.00  0.00    +0.000 A 
ATOM     30  H   UNL     1      46.006   4.254   7.343  0.00  0.00    +0.000 HD
ENDBRANCH  17  20
ENDBRANCH   2  16
TORSDOF 5
ENDMDL
MODEL 8
REMARK VINA RESULT:    -6.968      3.831      9.135
REMARK INTER + INTRA:          -9.635
REMARK INTER:                  -8.772
REMARK INTRA:                  -0.863
REMARK UNBOUND:                -0.631
REMARK  Name = 
REMARK  6 active torsions:
REMARK  status: ('A' for Active; 'I' for Inactive)
REMARK    1  A    between atoms: C_1  and  C_2
REMARK    2  A    between atoms: C_2  and  N_3
REMARK    3  A    between atoms: C_2  and  C_16
REMARK    4  A    between atoms: C_4  and  C_6
REMARK    5  A    between atoms: C_19  and  C_20
REMARK    6  A    between atoms: C_20  and  C_21
REMARK                            x       y       z     vdW  Elec       q    Type
REMARK                         _______ _______ _______ _____ _____    ______ ____
ROOT
ATOM      1  C   UNL     1      46.767   2.977  17.714  0.00  0.00    +0.000 C 
ATOM      2  C   UNL     1      47.617   3.307  16.481  0.00  0.00    +0.000 C 
ENDROOT
BRANCH   2   3
ATOM      3  C   UNL     1      48.987   3.823  16.901  0.00  0.00    +0.000 A 
ATOM      4  C   UNL     1      49.262   5.197  16.871  0.00  0.00    +0.000 A 
ATOM      5  C   UNL     1      50.524   5.679  17.230  0.00  0.00    +0.000 A 
ATOM      6  C   UNL     1      51.536   4.802  17.644  0.00  0.00    +0.000 A 
ATOM      7  C   UNL     1      51.255   3.432  17.697  0.00  0.00    +0.000 A 
ATOM      8  C   UNL     1      49.999   2.947  17.326  0.00  0.00    +0.000 A 
BRANCH   6   9
ATOM      9  C   UNL     1      52.910   5.312  18.014  0.00  0.00    +0.000 C 
BRANCH   9  10
ATOM     10  C   UNL     1      53.816   4.327  18.720  0.00  0.00    +0.000 A 
ATOM     11  C   UNL     1      54.740   3.564  18.007  0.00  0.00    +0.000 A 
ATOM     12  C   UNL     1      55.456   2.570  18.669  0.00  0.00    +0.000 A 
ATOM     13  C   UNL     1      55.238   2.362  20.024  0.00  0.00    +0.000 A 
ATOM     14  C   UNL     1      54.321   3.174  20.668  0.00  0.00    +0.000 A 
ATOM     15  N   UNL     1      53.608   4.142  20.050  0.00  0.00    +0.000 NA
ENDBRANCH   9  10
ENDBRANCH   6   9
ENDBRANCH   2   3
BRANCH   2  16
ATOM     16  N   UNL     1      46.978   4.276  15.604  0.00  0.00    +0.000 N 
ATOM     17  C   UNL     1      46.850   4.069  14.250  0.00  0.00    +0.000 C 
ATOM     18  O   UNL     1      47.223   3.040  13.698  0.00  0.00    +0.000 OA
ATOM     19  H   UNL     1      46.942   5.232  15.943  0.00  0.00    +0.000 HD
BRANCH  17  20
ATOM     20  C   UNL     1      46.181   5.128  13.490  0.00  0.00    +0.000 A 
ATOM     21  C   UNL     1      46.778   6.377  13.386  0.00  0.00    +0.000 A 
ATOM     22  S   UNL     1      45.869   7.494  12.474  0.00  0.00    +0.000 S 
ATOM     23  C   UNL     1      44.625   6.360  12.226  0.00  0.00    +0.000 A 
ATOM     24  N   UNL     1      43.495   6.696  11.547  0.00  0.00    +0.000 NA
ATOM     25  C   UNL     1      42.622   5.749  11.464  0.00  0.00    +0.000 A 
ATOM     26  N   UNL     1      42.783   4.490  11.985  0.00  0.00    +0.000 N 
ATOM     27  C   UNL     1      43.923   4.092  12.639  0.00  0.00    +0.000 A 
ATOM     28  O   UNL     1      44.068   2.942  13.038  0.00  0.00    +0.000 OA
ATOM     29  C   UNL     1      44.919   5.134  12.794  0.00  0.00    +0.000 A 
ATOM     30  H   UNL     1      42.070   3.786  11.864  0.00  0.00    +0.000 HD
ENDBRANCH  17  20
ENDBRANCH   2  16
TORSDOF 5
ENDMDL
MODEL 9
REMARK VINA RESULT:    -6.872      3.812      5.385
REMARK INTER + INTRA:          -9.511
REMARK INTER:                  -8.226
REMARK INTRA:                  -1.285
REMARK UNBOUND:                -0.631
REMARK  Name = 
REMARK  6 active torsions:
REMARK  status: ('A' for Active; 'I' for Inactive)
REMARK    1  A    between atoms: C_1  and  C_2
REMARK    2  A    between atoms: C_2  and  N_3
REMARK    3  A    between atoms: C_2  and  C_16
REMARK    4  A    between atoms: C_4  and  C_6
REMARK    5  A    between atoms: C_19  and  C_20
REMARK    6  A    between atoms: C_20  and  C_21
REMARK                            x       y       z     vdW  Elec       q    Type
REMARK                         _______ _______ _______ _____ _____    ______ ____
ROOT
ATOM      1  C   UNL     1      48.722   6.424  15.635  0.00  0.00    +0.000 C 
ATOM      2  C   UNL     1      48.676   7.278  14.361  0.00  0.00    +0.000 C 
ENDROOT
BRANCH   2   3
ATOM      3  C   UNL     1      47.643   6.726  13.388  0.00  0.00    +0.000 A 
ATOM      4  C   UNL     1      47.224   7.495  12.293  0.00  0.00    +0.000 A 
ATOM      5  C   UNL     1      46.257   7.008  11.408  0.00  0.00    +0.000 A 
ATOM      6  C   UNL     1      45.700   5.734  11.584  0.00  0.00    +0.000 A 
ATOM      7  C   UNL     1      46.134   4.955  12.663  0.00  0.00    +0.000 A 
ATOM      8  C   UNL     1      47.090   5.445  13.555  0.00  0.00    +0.000 A 
BRANCH   6   9
ATOM      9  C   UNL     1      44.639   5.209  10.644  0.00  0.00    +0.000 C 
BRANCH   9  10
ATOM     10  C   UNL     1      45.118   4.253   9.571  0.00  0.00    +0.000 A 
ATOM     11  C   UNL     1      44.953   2.876   9.713  0.00  0.00    +0.000 A 
ATOM     12  C   UNL     1      45.530   2.022   8.775  0.00  0.00    +0.000 A 
ATOM     13  C   UNL     1      46.252   2.561   7.719  0.00  0.00    +0.000 A 
ATOM     14  C   UNL     1      46.353   3.937   7.634  0.00  0.00    +0.000 A 
ATOM     15  N   UNL     1      45.809   4.790   8.532  0.00  0.00    +0.000 NA
ENDBRANCH   9  10
ENDBRANCH   6   9
ENDBRANCH   2   3
BRANCH   2  16
ATOM     16  N   UNL     1      49.968   7.369  13.701  0.00  0.00    +0.000 N 
ATOM     17  C   UNL     1      50.749   8.500  13.769  0.00  0.00    +0.000 C 
ATOM     18  O   UNL     1      50.432   9.487  14.423  0.00  0.00    +0.000 OA
ATOM     19  H   UNL     1      50.122   6.733  12.926  0.00  0.00    +0.000 HD
BRANCH  17  20
ATOM     20  C   UNL     1      52.030   8.450  13.059  0.00  0.00    +0.000 A 
ATOM     21  C   UNL     1      53.187   8.863  13.705  0.00  0.00    +0.000 A 
ATOM     22  S   UNL     1      54.586   8.747  12.738  0.00  0.00    +0.000 S 
ATOM     23  C   UNL     1      53.686   8.186  11.408  0.00  0.00    +0.000 A 
ATOM     24  N   UNL     1      54.284   7.934  10.213  0.00  0.00    +0.000 NA
ATOM     25  C   UNL     1      53.476   7.546   9.284  0.00  0.00    +0.000 A 
ATOM     26  N   UNL     1      52.125   7.372   9.447  0.00  0.00    +0.000 N 
ATOM     27  C   UNL     1      51.484   7.572  10.644  0.00  0.00    +0.000 A 
ATOM     28  O   UNL     1      50.287   7.346  10.780  0.00  0.00    +0.000 OA
ATOM     29  C   UNL     1      52.344   8.047  11.711  0.00  0.00    +0.000 A 
ATOM     30  H   UNL     1      51.551   7.043   8.684  0.00  0.00    +0.000 HD
ENDBRANCH  17  20
ENDBRANCH   2  16
TORSDOF 5
ENDMDL
