MODEL 1
REMARK VINA RESULT:    -7.534      0.000      0.000
REMARK INTER + INTRA:          -9.864
REMARK INTER:                  -9.296
REMARK INTRA:                  -0.568
REMARK UNBOUND:                -0.568
REMARK  Name = 
REMARK  5 active torsions:
REMARK  status: ('A' for Active; 'I' for Inactive)
REMARK    1  A    between atoms: C_1  and  C_2
REMARK    2  A    between atoms: C_2  and  C_3
REMARK    3  A    between atoms: C_2  and  C_14
REMARK    4  A    between atoms: C_3  and  N_4
REMARK    5  A    between atoms: C_8  and  C_9
REMARK                            x       y       z     vdW  Elec       q    Type
REMARK                         _______ _______ _______ _____ _____    ______ ____
ROOT
ATOM      1  N   UNL     1      43.834   3.207  10.471  0.00  0.00    +0.000 N 
ATOM      2  C   UNL     1      44.734   3.010   9.414  0.00  0.00    +0.000 A 
ATOM      3  C   UNL     1      45.129   1.707   9.069  0.00  0.00    +0.000 A 
ATOM      4  N   UNL     1      45.997   1.408   8.065  0.00  0.00    +0.000 NA
ATOM      5  C   UNL     1      46.478   2.501   7.406  0.00  0.00    +0.000 A 
ATOM      6  C   UNL     1      46.113   3.795   7.743  0.00  0.00    +0.000 A 
ATOM      7  N   UNL     1      45.246   4.068   8.749  0.00  0.00    +0.000 NA
ATOM      8  H   UNL     1      42.991   2.664  10.300  0.00  0.00    +0.000 HD
ENDROOT
BRANCH   5   9
ATOM      9  C   UNL     1      47.428   2.284   6.284  0.00  0.00    +0.000 C 
ATOM     10  N   UNL     1      47.334   3.162   5.239  0.00  0.00    +0.000 N 
ATOM     11  O   UNL     1      48.251   1.377   6.290  0.00  0.00    +0.000 OA
ATOM     12  H   UNL     1      46.640   3.900   5.253  0.00  0.00    +0.000 HD
ATOM     13  H   UNL     1      47.952   3.055   4.447  0.00  0.00    +0.000 HD
ENDBRANCH   5   9
BRANCH   1  14
ATOM     14  C   UNL     1      43.504   4.609  10.711  0.00  0.00    +0.000 C 
BRANCH  14  16
ATOM     15  C   UNL     1      42.913   5.153  13.154  0.00  0.00    +0.000 C 
ATOM     16  C   UNL     1      43.956   4.932  12.104  0.00  0.00    +0.000 C 
BRANCH  16  17
ATOM     17  C   UNL     1      45.312   5.462  12.301  0.00  0.00    +0.000 A 
ATOM     18  C   UNL     1      45.881   6.361  11.390  0.00  0.00    +0.000 A 
ATOM     19  C   UNL     1      47.156   6.888  11.617  0.00  0.00    +0.000 A 
ATOM     20  C   UNL     1      47.867   6.529  12.762  0.00  0.00    +0.000 A 
ATOM     21  C   UNL     1      47.314   5.633  13.670  0.00  0.00    +0.000 A 
ATOM     22  C   UNL     1      46.050   5.095  13.434  0.00  0.00    +0.000 A 
ENDBRANCH  16  17
ENDBRANCH  14  16
ENDBRANCH   1  14
TORSDOF 4
ENDMDL
MODEL 2
REMARK VINA RESULT:    -7.016      3.240      6.372
REMARK INTER + INTRA:          -9.225
REMARK INTER:                  -8.888
REMARK INTRA:                  -0.337
REMARK UNBOUND:                -0.568
REMARK  Name = 
REMARK  5 active torsions:
REMARK  status: ('A' for Active; 'I' for Inactive)
REMARK    1  A    between atoms: C_1  and  C_2
REMARK    2  A    between atoms: C_2  and  C_3
REMARK    3  A    between atoms: C_2  and  C_14
REMARK    4  A    between atoms: C_3  and  N_4
REMARK    5  A    between atoms: C_8  and  C_9
REMARK                            x       y       z     vdW  Elec       q    Type
REMARK                         _______ _______ _______ _____ _____    ______ ____
ROOT
ATOM      1  N   UNL     1      43.709   5.044  10.374  0.00  0.00    +0.000 N 
ATOM      2  C   UNL     1      44.662   5.749  11.123  0.00  0.00    +0.000 A 
ATOM      3  C   UNL     1      44.346   6.188  12.418  0.00  0.00    +0.000 A 
ATOM      4  N   UNL     1      45.195   6.880  13.224  0.00  0.00    +0.000 NA
ATOM      5  C   UNL     1      46.410   7.133  12.659  0.00  0.00    +0.000 A 
ATOM      6  C   UNL     1      46.736   6.723  11.375  0.00  0.00    +0.000 A 
ATOM      7  N   UNL     1      45.870   6.034  10.591  0.00  0.00    +0.000 NA
ATOM      8  H   UNL     1      43.396   4.236  10.907  0.00  0.00    +0.000 HD
ENDROOT
BRANCH   5   9
ATOM      9  C   UNL     1      47.417   7.877  13.459  0.00  0.00    +0.000 C 
ATOM     10  N   UNL     1      46.923   8.815  14.325  0.00  0.00    +0.000 N 
ATOM     11  O   UNL     1      48.620   7.666  13.358  0.00  0.00    +0.000 OA
ATOM     12  H   UNL     1      45.925   8.977  14.387  0.00  0.00    +0.000 HD
ATOM     13  H   UNL     1      47.566   9.353  14.889  0.00  0.00    +0.000 HD
ENDBRANCH   5   9
BRANCH   1  14
ATOM     14  C   UNL     1      44.178   4.640   9.052  0.00  0.00    +0.000 C 
BRANCH  14  16
ATOM     15  C   UNL     1      44.159   2.438  10.381  0.00  0.00    +0.000 C 
ATOM     16  C   UNL     1      44.545   3.188   9.145  0.00  0.00    +0.000 C 
BRANCH  16  17
ATOM     17  C   UNL     1      45.623   2.676   8.289  0.00  0.00    +0.000 A 
ATOM     18  C   UNL     1      46.010   1.329   8.333  0.00  0.00    +0.000 A 
ATOM     19  C   UNL     1      47.009   0.852   7.480  0.00  0.00    +0.000 A 
ATOM     20  C   UNL     1      47.622   1.711   6.569  0.00  0.00    +0.000 A 
ATOM     21  C   UNL     1      47.250   3.051   6.521  0.00  0.00    +0.000 A 
ATOM     22  C   UNL     1      46.265   3.530   7.384  0.00  0.00    +0.000 A 
ENDBRANCH  16  17
ENDBRANCH  14  16
ENDBRANCH   1  14
TORSDOF 4
ENDMDL
MODEL 3
REMARK VINA RESULT:    -6.852      3.534      5.925
REMARK INTER + INTRA:          -9.023
REMARK INTER:                  -8.458
REMARK INTRA:                  -0.565
REMARK UNBOUND:                -0.568
REMARK  Name = 
REMARK  5 active torsions:
REMARK  status: ('A' for Active; 'I' for Inactive)
REMARK    1  A    between atoms: C_1  and  C_2
REMARK    2  A    between atoms: C_2  and  C_3
REMARK    3  A    between atoms: C_2  and  C_14
REMARK    4  A    between atoms: C_3  and  N_4
REMARK    5  A    between atoms: C_8  and  C_9
REMARK                            x       y       z     vdW  Elec       q    Type
REMARK                         _______ _______ _______ _____ _____    ______ ____
ROOT
ATOM      1  N   UNL     1      44.958   4.787  12.531  0.00  0.00    +0.000 N 
ATOM      2  C   UNL     1      46.159   5.509  12.595  0.00  0.00    +0.000 A 
ATOM      3  C   UNL     1      46.988   5.386  13.721  0.00  0.00    +0.000 A 
ATOM      4  N   UNL     1      48.168   6.042  13.883  0.00  0.00    +0.000 NA
ATOM      5  C   UNL     1      48.490   6.864  12.843  0.00  0.00    +0.000 A 
ATOM      6  C   UNL     1      47.676   7.013  11.731  0.00  0.00    +0.000 A 
ATOM      7  N   UNL     1      46.503   6.347  11.593  0.00  0.00    +0.000 NA
ATOM      8  H   UNL     1      45.155   3.798  12.663  0.00  0.00    +0.000 HD
ENDROOT
BRANCH   5   9
ATOM      9  C   UNL     1      49.765   7.623  12.916  0.00  0.00    +0.000 C 
ATOM     10  N   UNL     1      50.629   7.448  11.868  0.00  0.00    +0.000 N 
ATOM     11  O   UNL     1      50.033   8.365  13.853  0.00  0.00    +0.000 OA
ATOM     12  H   UNL     1      50.389   6.824  11.108  0.00  0.00    +0.000 HD
ATOM     13  H   UNL     1      51.514   7.936  11.872  0.00  0.00    +0.000 HD
ENDBRANCH   5   9
BRANCH   1  14
ATOM     14  C   UNL     1      44.204   5.004  11.299  0.00  0.00    +0.000 C 
BRANCH  14  16
ATOM     15  C   UNL     1      43.387   2.569  11.433  0.00  0.00    +0.000 C 
ATOM     16  C   UNL     1      44.041   3.662  10.648  0.00  0.00    +0.000 C 
BRANCH  16  17
ATOM     17  C   UNL     1      44.895   3.326   9.501  0.00  0.00    +0.000 A 
ATOM     18  C   UNL     1      45.453   4.324   8.691  0.00  0.00    +0.000 A 
ATOM     19  C   UNL     1      46.298   3.985   7.631  0.00  0.00    +0.000 A 
ATOM     20  C   UNL     1      46.600   2.648   7.376  0.00  0.00    +0.000 A 
ATOM     21  C   UNL     1      46.047   1.649   8.171  0.00  0.00    +0.000 A 
ATOM     22  C   UNL     1      45.191   1.987   9.218  0.00  0.00    +0.000 A 
ENDBRANCH  16  17
ENDBRANCH  14  16
ENDBRANCH   1  14
TORSDOF 4
ENDMDL
MODEL 4
REMARK VINA RESULT:    -6.597      4.430      7.271
REMARK INTER + INTRA:          -8.708
REMARK INTER:                  -8.346
REMARK INTRA:                  -0.362
REMARK UNBOUND:                -0.568
REMARK  Name = 
REMARK  5 active torsions:
REMARK  status: ('A' for Active; 'I' for Inactive)
REMARK    1  A    between atoms: C_1  and  C_2
REMARK    2  A    between atoms: C_2  and  C_3
REMARK    3  A    between atoms: C_2  and  C_14
REMARK    4  A    between atoms: C_3  and  N_4
REMARK    5  A    between atoms: C_8  and  C_9
REMARK                            x       y       z     vdW  Elec       q    Type
REMARK                         _______ _______ _______ _____ _____    ______ ____
ROOT
ATOM      1  N   UNL     1      46.257   5.253  12.620  0.00  0.00    +0.000 N 
ATOM      2  C   UNL     1      46.847   5.116  13.885  0.00  0.00    +0.000 A 
ATOM      3  C   UNL     1      47.857   6.007  14.284  0.00  0.00    +0.000 A 
ATOM      4  N   UNL     1      48.494   5.959  15.485  0.00  0.00    +0.000 NA
ATOM      5  C   UNL     1      48.073   4.944  16.293  0.00  0.00    +0.000 A 
ATOM      6  C   UNL     1      47.090   4.044  15.911  0.00  0.00    +0.000 A 
ATOM      7  N   UNL     1      46.470   4.113  14.707  0.00  0.00    +0.000 NA
ATOM      8  H   UNL     1      45.894   6.198  12.521  0.00  0.00    +0.000 HD
ENDROOT
BRANCH   5   9
ATOM      9  C   UNL     1      48.699   4.807  17.633  0.00  0.00    +0.000 C 
ATOM     10  N   UNL     1      47.959   4.150  18.578  0.00  0.00    +0.000 N 
ATOM     11  O   UNL     1      49.813   5.251  17.884  0.00  0.00    +0.000 OA
ATOM     12  H   UNL     1      47.037   3.798  18.351  0.00  0.00    +0.000 HD
ATOM     13  H   UNL     1      48.336   4.036  19.509  0.00  0.00    +0.000 HD
ENDBRANCH   5   9
BRANCH   1  14
ATOM     14  C   UNL     1      45.215   4.268  12.345  0.00  0.00    +0.000 C 
BRANCH  14  16
ATOM     15  C   UNL     1      43.284   5.272  10.974  0.00  0.00    +0.000 C 
ATOM     16  C   UNL     1      44.629   4.615  11.009  0.00  0.00    +0.000 C 
BRANCH  16  17
ATOM     17  C   UNL     1      45.132   3.922   9.815  0.00  0.00    +0.000 A 
ATOM     18  C   UNL     1      45.719   4.629   8.756  0.00  0.00    +0.000 A 
ATOM     19  C   UNL     1      46.231   3.947   7.649  0.00  0.00    +0.000 A 
ATOM     20  C   UNL     1      46.169   2.555   7.593  0.00  0.00    +0.000 A 
ATOM     21  C   UNL     1      45.582   1.845   8.636  0.00  0.00    +0.000 A 
ATOM     22  C   UNL     1      45.058   2.526   9.732  0.00  0.00    +0.000 A 
ENDBRANCH  16  17
ENDBRANCH  14  16
ENDBRANCH   1  14
TORSDOF 4
ENDMDL
MODEL 5
REMARK VINA RESULT:    -6.362      4.837      7.582
REMARK INTER + INTRA:          -8.418
REMARK INTER:                  -8.091
REMARK INTRA:                  -0.328
REMARK UNBOUND:                -0.568
REMARK  Name = 
REMARK  5 active torsions:
REMARK  status: ('A' for Active; 'I' for Inactive)
REMARK    1  A    between atoms: C_1  and  C_2
REMARK    2  A    between atoms: C_2  and  C_3
REMARK    3  A    between atoms: C_2  and  C_14
REMARK    4  A    between atoms: C_3  and  N_4
REMARK    5  A    between atoms: C_8  and  C_9
REMARK                            x       y       z     vdW  Elec       q    Type
REMARK                         _______ _______ _______ _____ _____    ______ ____
ROOT
ATOM      1  N   UNL     1      46.601   5.751  13.717  0.00  0.00    +0.000 N 
ATOM      2  C   UNL     1      47.250   5.166  14.814  0.00  0.00    +0.000 A 
ATOM      3  C   UNL     1      48.283   5.860  15.464  0.00  0.00    +0.000 A 
ATOM      4  N   UNL     1      48.976   5.382  16.532  0.00  0.00    +0.000 NA
ATOM      5  C   UNL     1      48.590   4.136  16.929  0.00  0.00    +0.000 A 
ATOM      6  C   UNL     1      47.584   3.428  16.290  0.00  0.00    +0.000 A 
ATOM      7  N   UNL     1      46.907   3.926  15.226  0.00  0.00    +0.000 NA
ATOM      8  H   UNL     1      46.238   6.661  13.989  0.00  0.00    +0.000 HD
ENDROOT
BRANCH   5   9
ATOM      9  C   UNL     1      49.279   3.524  18.095  0.00  0.00    +0.000 C 
ATOM     10  N   UNL     1      48.492   3.244  19.179  0.00  0.00    +0.000 N 
ATOM     11  O   UNL     1      50.480   3.280  18.091  0.00  0.00    +0.000 OA
ATOM     12  H   UNL     1      47.503   3.461  19.162  0.00  0.00    +0.000 HD
ATOM     13  H   UNL     1      48.913   2.833  20.001  0.00  0.00    +0.000 HD
ENDBRANCH   5   9
BRANCH   1  14
ATOM     14  C   UNL     1      45.541   4.922  13.148  0.00  0.00    +0.000 C 
BRANCH  14  16
ATOM     15  C   UNL     1      44.543   6.838  11.753  0.00  0.00    +0.000 C 
ATOM     16  C   UNL     1      45.211   5.500  11.804  0.00  0.00    +0.000 C 
BRANCH  16  17
ATOM     17  C   UNL     1      45.118   4.595  10.650  0.00  0.00    +0.000 A 
ATOM     18  C   UNL     1      44.535   3.326  10.765  0.00  0.00    +0.000 A 
ATOM     19  C   UNL     1      44.417   2.498   9.646  0.00  0.00    +0.000 A 
ATOM     20  C   UNL     1      44.872   2.933   8.401  0.00  0.00    +0.000 A 
ATOM     21  C   UNL     1      45.458   4.188   8.277  0.00  0.00    +0.000 A 
ATOM     22  C   UNL     1      45.590   5.007   9.397  0.00  0.00    +0.000 A 
ENDBRANCH  16  17
ENDBRANCH  14  16
ENDBRANCH   1  14
TORSDOF 4
ENDMDL
MODEL 6
REMARK VINA RESULT:    -6.278      4.474      6.355
REMARK INTER + INTRA:          -8.314
REMARK INTER:                  -7.962
REMARK INTRA:                  -0.352
REMARK UNBOUND:                -0.568
REMARK  Name = 
REMARK  5 active torsions:
REMARK  status: ('A' for Active; 'I' for Inactive)
REMARK    1  A    between atoms: C_1  and  C_2
REMARK    2  A    between atoms: C_2  and  C_3
REMARK    3  A    between atoms: C_2  and  C_14
REMARK    4  A    between atoms: C_3  and  N_4
REMARK    5  A    between atoms: C_8  and  C_9
REMARK                            x       y       z     vdW  Elec       q    Type
REMARK                         _______ _______ _______ _____ _____    ______ ____
ROOT
ATOM      1  N   UNL     1      47.178   4.866  15.221  0.00  0.00    +0.000 N 
ATOM      2  C   UNL     1      46.511   4.663  14.004  0.00  0.00    +0.000 A 
ATOM      3  C   UNL     1      46.126   5.768  13.228  0.00  0.00    +0.000 A 
ATOM      4  N   UNL     1      45.474   5.681  12.037  0.00  0.00    +0.000 NA
ATOM      5  C   UNL     1      45.204   4.402  11.647  0.00  0.00    +0.000 A 
ATOM      6  C   UNL     1      45.561   3.300  12.408  0.00  0.00    +0.000 A 
ATOM      7  N   UNL     1      46.210   3.413  13.593  0.00  0.00    +0.000 NA
ATOM      8  H   UNL     1      48.006   5.434  15.058  0.00  0.00    +0.000 HD
ENDROOT
BRANCH   5   9
ATOM      9  C   UNL     1      44.501   4.195  10.355  0.00  0.00    +0.000 C 
ATOM     10  N   UNL     1      44.844   5.048   9.341  0.00  0.00    +0.000 N 
ATOM     11  O   UNL     1      43.665   3.313  10.199  0.00  0.00    +0.000 OA
ATOM     12  H   UNL     1      45.533   5.774   9.496  0.00  0.00    +0.000 HD
ATOM     13  H   UNL     1      44.390   4.954   8.443  0.00  0.00    +0.000 HD
ENDBRANCH   5   9
BRANCH   1  14
ATOM     14  C   UNL     1      47.528   3.630  15.915  0.00  0.00    +0.000 C 
BRANCH  14  16
ATOM     15  C   UNL     1      47.879   5.264  17.869  0.00  0.00    +0.000 C 
ATOM     16  C   UNL     1      48.293   4.022  17.144  0.00  0.00    +0.000 C 
BRANCH  16  17
ATOM     17  C   UNL     1      49.646   3.482  17.336  0.00  0.00    +0.000 A 
ATOM     18  C   UNL     1      50.696   4.295  17.784  0.00  0.00    +0.000 A 
ATOM     19  C   UNL     1      51.966   3.754  18.002  0.00  0.00    +0.000 A 
ATOM     20  C   UNL     1      52.195   2.396  17.784  0.00  0.00    +0.000 A 
ATOM     21  C   UNL     1      51.161   1.581  17.335  0.00  0.00    +0.000 A 
ATOM     22  C   UNL     1      49.899   2.125  17.102  0.00  0.00    +0.000 A 
ENDBRANCH  16  17
ENDBRANCH  14  16
ENDBRANCH   1  14
TORSDOF 4
ENDMDL
MODEL 7
REMARK VINA RESULT:    -5.802      4.666      6.607
REMARK INTER + INTRA:          -7.727
REMARK INTER:                  -7.421
REMARK INTRA:                  -0.305
REMARK UNBOUND:                -0.568
REMARK  Name = 
REMARK  5 active torsions:
REMARK  status: ('A' for Active; 'I' for Inactive)
REMARK    1  A    between atoms: C_1  and  C_2
REMARK    2  A    between atoms: C_2  and  C_3
REMARK    3  A    between atoms: C_2  and  C_14
REMARK    4  A    between atoms: C_3  and  N_4
REMARK    5  A    between atoms: C_8  and  C_9
REMARK                            x       y       z     vdW  Elec       q    Type
REMARK                         _______ _______ _______ _____ _____    ______ ____
ROOT
ATOM      1  N   UNL     1      47.457   5.066  15.291  0.00  0.00    +0.000 N 
ATOM      2  C   UNL     1      46.782   5.010  14.063  0.00  0.00    +0.000 A 
ATOM      3  C   UNL     1      47.062   5.962  13.069  0.00  0.00    +0.000 A 
ATOM      4  N   UNL     1      46.463   5.999  11.849  0.00  0.00    +0.000 NA
ATOM      5  C   UNL     1      45.532   5.019  11.661  0.00  0.00    +0.000 A 
ATOM      6  C   UNL     1      45.229   4.081  12.636  0.00  0.00    +0.000 A 
ATOM      7  N   UNL     1      45.841   4.066  13.846  0.00  0.00    +0.000 NA
ATOM      8  H   UNL     1      48.460   5.050  15.122  0.00  0.00    +0.000 HD
ENDROOT
BRANCH   5   9
ATOM      9  C   UNL     1      44.824   4.964  10.356  0.00  0.00    +0.000 C 
ATOM     10  N   UNL     1      45.546   5.360   9.263  0.00  0.00    +0.000 N 
ATOM     11  O   UNL     1      43.663   4.585  10.257  0.00  0.00    +0.000 OA
ATOM     12  H   UNL     1      46.502   5.677   9.370  0.00  0.00    +0.000 HD
ATOM     13  H   UNL     1      45.109   5.348   8.352  0.00  0.00    +0.000 HD
ENDBRANCH   5   9
BRANCH   1  14
ATOM     14  C   UNL     1      47.074   4.008  16.223  0.00  0.00    +0.000 C 
BRANCH  14  16
ATOM     15  C   UNL     1      49.158   2.688  16.950  0.00  0.00    +0.000 C 
ATOM     16  C   UNL     1      48.220   3.832  17.175  0.00  0.00    +0.000 C 
BRANCH  16  17
ATOM     17  C   UNL     1      48.137   4.455  18.503  0.00  0.00    +0.000 A 
ATOM     18  C   UNL     1      48.896   3.977  19.580  0.00  0.00    +0.000 A 
ATOM     19  C   UNL     1      48.836   4.611  20.824  0.00  0.00    +0.000 A 
ATOM     20  C   UNL     1      48.026   5.732  21.001  0.00  0.00    +0.000 A 
ATOM     21  C   UNL     1      47.264   6.211  19.940  0.00  0.00    +0.000 A 
ATOM     22  C   UNL     1      47.312   5.568  18.704  0.00  0.00    +0.000 A 
ENDBRANCH  16  17
ENDBRANCH  14  16
ENDBRANCH   1  14
TORSDOF 4
ENDMDL
MODEL 8
REMARK VINA RESULT:    -5.786      4.617      7.097
REMARK INTER + INTRA:          -7.707
REMARK INTER:                  -7.360
REMARK INTRA:                  -0.347
REMARK UNBOUND:                -0.568
REMARK  Name = 
REMARK  5 active torsions:
REMARK  status: ('A' for Active; 'I' for Inactive)
REMARK    1  A    between atoms: C_1  and  C_2
REMARK    2  A    between atoms: C_2  and  C_3
REMARK    3  A    between atoms: C_2  and  C_14
REMARK    4  A    between atoms: C_3  and  N_4
REMARK    5  A    between atoms: C_8  and  C_9
REMARK                            x       y       z     vdW  Elec       q    Type
REMARK                         _______ _______ _______ _____ _____    ______ ____
ROOT
ATOM      1  N   UNL     1      48.006   7.180  13.152  0.00  0.00    +0.000 N 
ATOM      2  C   UNL     1      47.900   6.201  14.151  0.00  0.00    +0.000 A 
ATOM      3  C   UNL     1      48.405   6.459  15.436  0.00  0.00    +0.000 A 
ATOM      4  N   UNL     1      48.355   5.580  16.472  0.00  0.00    +0.000 NA
ATOM      5  C   UNL     1      47.771   4.388  16.158  0.00  0.00    +0.000 A 
ATOM      6  C   UNL     1      47.283   4.108  14.891  0.00  0.00    +0.000 A 
ATOM      7  N   UNL     1      47.344   5.002  13.874  0.00  0.00    +0.000 NA
ATOM      8  H   UNL     1      47.583   8.044  13.483  0.00  0.00    +0.000 HD
ENDROOT
BRANCH   5   9
ATOM      9  C   UNL     1      47.658   3.358  17.222  0.00  0.00    +0.000 C 
ATOM     10  N   UNL     1      48.824   3.011  17.849  0.00  0.00    +0.000 N 
ATOM     11  O   UNL     1      46.587   2.848  17.528  0.00  0.00    +0.000 OA
ATOM     12  H   UNL     1      49.699   3.441  17.574  0.00  0.00    +0.000 HD
ATOM     13  H   UNL     1      48.804   2.310  18.577  0.00  0.00    +0.000 HD
ENDBRANCH   5   9
BRANCH   1  14
ATOM     14  C   UNL     1      47.429   6.780  11.871  0.00  0.00    +0.000 C 
BRANCH  14  16
ATOM     15  C   UNL     1      45.631   8.491  12.545  0.00  0.00    +0.000 C 
ATOM     16  C   UNL     1      45.986   7.190  11.897  0.00  0.00    +0.000 C 
BRANCH  16  17
ATOM     17  C   UNL     1      44.956   6.157  11.723  0.00  0.00    +0.000 A 
ATOM     18  C   UNL     1      44.911   5.362  10.570  0.00  0.00    +0.000 A 
ATOM     19  C   UNL     1      43.949   4.355  10.442  0.00  0.00    +0.000 A 
ATOM     20  C   UNL     1      43.032   4.129  11.468  0.00  0.00    +0.000 A 
ATOM     21  C   UNL     1      43.065   4.917  12.614  0.00  0.00    +0.000 A 
ATOM     22  C   UNL     1      44.013   5.931  12.733  0.00  0.00    +0.000 A 
ENDBRANCH  16  17
ENDBRANCH  14  16
ENDBRANCH   1  14
TORSDOF 4
ENDMDL
MODEL 9
REMARK VINA RESULT:    -5.358      5.282      7.898
REMARK INTER + INTRA:          -7.179
REMARK INTER:                  -6.930
REMARK INTRA:                  -0.250
REMARK UNBOUND:                -0.568
REMARK  Name = 
REMARK  5 active torsions:
REMARK  status: ('A' for Active; 'I' for Inactive)
REMARK    1  A    between atoms: C_1  and  C_2
REMARK    2  A    between atoms: C_2  and  C_3
REMARK    3  A    between atoms: C_2  and  C_14
REMARK    4  A    between atoms: C_3  and  N_4
REMARK    5  A    between atoms: C_8  and  C_9
REMARK                            x       y       z     vdW  Elec       q    Type
REMARK                         _______ _______ _______ _____ _____    ______ ____
ROOT
ATOM      1  N   UNL     1      46.797   5.390  14.144  0.00  0.00    +0.000 N 
ATOM      2  C   UNL     1      47.544   5.163  15.309  0.00  0.00    +0.000 A 
ATOM      3  C   UNL     1      47.214   4.089  16.151  0.00  0.00    +0.000 A 
ATOM      4  N   UNL     1      47.870   3.784  17.302  0.00  0.00    +0.000 NA
ATOM      5  C   UNL     1      48.897   4.633  17.594  0.00  0.00    +0.000 A 
ATOM      6  C   UNL     1      49.227   5.710  16.785  0.00  0.00    +0.000 A 
ATOM      7  N   UNL     1      48.557   5.993  15.641  0.00  0.00    +0.000 NA
ATOM      8  H   UNL     1      46.794   4.545  13.579  0.00  0.00    +0.000 HD
ENDROOT
BRANCH   5   9
ATOM      9  C   UNL     1      49.686   4.384  18.828  0.00  0.00    +0.000 C 
ATOM     10  N   UNL     1      48.964   4.167  19.970  0.00  0.00    +0.000 N 
ATOM     11  O   UNL     1      50.911   4.370  18.829  0.00  0.00    +0.000 OA
ATOM     12  H   UNL     1      47.951   4.191  19.946  0.00  0.00    +0.000 HD
ATOM     13  H   UNL     1      49.452   3.999  20.838  0.00  0.00    +0.000 HD
ENDBRANCH   5   9
BRANCH   1  14
ATOM     14  C   UNL     1      47.259   6.533  13.361  0.00  0.00    +0.000 C 
BRANCH  14  16
ATOM     15  C   UNL     1      45.603   8.449  12.914  0.00  0.00    +0.000 C 
ATOM     16  C   UNL     1      46.069   7.059  12.614  0.00  0.00    +0.000 C 
BRANCH  16  17
ATOM     17  C   UNL     1      45.148   6.101  11.988  0.00  0.00    +0.000 A 
ATOM     18  C   UNL     1      45.477   5.453  10.789  0.00  0.00    +0.000 A 
ATOM     19  C   UNL     1      44.607   4.512  10.232  0.00  0.00    +0.000 A 
ATOM     20  C   UNL     1      43.406   4.203  10.871  0.00  0.00    +0.000 A 
ATOM     21  C   UNL     1      43.068   4.845  12.058  0.00  0.00    +0.000 A 
ATOM     22  C   UNL     1      43.929   5.795  12.605  0.00  0.00    +0.000 A 
ENDBRANCH  16  17
ENDBRANCH  14  16
ENDBRANCH   1  14
TORSDOF 4
ENDMDL
