MODEL 1
REMARK VINA RESULT:    -7.849      0.000      0.000
REMARK INTER + INTRA:         -10.986
REMARK INTER:                 -10.373
REMARK INTRA:                  -0.613
REMARK UNBOUND:                -0.613
REMARK  Name = 
REMARK  6 active torsions:
REMARK  status: ('A' for Active; 'I' for Inactive)
REMARK    1  A    between atoms: N_1  and  C_2
REMARK    2  A    between atoms: C_2  and  C_3
REMARK    3  A    between atoms: C_7  and  C_8
REMARK    4  A    between atoms: C_8  and  C_9
REMARK    5  A    between atoms: C_9  and  N_10
REMARK    6  A    between atoms: C_15  and  C_16
REMARK                            x       y       z     vdW  Elec       q    Type
REMARK                         _______ _______ _______ _____ _____    ______ ____
ROOT
ATOM      1  N   UNL     1      45.027   3.006  12.496  0.00  0.00    +0.000 N 
ATOM      2  C   UNL     1      45.657   4.238  12.804  0.00  0.00    +0.000 A 
ATOM      3  C   UNL     1      46.753   4.250  13.650  0.00  0.00    +0.000 A 
ATOM      4  C   UNL     1      47.306   5.480  13.948  0.00  0.00    +0.000 A 
ATOM      5  N   UNL     1      46.844   6.642  13.456  0.00  0.00    +0.000 NA
ATOM      6  C   UNL     1      45.776   6.521  12.642  0.00  0.00    +0.000 A 
ATOM      7  N   UNL     1      45.162   5.375  12.304  0.00  0.00    +0.000 NA
ATOM      8  H   UNL     1      45.724   2.370  12.112  0.00  0.00    +0.000 HD
ENDROOT
BRANCH   6   9
ATOM      9  C   UNL     1      45.227   7.794  12.038  0.00  0.00    +0.000 C 
ATOM     10  N   UNL     1      44.095   7.649  11.272  0.00  0.00    +0.000 N 
ATOM     11  O   UNL     1      45.729   8.900  12.200  0.00  0.00    +0.000 OA
ATOM     12  H   UNL     1      43.679   6.731  11.143  0.00  0.00    +0.000 HD
ATOM     13  H   UNL     1      43.687   8.469  10.846  0.00  0.00    +0.000 HD
ENDBRANCH   6   9
BRANCH   1  14
ATOM     14  C   UNL     1      43.872   3.183  11.591  0.00  0.00    +0.000 C 
BRANCH  14  15
ATOM     15  C   UNL     1      43.930   2.243  10.376  0.00  0.00    +0.000 C 
BRANCH  15  20
ATOM     16  C   UNL     1      46.607   2.204   7.625  0.00  0.00    +0.000 A 
ATOM     17  C   UNL     1      46.697   3.569   7.325  0.00  0.00    +0.000 A 
ATOM     18  C   UNL     1      45.957   4.502   8.048  0.00  0.00    +0.000 A 
ATOM     19  C   UNL     1      45.091   4.081   9.059  0.00  0.00    +0.000 A 
ATOM     20  C   UNL     1      44.950   2.717   9.356  0.00  0.00    +0.000 A 
ATOM     21  C   UNL     1      45.727   1.789   8.639  0.00  0.00    +0.000 A 
BRANCH  16  22
ATOM     22  C   UNL     1      47.419   1.206   6.834  0.00  0.00    +0.000 C 
BRANCH  22  23
ATOM     23  N   UNL     1      48.442   1.862   6.025  0.00  0.00    +0.000 NA
ATOM     24  H   UNL     1      48.080   2.019   5.087  0.00  0.00    +0.000 HD
ATOM     25  H   UNL     1      49.237   1.232   5.929  0.00  0.00    +0.000 HD
ENDBRANCH  22  23
ENDBRANCH  16  22
ENDBRANCH  15  20
ENDBRANCH  14  15
ENDBRANCH   1  14
TORSDOF 6
ENDMDL
MODEL 2
REMARK VINA RESULT:    -7.632      2.053      3.124
REMARK INTER + INTRA:         -10.699
REMARK INTER:                 -10.261
REMARK INTRA:                  -0.438
REMARK UNBOUND:                -0.613
REMARK  Name = 
REMARK  6 active torsions:
REMARK  status: ('A' for Active; 'I' for Inactive)
REMARK    1  A    between atoms: N_1  and  C_2
REMARK    2  A    between atoms: C_2  and  C_3
REMARK    3  A    between atoms: C_7  and  C_8
REMARK    4  A    between atoms: C_8  and  C_9
REMARK    5  A    between atoms: C_9  and  N_10
REMARK    6  A    between atoms: C_15  and  C_16
REMARK                            x       y       z     vdW  Elec       q    Type
REMARK                         _______ _______ _______ _____ _____    ______ ____
ROOT
ATOM      1  N   UNL     1      45.593   6.144  10.582  0.00  0.00    +0.000 N 
ATOM      2  C   UNL     1      46.431   6.183  11.723  0.00  0.00    +0.000 A 
ATOM      3  C   UNL     1      47.284   7.259  11.906  0.00  0.00    +0.000 A 
ATOM      4  C   UNL     1      48.107   7.229  13.015  0.00  0.00    +0.000 A 
ATOM      5  N   UNL     1      48.111   6.229  13.912  0.00  0.00    +0.000 NA
ATOM      6  C   UNL     1      47.244   5.231  13.643  0.00  0.00    +0.000 A 
ATOM      7  N   UNL     1      46.415   5.164  12.588  0.00  0.00    +0.000 NA
ATOM      8  H   UNL     1      45.031   6.994  10.559  0.00  0.00    +0.000 HD
ENDROOT
BRANCH   6   9
ATOM      9  C   UNL     1      47.187   4.089  14.632  0.00  0.00    +0.000 C 
ATOM     10  N   UNL     1      46.767   4.419  15.898  0.00  0.00    +0.000 N 
ATOM     11  O   UNL     1      47.486   2.932  14.360  0.00  0.00    +0.000 OA
ATOM     12  H   UNL     1      46.516   5.378  16.120  0.00  0.00    +0.000 HD
ATOM     13  H   UNL     1      46.710   3.692  16.598  0.00  0.00    +0.000 HD
ENDBRANCH   6   9
BRANCH   1  14
ATOM     14  C   UNL     1      44.761   4.923  10.543  0.00  0.00    +0.000 C 
BRANCH  14  15
ATOM     15  C   UNL     1      44.249   4.606   9.129  0.00  0.00    +0.000 C 
BRANCH  15  20
ATOM     16  C   UNL     1      46.520   2.531   6.832  0.00  0.00    +0.000 A 
ATOM     17  C   UNL     1      46.520   1.301   7.504  0.00  0.00    +0.000 A 
ATOM     18  C   UNL     1      45.742   1.118   8.645  0.00  0.00    +0.000 A 
ATOM     19  C   UNL     1      44.978   2.172   9.150  0.00  0.00    +0.000 A 
ATOM     20  C   UNL     1      44.988   3.426   8.523  0.00  0.00    +0.000 A 
ATOM     21  C   UNL     1      45.754   3.587   7.354  0.00  0.00    +0.000 A 
BRANCH  16  22
ATOM     22  C   UNL     1      47.366   2.712   5.596  0.00  0.00    +0.000 C 
BRANCH  22  23
ATOM     23  N   UNL     1      48.589   1.916   5.656  0.00  0.00    +0.000 NA
ATOM     24  H   UNL     1      48.351   0.928   5.608  0.00  0.00    +0.000 HD
ATOM     25  H   UNL     1      49.032   2.065   6.562  0.00  0.00    +0.000 HD
ENDBRANCH  22  23
ENDBRANCH  16  22
ENDBRANCH  15  20
ENDBRANCH  14  15
ENDBRANCH   1  14
TORSDOF 6
ENDMDL
MODEL 3
REMARK VINA RESULT:    -7.052      1.734      2.522
REMARK INTER + INTRA:          -9.933
REMARK INTER:                  -9.722
REMARK INTRA:                  -0.211
REMARK UNBOUND:                -0.613
REMARK  Name = 
REMARK  6 active torsions:
REMARK  status: ('A' for Active; 'I' for Inactive)
REMARK    1  A    between atoms: N_1  and  C_2
REMARK    2  A    between atoms: C_2  and  C_3
REMARK    3  A    between atoms: C_7  and  C_8
REMARK    4  A    between atoms: C_8  and  C_9
REMARK    5  A    between atoms: C_9  and  N_10
REMARK    6  A    between atoms: C_15  and  C_16
REMARK                            x       y       z     vdW  Elec       q    Type
REMARK                         _______ _______ _______ _____ _____    ______ ____
ROOT
ATOM      1  N   UNL     1      43.857   5.229  11.186  0.00  0.00    +0.000 N 
ATOM      2  C   UNL     1      44.738   6.178  11.760  0.00  0.00    +0.000 A 
ATOM      3  C   UNL     1      44.504   7.529  11.569  0.00  0.00    +0.000 A 
ATOM      4  C   UNL     1      45.415   8.410  12.118  0.00  0.00    +0.000 A 
ATOM      5  N   UNL     1      46.491   8.025  12.824  0.00  0.00    +0.000 NA
ATOM      6  C   UNL     1      46.626   6.689  12.954  0.00  0.00    +0.000 A 
ATOM      7  N   UNL     1      45.804   5.755  12.448  0.00  0.00    +0.000 NA
ATOM      8  H   UNL     1      42.909   5.429  11.503  0.00  0.00    +0.000 HD
ENDROOT
BRANCH   6   9
ATOM      9  C   UNL     1      47.807   6.196  13.760  0.00  0.00    +0.000 C 
ATOM     10  N   UNL     1      47.501   5.619  14.970  0.00  0.00    +0.000 N 
ATOM     11  O   UNL     1      48.973   6.286  13.393  0.00  0.00    +0.000 OA
ATOM     12  H   UNL     1      46.534   5.542  15.270  0.00  0.00    +0.000 HD
ATOM     13  H   UNL     1      48.253   5.272  15.548  0.00  0.00    +0.000 HD
ENDBRANCH   6   9
BRANCH   1  14
ATOM     14  C   UNL     1      44.264   3.840  11.482  0.00  0.00    +0.000 C 
BRANCH  14  15
ATOM     15  C   UNL     1      43.987   2.884  10.310  0.00  0.00    +0.000 C 
BRANCH  15  20
ATOM     16  C   UNL     1      46.572   1.943   7.633  0.00  0.00    +0.000 A 
ATOM     17  C   UNL     1      46.871   3.204   7.100  0.00  0.00    +0.000 A 
ATOM     18  C   UNL     1      46.301   4.354   7.642  0.00  0.00    +0.000 A 
ATOM     19  C   UNL     1      45.399   4.257   8.704  0.00  0.00    +0.000 A 
ATOM     20  C   UNL     1      45.050   3.005   9.233  0.00  0.00    +0.000 A 
ATOM     21  C   UNL     1      45.657   1.856   8.696  0.00  0.00    +0.000 A 
BRANCH  16  22
ATOM     22  C   UNL     1      47.201   0.707   7.036  0.00  0.00    +0.000 C 
BRANCH  22  23
ATOM     23  N   UNL     1      46.816  -0.500   7.763  0.00  0.00    +0.000 NA
ATOM     24  H   UNL     1      46.686  -1.263   7.102  0.00  0.00    +0.000 HD
ATOM     25  H   UNL     1      45.912  -0.340   8.206  0.00  0.00    +0.000 HD
ENDBRANCH  22  23
ENDBRANCH  16  22
ENDBRANCH  15  20
ENDBRANCH  14  15
ENDBRANCH   1  14
TORSDOF 6
ENDMDL
MODEL 4
REMARK VINA RESULT:    -7.006      1.705      2.531
REMARK INTER + INTRA:          -9.872
REMARK INTER:                  -9.440
REMARK INTRA:                  -0.432
REMARK UNBOUND:                -0.613
REMARK  Name = 
REMARK  6 active torsions:
REMARK  status: ('A' for Active; 'I' for Inactive)
REMARK    1  A    between atoms: N_1  and  C_2
REMARK    2  A    between atoms: C_2  and  C_3
REMARK    3  A    between atoms: C_7  and  C_8
REMARK    4  A    between atoms: C_8  and  C_9
REMARK    5  A    between atoms: C_9  and  N_10
REMARK    6  A    between atoms: C_15  and  C_16
REMARK                            x       y       z     vdW  Elec       q    Type
REMARK                         _______ _______ _______ _____ _____    ______ ____
ROOT
ATOM      1  N   UNL     1      45.050   4.520  11.776  0.00  0.00    +0.000 N 
ATOM      2  C   UNL     1      46.083   4.955  12.642  0.00  0.00    +0.000 A 
ATOM      3  C   UNL     1      46.118   4.496  13.947  0.00  0.00    +0.000 A 
ATOM      4  C   UNL     1      47.124   4.981  14.760  0.00  0.00    +0.000 A 
ATOM      5  N   UNL     1      48.059   5.853  14.347  0.00  0.00    +0.000 NA
ATOM      6  C   UNL     1      47.937   6.236  13.059  0.00  0.00    +0.000 A 
ATOM      7  N   UNL     1      46.990   5.832  12.197  0.00  0.00    +0.000 NA
ATOM      8  H   UNL     1      45.055   3.501  11.747  0.00  0.00    +0.000 HD
ENDROOT
BRANCH   6   9
ATOM      9  C   UNL     1      48.976   7.200  12.531  0.00  0.00    +0.000 C 
ATOM     10  N   UNL     1      50.051   7.428  13.358  0.00  0.00    +0.000 N 
ATOM     11  O   UNL     1      48.902   7.758  11.443  0.00  0.00    +0.000 OA
ATOM     12  H   UNL     1      50.111   6.961  14.258  0.00  0.00    +0.000 HD
ATOM     13  H   UNL     1      50.774   8.063  13.053  0.00  0.00    +0.000 HD
ENDBRANCH   6   9
BRANCH   1  14
ATOM     14  C   UNL     1      45.163   5.117  10.429  0.00  0.00    +0.000 C 
BRANCH  14  15
ATOM     15  C   UNL     1      44.274   4.407   9.396  0.00  0.00    +0.000 C 
BRANCH  15  20
ATOM     16  C   UNL     1      46.605   2.658   6.897  0.00  0.00    +0.000 A 
ATOM     17  C   UNL     1      46.612   1.355   7.411  0.00  0.00    +0.000 A 
ATOM     18  C   UNL     1      45.820   1.023   8.508  0.00  0.00    +0.000 A 
ATOM     19  C   UNL     1      45.035   1.997   9.128  0.00  0.00    +0.000 A 
ATOM     20  C   UNL     1      45.037   3.320   8.660  0.00  0.00    +0.000 A 
ATOM     21  C   UNL     1      45.817   3.633   7.533  0.00  0.00    +0.000 A 
BRANCH  16  22
ATOM     22  C   UNL     1      47.467   3.000   5.706  0.00  0.00    +0.000 C 
BRANCH  22  23
ATOM     23  N   UNL     1      48.442   1.950   5.424  0.00  0.00    +0.000 NA
ATOM     24  H   UNL     1      48.507   1.328   6.227  0.00  0.00    +0.000 HD
ATOM     25  H   UNL     1      49.359   2.377   5.310  0.00  0.00    +0.000 HD
ENDBRANCH  22  23
ENDBRANCH  16  22
ENDBRANCH  15  20
ENDBRANCH  14  15
ENDBRANCH   1  14
TORSDOF 6
ENDMDL
MODEL 5
REMARK VINA RESULT:    -6.481      2.006      3.181
REMARK INTER + INTRA:          -9.178
REMARK INTER:                  -8.782
REMARK INTRA:                  -0.396
REMARK UNBOUND:                -0.613
REMARK  Name = 
REMARK  6 active torsions:
REMARK  status: ('A' for Active; 'I' for Inactive)
REMARK    1  A    between atoms: N_1  and  C_2
REMARK    2  A    between atoms: C_2  and  C_3
REMARK    3  A    between atoms: C_7  and  C_8
REMARK    4  A    between atoms: C_8  and  C_9
REMARK    5  A    between atoms: C_9  and  N_10
REMARK    6  A    between atoms: C_15  and  C_16
REMARK                            x       y       z     vdW  Elec       q    Type
REMARK                         _______ _______ _______ _____ _____    ______ ____
ROOT
ATOM      1  N   UNL     1      44.469   6.768  11.086  0.00  0.00    +0.000 N 
ATOM      2  C   UNL     1      45.471   7.507  11.761  0.00  0.00    +0.000 A 
ATOM      3  C   UNL     1      45.265   8.851  12.023  0.00  0.00    +0.000 A 
ATOM      4  C   UNL     1      46.288   9.535  12.649  0.00  0.00    +0.000 A 
ATOM      5  N   UNL     1      47.448   8.965  13.018  0.00  0.00    +0.000 NA
ATOM      6  C   UNL     1      47.548   7.654  12.719  0.00  0.00    +0.000 A 
ATOM      7  N   UNL     1      46.616   6.908  12.102  0.00  0.00    +0.000 NA
ATOM      8  H   UNL     1      43.595   6.853  11.602  0.00  0.00    +0.000 HD
ENDROOT
BRANCH   6   9
ATOM      9  C   UNL     1      48.822   6.952  13.131  0.00  0.00    +0.000 C 
ATOM     10  N   UNL     1      49.876   7.070  12.257  0.00  0.00    +0.000 N 
ATOM     11  O   UNL     1      48.947   6.313  14.170  0.00  0.00    +0.000 OA
ATOM     12  H   UNL     1      49.771   7.604  11.399  0.00  0.00    +0.000 HD
ATOM     13  H   UNL     1      50.751   6.621  12.485  0.00  0.00    +0.000 HD
ENDBRANCH   6   9
BRANCH   1  14
ATOM     14  C   UNL     1      44.861   5.357  10.881  0.00  0.00    +0.000 C 
BRANCH  14  15
ATOM     15  C   UNL     1      43.975   4.646   9.846  0.00  0.00    +0.000 C 
BRANCH  15  20
ATOM     16  C   UNL     1      46.457   3.013   7.414  0.00  0.00    +0.000 A 
ATOM     17  C   UNL     1      46.349   1.668   7.791  0.00  0.00    +0.000 A 
ATOM     18  C   UNL     1      45.436   1.279   8.769  0.00  0.00    +0.000 A 
ATOM     19  C   UNL     1      44.641   2.233   9.407  0.00  0.00    +0.000 A 
ATOM     20  C   UNL     1      44.754   3.592   9.079  0.00  0.00    +0.000 A 
ATOM     21  C   UNL     1      45.657   3.966   8.068  0.00  0.00    +0.000 A 
BRANCH  16  22
ATOM     22  C   UNL     1      47.448   3.418   6.351  0.00  0.00    +0.000 C 
BRANCH  22  23
ATOM     23  N   UNL     1      48.613   2.537   6.334  0.00  0.00    +0.000 NA
ATOM     24  H   UNL     1      48.911   2.357   7.289  0.00  0.00    +0.000 HD
ATOM     25  H   UNL     1      49.382   3.021   5.873  0.00  0.00    +0.000 HD
ENDBRANCH  22  23
ENDBRANCH  16  22
ENDBRANCH  15  20
ENDBRANCH  14  15
ENDBRANCH   1  14
TORSDOF 6
ENDMDL
MODEL 6
REMARK VINA RESULT:    -6.380      2.506      6.342
REMARK INTER + INTRA:          -9.044
REMARK INTER:                  -8.499
REMARK INTRA:                  -0.545
REMARK UNBOUND:                -0.613
REMARK  Name = 
REMARK  6 active torsions:
REMARK  status: ('A' for Active; 'I' for Inactive)
REMARK    1  A    between atoms: N_1  and  C_2
REMARK    2  A    between atoms: C_2  and  C_3
REMARK    3  A    between atoms: C_7  and  C_8
REMARK    4  A    between atoms: C_8  and  C_9
REMARK    5  A    between atoms: C_9  and  N_10
REMARK    6  A    between atoms: C_15  and  C_16
REMARK                            x       y       z     vdW  Elec       q    Type
REMARK                         _______ _______ _______ _____ _____    ______ ____
ROOT
ATOM      1  N   UNL     1      45.722   5.749  13.447  0.00  0.00    +0.000 N 
ATOM      2  C   UNL     1      44.988   4.989  12.503  0.00  0.00    +0.000 A 
ATOM      3  C   UNL     1      43.921   4.218  12.931  0.00  0.00    +0.000 A 
ATOM      4  C   UNL     1      43.263   3.467  11.977  0.00  0.00    +0.000 A 
ATOM      5  N   UNL     1      43.599   3.458  10.676  0.00  0.00    +0.000 NA
ATOM      6  C   UNL     1      44.650   4.244  10.363  0.00  0.00    +0.000 A 
ATOM      7  N   UNL     1      45.358   4.998  11.218  0.00  0.00    +0.000 NA
ATOM      8  H   UNL     1      45.078   6.360  13.947  0.00  0.00    +0.000 HD
ENDROOT
BRANCH   6   9
ATOM      9  C   UNL     1      45.058   4.293   8.908  0.00  0.00    +0.000 C 
ATOM     10  N   UNL     1      44.372   3.447   8.068  0.00  0.00    +0.000 N 
ATOM     11  O   UNL     1      45.935   5.026   8.467  0.00  0.00    +0.000 OA
ATOM     12  H   UNL     1      43.642   2.844   8.436  0.00  0.00    +0.000 HD
ATOM     13  H   UNL     1      44.605   3.441   7.086  0.00  0.00    +0.000 HD
ENDBRANCH   6   9
BRANCH   1  14
ATOM     14  C   UNL     1      46.828   6.501  12.818  0.00  0.00    +0.000 C 
BRANCH  14  15
ATOM     15  C   UNL     1      46.993   7.909  13.410  0.00  0.00    +0.000 C 
BRANCH  15  20
ATOM     16  C   UNL     1      44.514   9.812  11.180  0.00  0.00    +0.000 A 
ATOM     17  C   UNL     1      45.213  11.008  10.970  0.00  0.00    +0.000 A 
ATOM     18  C   UNL     1      46.498  11.175  11.481  0.00  0.00    +0.000 A 
ATOM     19  C   UNL     1      47.091  10.161  12.237  0.00  0.00    +0.000 A 
ATOM     20  C   UNL     1      46.401   8.968  12.497  0.00  0.00    +0.000 A 
ATOM     21  C   UNL     1      45.117   8.801  11.949  0.00  0.00    +0.000 A 
BRANCH  16  22
ATOM     22  C   UNL     1      43.124   9.645  10.617  0.00  0.00    +0.000 C 
BRANCH  22  23
ATOM     23  N   UNL     1      42.571   8.328  10.922  0.00  0.00    +0.000 NA
ATOM     24  H   UNL     1      42.709   7.712  10.124  0.00  0.00    +0.000 HD
ATOM     25  H   UNL     1      41.564   8.418  11.052  0.00  0.00    +0.000 HD
ENDBRANCH  22  23
ENDBRANCH  16  22
ENDBRANCH  15  20
ENDBRANCH  14  15
ENDBRANCH   1  14
TORSDOF 6
ENDMDL
MODEL 7
REMARK VINA RESULT:    -6.354      3.008      4.473
REMARK INTER + INTRA:          -9.010
REMARK INTER:                  -8.673
REMARK INTRA:                  -0.336
REMARK UNBOUND:                -0.613
REMARK  Name = 
REMARK  6 active torsions:
REMARK  status: ('A' for Active; 'I' for Inactive)
REMARK    1  A    between atoms: N_1  and  C_2
REMARK    2  A    between atoms: C_2  and  C_3
REMARK    3  A    between atoms: C_7  and  C_8
REMARK    4  A    between atoms: C_8  and  C_9
REMARK    5  A    between atoms: C_9  and  N_10
REMARK    6  A    between atoms: C_15  and  C_16
REMARK                            x       y       z     vdW  Elec       q    Type
REMARK                         _______ _______ _______ _____ _____    ______ ____
ROOT
ATOM      1  N   UNL     1      47.169   6.644  13.464  0.00  0.00    +0.000 N 
ATOM      2  C   UNL     1      47.829   6.179  14.628  0.00  0.00    +0.000 A 
ATOM      3  C   UNL     1      48.665   7.035  15.325  0.00  0.00    +0.000 A 
ATOM      4  C   UNL     1      49.313   6.520  16.431  0.00  0.00    +0.000 A 
ATOM      5  N   UNL     1      49.165   5.255  16.859  0.00  0.00    +0.000 NA
ATOM      6  C   UNL     1      48.328   4.505  16.112  0.00  0.00    +0.000 A 
ATOM      7  N   UNL     1      47.665   4.910  15.017  0.00  0.00    +0.000 NA
ATOM      8  H   UNL     1      46.632   7.477  13.702  0.00  0.00    +0.000 HD
ENDROOT
BRANCH   6   9
ATOM      9  C   UNL     1      48.104   3.079  16.559  0.00  0.00    +0.000 C 
ATOM     10  N   UNL     1      47.137   2.902  17.520  0.00  0.00    +0.000 N 
ATOM     11  O   UNL     1      48.721   2.117  16.117  0.00  0.00    +0.000 OA
ATOM     12  H   UNL     1      46.624   3.701  17.882  0.00  0.00    +0.000 HD
ATOM     13  H   UNL     1      46.947   1.968  17.854  0.00  0.00    +0.000 HD
ENDBRANCH   6   9
BRANCH   1  14
ATOM     14  C   UNL     1      46.329   5.597  12.844  0.00  0.00    +0.000 C 
BRANCH  14  15
ATOM     15  C   UNL     1      45.696   6.059  11.522  0.00  0.00    +0.000 C 
BRANCH  15  20
ATOM     16  C   UNL     1      45.317   3.566   8.627  0.00  0.00    +0.000 A 
ATOM     17  C   UNL     1      44.499   2.596   9.220  0.00  0.00    +0.000 A 
ATOM     18  C   UNL     1      44.015   2.774  10.514  0.00  0.00    +0.000 A 
ATOM     19  C   UNL     1      44.368   3.910  11.246  0.00  0.00    +0.000 A 
ATOM     20  C   UNL     1      45.218   4.880  10.693  0.00  0.00    +0.000 A 
ATOM     21  C   UNL     1      45.674   4.702   9.375  0.00  0.00    +0.000 A 
BRANCH  16  22
ATOM     22  C   UNL     1      45.831   3.360   7.223  0.00  0.00    +0.000 C 
BRANCH  22  23
ATOM     23  N   UNL     1      46.868   4.328   6.878  0.00  0.00    +0.000 NA
ATOM     24  H   UNL     1      47.234   4.115   5.954  0.00  0.00    +0.000 HD
ATOM     25  H   UNL     1      47.644   4.223   7.531  0.00  0.00    +0.000 HD
ENDBRANCH  22  23
ENDBRANCH  16  22
ENDBRANCH  15  20
ENDBRANCH  14  15
ENDBRANCH   1  14
TORSDOF 6
ENDMDL
MODEL 8
REMARK VINA RESULT:    -6.247      4.175      7.549
REMARK INTER + INTRA:          -8.869
REMARK INTER:                  -8.500
REMARK INTRA:                  -0.369
REMARK UNBOUND:                -0.613
REMARK  Name = 
REMARK  6 active torsions:
REMARK  status: ('A' for Active; 'I' for Inactive)
REMARK    1  A    between atoms: N_1  and  C_2
REMARK    2  A    between atoms: C_2  and  C_3
REMARK    3  A    between atoms: C_7  and  C_8
REMARK    4  A    between atoms: C_8  and  C_9
REMARK    5  A    between atoms: C_9  and  N_10
REMARK    6  A    between atoms: C_15  and  C_16
REMARK                            x       y       z     vdW  Elec       q    Type
REMARK                         _______ _______ _______ _____ _____    ______ ____
ROOT
ATOM      1  N   UNL     1      47.148   5.242  14.701  0.00  0.00    +0.000 N 
ATOM      2  C   UNL     1      46.327   5.377  13.554  0.00  0.00    +0.000 A 
ATOM      3  C   UNL     1      46.228   6.608  12.928  0.00  0.00    +0.000 A 
ATOM      4  C   UNL     1      45.385   6.695  11.838  0.00  0.00    +0.000 A 
ATOM      5  N   UNL     1      44.678   5.657  11.359  0.00  0.00    +0.000 NA
ATOM      6  C   UNL     1      44.846   4.503  12.039  0.00  0.00    +0.000 A 
ATOM      7  N   UNL     1      45.630   4.324  13.114  0.00  0.00    +0.000 NA
ATOM      8  H   UNL     1      48.091   5.548  14.466  0.00  0.00    +0.000 HD
ENDROOT
BRANCH   6   9
ATOM      9  C   UNL     1      44.094   3.294  11.532  0.00  0.00    +0.000 C 
ATOM     10  N   UNL     1      43.745   2.367  12.485  0.00  0.00    +0.000 N 
ATOM     11  O   UNL     1      43.794   3.117  10.357  0.00  0.00    +0.000 OA
ATOM     12  H   UNL     1      43.991   2.519  13.459  0.00  0.00    +0.000 HD
ATOM     13  H   UNL     1      43.241   1.541  12.200  0.00  0.00    +0.000 HD
ENDBRANCH   6   9
BRANCH   1  14
ATOM     14  C   UNL     1      47.126   3.867  15.243  0.00  0.00    +0.000 C 
BRANCH  14  15
ATOM     15  C   UNL     1      47.162   3.842  16.780  0.00  0.00    +0.000 C 
BRANCH  15  20
ATOM     16  C   UNL     1      50.706   2.513  17.425  0.00  0.00    +0.000 A 
ATOM     17  C   UNL     1      51.282   3.608  18.082  0.00  0.00    +0.000 A 
ATOM     18  C   UNL     1      50.521   4.736  18.378  0.00  0.00    +0.000 A 
ATOM     19  C   UNL     1      49.180   4.799  17.993  0.00  0.00    +0.000 A 
ATOM     20  C   UNL     1      48.586   3.735  17.299  0.00  0.00    +0.000 A 
ATOM     21  C   UNL     1      49.358   2.589  17.035  0.00  0.00    +0.000 A 
BRANCH  16  22
ATOM     22  C   UNL     1      51.544   1.297  17.114  0.00  0.00    +0.000 C 
BRANCH  22  23
ATOM     23  N   UNL     1      51.548   0.345  18.223  0.00  0.00    +0.000 NA
ATOM     24  H   UNL     1      51.602   0.854  19.102  0.00  0.00    +0.000 HD
ATOM     25  H   UNL     1      52.391  -0.225  18.162  0.00  0.00    +0.000 HD
ENDBRANCH  22  23
ENDBRANCH  16  22
ENDBRANCH  15  20
ENDBRANCH  14  15
ENDBRANCH   1  14
TORSDOF 6
ENDMDL
MODEL 9
REMARK VINA RESULT:    -6.150      4.120      7.672
REMARK INTER + INTRA:          -8.740
REMARK INTER:                  -7.891
REMARK INTRA:                  -0.849
REMARK UNBOUND:                -0.613
REMARK  Name = 
REMARK  6 active torsions:
REMARK  status: ('A' for Active; 'I' for Inactive)
REMARK    1  A    between atoms: N_1  and  C_2
REMARK    2  A    between atoms: C_2  and  C_3
REMARK    3  A    between atoms: C_7  and  C_8
REMARK    4  A    between atoms: C_8  and  C_9
REMARK    5  A    between atoms: C_9  and  N_10
REMARK    6  A    between atoms: C_15  and  C_16
REMARK                            x       y       z     vdW  Elec       q    Type
REMARK                         _______ _______ _______ _____ _____    ______ ____
ROOT
ATOM      1  N   UNL     1      48.098   8.146  13.736  0.00  0.00    +0.000 N 
ATOM      2  C   UNL     1      47.080   7.264  13.296  0.00  0.00    +0.000 A 
ATOM      3  C   UNL     1      45.957   7.778  12.671  0.00  0.00    +0.000 A 
ATOM      4  C   UNL     1      44.977   6.879  12.295  0.00  0.00    +0.000 A 
ATOM      5  N   UNL     1      45.068   5.554  12.496  0.00  0.00    +0.000 NA
ATOM      6  C   UNL     1      46.201   5.156  13.110  0.00  0.00    +0.000 A 
ATOM      7  N   UNL     1      47.201   5.952  13.522  0.00  0.00    +0.000 NA
ATOM      8  H   UNL     1      48.411   8.706  12.945  0.00  0.00    +0.000 HD
ENDROOT
BRANCH   6   9
ATOM      9  C   UNL     1      46.370   3.671  13.340  0.00  0.00    +0.000 C 
ATOM     10  N   UNL     1      45.525   2.858  12.623  0.00  0.00    +0.000 N 
ATOM     11  O   UNL     1      47.195   3.186  14.105  0.00  0.00    +0.000 OA
ATOM     12  H   UNL     1      44.844   3.263  11.986  0.00  0.00    +0.000 HD
ATOM     13  H   UNL     1      45.596   1.858  12.739  0.00  0.00    +0.000 HD
ENDBRANCH   6   9
BRANCH   1  14
ATOM     14  C   UNL     1      49.213   7.428  14.388  0.00  0.00    +0.000 C 
BRANCH  14  15
ATOM     15  C   UNL     1      49.169   7.543  15.921  0.00  0.00    +0.000 C 
BRANCH  15  20
ATOM     16  C   UNL     1      48.990   3.998  17.385  0.00  0.00    +0.000 A 
ATOM     17  C   UNL     1      50.345   3.747  17.635  0.00  0.00    +0.000 A 
ATOM     18  C   UNL     1      51.302   4.733  17.400  0.00  0.00    +0.000 A 
ATOM     19  C   UNL     1      50.921   5.973  16.883  0.00  0.00    +0.000 A 
ATOM     20  C   UNL     1      49.576   6.240  16.587  0.00  0.00    +0.000 A 
ATOM     21  C   UNL     1      48.617   5.247  16.857  0.00  0.00    +0.000 A 
BRANCH  16  22
ATOM     22  C   UNL     1      47.965   2.921  17.647  0.00  0.00    +0.000 C 
BRANCH  22  23
ATOM     23  N   UNL     1      46.620   3.353  17.278  0.00  0.00    +0.000 NA
ATOM     24  H   UNL     1      46.113   3.628  18.116  0.00  0.00    +0.000 HD
ATOM     25  H   UNL     1      46.119   2.559  16.881  0.00  0.00    +0.000 HD
ENDBRANCH  22  23
ENDBRANCH  16  22
ENDBRANCH  15  20
ENDBRANCH  14  15
ENDBRANCH   1  14
TORSDOF 6
ENDMDL
