MODEL 1
REMARK VINA RESULT:    -7.101      0.000      0.000
REMARK INTER + INTRA:         -11.221
REMARK INTER:                 -10.007
REMARK INTRA:                  -1.214
REMARK UNBOUND:                -1.214
REMARK  Name = 
REMARK  12 active torsions:
REMARK  status: ('A' for Active; 'I' for Inactive)
REMARK    1  A    between atoms: C_1  and  C_2
REMARK    2  A    between atoms: C_2  and  C_3
REMARK    3  A    between atoms: C_2  and  C_4
REMARK    4  A    between atoms: C_2  and  C_5
REMARK    5  A    between atoms: C_8  and  N_9
REMARK    6  A    between atoms: N_9  and  C_10
REMARK    7  A    between atoms: C_10  and  C_11
REMARK    8  A    between atoms: C_11  and  C_12
REMARK    9  A    between atoms: C_11  and  C_13
REMARK   10  A    between atoms: C_11  and  C_14
REMARK   11  A    between atoms: C_18  and  C_19
REMARK   12  A    between atoms: C_23  and  C_24
REMARK                            x       y       z     vdW  Elec       q    Type
REMARK                         _______ _______ _______ _____ _____    ______ ____
ROOT
ATOM      1  C   UNL     1      48.691   8.814  12.374  0.00  0.00    +0.000 C 
ATOM      2  C   UNL     1      48.995  10.184  11.712  0.00  0.00    +0.000 C 
ATOM      3  C   UNL     1      49.630   7.761  11.738  0.00  0.00    +0.000 C 
ENDROOT
BRANCH   1   4
ATOM      4  C   UNL     1      47.211   8.462  12.110  0.00  0.00    +0.000 A 
ATOM      5  C   UNL     1      46.170   9.395  12.222  0.00  0.00    +0.000 A 
ATOM      6  C   UNL     1      44.851   9.050  11.938  0.00  0.00    +0.000 A 
ATOM      7  C   UNL     1      44.546   7.764  11.504  0.00  0.00    +0.000 A 
ATOM      8  C   UNL     1      45.549   6.797  11.339  0.00  0.00    +0.000 A 
ATOM      9  C   UNL     1      46.866   7.165  11.682  0.00  0.00    +0.000 A 
BRANCH   8  10
ATOM     10  C   UNL     1      45.247   5.460  10.781  0.00  0.00    +0.000 A 
ATOM     11  C   UNL     1      44.555   4.485  11.521  0.00  0.00    +0.000 A 
ATOM     12  C   UNL     1      44.294   3.217  10.996  0.00  0.00    +0.000 A 
ATOM     13  C   UNL     1      44.705   2.899   9.705  0.00  0.00    +0.000 A 
ATOM     14  C   UNL     1      45.393   3.844   8.944  0.00  0.00    +0.000 A 
ATOM     15  C   UNL     1      45.673   5.106   9.487  0.00  0.00    +0.000 A 
BRANCH  14  16
ATOM     16  C   UNL     1      45.805   3.539   7.609  0.00  0.00    +0.000 C 
ATOM     17  N   UNL     1      46.137   3.302   6.521  0.00  0.00    +0.000 NA
ENDBRANCH  14  16
ENDBRANCH   8  10
ENDBRANCH   1   4
BRANCH   1  18
ATOM     18  C   UNL     1      49.048   8.977  13.884  0.00  0.00    +0.000 C 
BRANCH  18  19
ATOM     19  N   UNL     1      50.122   8.077  14.310  0.00  0.00    +0.000 N 
ATOM     20  H   UNL     1      50.991   8.542  14.563  0.00  0.00    +0.000 HD
BRANCH  19  24
ATOM     21  C   UNL     1      49.071   4.952  16.804  0.00  0.00    +0.000 A 
ATOM     22  N   UNL     1      50.269   5.530  17.003  0.00  0.00    +0.000 NA
ATOM     23  C   UNL     1      50.599   6.546  16.181  0.00  0.00    +0.000 A 
ATOM     24  C   UNL     1      49.822   6.997  15.129  0.00  0.00    +0.000 A 
ATOM     25  C   UNL     1      48.603   6.348  15.049  0.00  0.00    +0.000 A 
ATOM     26  N   UNL     1      48.213   5.325  15.837  0.00  0.00    +0.000 NA
BRANCH  21  28
ATOM     27  C   UNL     1      47.237   3.352  17.446  0.00  0.00    +0.000 C 
ATOM     28  C   UNL     1      48.705   3.758  17.676  0.00  0.00    +0.000 C 
ATOM     29  C   UNL     1      48.906   4.159  19.146  0.00  0.00    +0.000 C 
ATOM     30  C   UNL     1      49.596   2.544  17.350  0.00  0.00    +0.000 C 
ENDBRANCH  21  28
ENDBRANCH  19  24
ENDBRANCH  18  19
ENDBRANCH   1  18
TORSDOF 7
ENDMDL
MODEL 2
REMARK VINA RESULT:    -7.006      1.433      2.246
REMARK INTER + INTRA:         -11.087
REMARK INTER:                  -9.684
REMARK INTRA:                  -1.403
REMARK UNBOUND:                -1.214
REMARK  Name = 
REMARK  12 active torsions:
REMARK  status: ('A' for Active; 'I' for Inactive)
REMARK    1  A    between atoms: C_1  and  C_2
REMARK    2  A    between atoms: C_2  and  C_3
REMARK    3  A    between atoms: C_2  and  C_4
REMARK    4  A    between atoms: C_2  and  C_5
REMARK    5  A    between atoms: C_8  and  N_9
REMARK    6  A    between atoms: N_9  and  C_10
REMARK    7  A    between atoms: C_10  and  C_11
REMARK    8  A    between atoms: C_11  and  C_12
REMARK    9  A    between atoms: C_11  and  C_13
REMARK   10  A    between atoms: C_11  and  C_14
REMARK   11  A    between atoms: C_18  and  C_19
REMARK   12  A    between atoms: C_23  and  C_24
REMARK                            x       y       z     vdW  Elec       q    Type
REMARK                         _______ _______ _______ _____ _____    ______ ____
ROOT
ATOM      1  C   UNL     1      49.415   8.776  12.131  0.00  0.00    +0.000 C 
ATOM      2  C   UNL     1      49.621  10.113  11.372  0.00  0.00    +0.000 C 
ATOM      3  C   UNL     1      50.217   7.681  11.388  0.00  0.00    +0.000 C 
ENDROOT
BRANCH   1   4
ATOM      4  C   UNL     1      47.907   8.446  12.137  0.00  0.00    +0.000 A 
ATOM      5  C   UNL     1      46.936   9.304  12.675  0.00  0.00    +0.000 A 
ATOM      6  C   UNL     1      45.581   8.988  12.626  0.00  0.00    +0.000 A 
ATOM      7  C   UNL     1      45.160   7.816  12.008  0.00  0.00    +0.000 A 
ATOM      8  C   UNL     1      46.081   6.935  11.421  0.00  0.00    +0.000 A 
ATOM      9  C   UNL     1      47.448   7.260  11.530  0.00  0.00    +0.000 A 
BRANCH   8  10
ATOM     10  C   UNL     1      45.635   5.738  10.673  0.00  0.00    +0.000 A 
ATOM     11  C   UNL     1      45.984   5.531   9.327  0.00  0.00    +0.000 A 
ATOM     12  C   UNL     1      45.539   4.409   8.621  0.00  0.00    +0.000 A 
ATOM     13  C   UNL     1      44.747   3.456   9.253  0.00  0.00    +0.000 A 
ATOM     14  C   UNL     1      44.385   3.632  10.589  0.00  0.00    +0.000 A 
ATOM     15  C   UNL     1      44.813   4.772  11.284  0.00  0.00    +0.000 A 
BRANCH  14  16
ATOM     16  C   UNL     1      43.587   2.651  11.258  0.00  0.00    +0.000 C 
ATOM     17  N   UNL     1      42.948   1.848  11.803  0.00  0.00    +0.000 NA
ENDBRANCH  14  16
ENDBRANCH   8  10
ENDBRANCH   1   4
BRANCH   1  18
ATOM     18  C   UNL     1      50.027   8.988  13.551  0.00  0.00    +0.000 C 
BRANCH  18  19
ATOM     19  N   UNL     1      50.617   7.765  14.100  0.00  0.00    +0.000 N 
ATOM     20  H   UNL     1      51.615   7.822  14.286  0.00  0.00    +0.000 HD
BRANCH  19  24
ATOM     21  C   UNL     1      48.704   5.513  16.991  0.00  0.00    +0.000 A 
ATOM     22  N   UNL     1      48.158   5.540  15.762  0.00  0.00    +0.000 NA
ATOM     23  C   UNL     1      48.792   6.281  14.830  0.00  0.00    +0.000 A 
ATOM     24  C   UNL     1      49.922   7.044  15.061  0.00  0.00    +0.000 A 
ATOM     25  C   UNL     1      50.406   6.907  16.349  0.00  0.00    +0.000 A 
ATOM     26  N   UNL     1      49.820   6.185  17.327  0.00  0.00    +0.000 NA
BRANCH  21  28
ATOM     27  C   UNL     1      48.972   4.077  19.040  0.00  0.00    +0.000 C 
ATOM     28  C   UNL     1      47.969   4.740  18.077  0.00  0.00    +0.000 C 
ATOM     29  C   UNL     1      47.113   3.658  17.399  0.00  0.00    +0.000 C 
ATOM     30  C   UNL     1      47.059   5.672  18.898  0.00  0.00    +0.000 C 
ENDBRANCH  21  28
ENDBRANCH  19  24
ENDBRANCH  18  19
ENDBRANCH   1  18
TORSDOF 7
ENDMDL
MODEL 3
REMARK VINA RESULT:    -6.236      2.310      7.076
REMARK INTER + INTRA:         -10.002
REMARK INTER:                  -8.720
REMARK INTRA:                  -1.282
REMARK UNBOUND:                -1.214
REMARK  Name = 
REMARK  12 active torsions:
REMARK  status: ('A' for Active; 'I' for Inactive)
REMARK    1  A    between atoms: C_1  and  C_2
REMARK    2  A    between atoms: C_2  and  C_3
REMARK    3  A    between atoms: C_2  and  C_4
REMARK    4  A    between atoms: C_2  and  C_5
REMARK    5  A    between atoms: C_8  and  N_9
REMARK    6  A    between atoms: N_9  and  C_10
REMARK    7  A    between atoms: C_10  and  C_11
REMARK    8  A    between atoms: C_11  and  C_12
REMARK    9  A    between atoms: C_11  and  C_13
REMARK   10  A    between atoms: C_11  and  C_14
REMARK   11  A    between atoms: C_18  and  C_19
REMARK   12  A    between atoms: C_23  and  C_24
REMARK                            x       y       z     vdW  Elec       q    Type
REMARK                         _______ _______ _______ _____ _____    ______ ____
ROOT
ATOM      1  C   UNL     1      49.327   9.610  15.001  0.00  0.00    +0.000 C 
ATOM      2  C   UNL     1      50.805   9.314  14.630  0.00  0.00    +0.000 C 
ATOM      3  C   UNL     1      49.215  11.116  15.337  0.00  0.00    +0.000 C 
ENDROOT
BRANCH   1   4
ATOM      4  C   UNL     1      48.947   8.743  16.220  0.00  0.00    +0.000 A 
ATOM      5  C   UNL     1      48.281   9.250  17.344  0.00  0.00    +0.000 A 
ATOM      6  C   UNL     1      47.920   8.427  18.408  0.00  0.00    +0.000 A 
ATOM      7  C   UNL     1      48.191   7.064  18.357  0.00  0.00    +0.000 A 
ATOM      8  C   UNL     1      48.823   6.492  17.243  0.00  0.00    +0.000 A 
ATOM      9  C   UNL     1      49.219   7.360  16.206  0.00  0.00    +0.000 A 
BRANCH   8  10
ATOM     10  C   UNL     1      49.023   5.029  17.137  0.00  0.00    +0.000 A 
ATOM     11  C   UNL     1      47.997   4.168  16.709  0.00  0.00    +0.000 A 
ATOM     12  C   UNL     1      48.187   2.785  16.633  0.00  0.00    +0.000 A 
ATOM     13  C   UNL     1      49.418   2.231  16.968  0.00  0.00    +0.000 A 
ATOM     14  C   UNL     1      50.457   3.059  17.395  0.00  0.00    +0.000 A 
ATOM     15  C   UNL     1      50.252   4.442  17.493  0.00  0.00    +0.000 A 
BRANCH  14  16
ATOM     16  C   UNL     1      51.735   2.505  17.724  0.00  0.00    +0.000 C 
ATOM     17  N   UNL     1      52.769   2.055  18.003  0.00  0.00    +0.000 NA
ENDBRANCH  14  16
ENDBRANCH   8  10
ENDBRANCH   1   4
BRANCH   1  18
ATOM     18  C   UNL     1      48.494   9.306  13.717  0.00  0.00    +0.000 C 
BRANCH  18  19
ATOM     19  N   UNL     1      47.132   8.861  14.020  0.00  0.00    +0.000 N 
ATOM     20  H   UNL     1      46.475   9.611  14.220  0.00  0.00    +0.000 HD
BRANCH  19  24
ATOM     21  C   UNL     1      45.306   5.798  11.928  0.00  0.00    +0.000 A 
ATOM     22  N   UNL     1      46.451   5.514  12.573  0.00  0.00    +0.000 NA
ATOM     23  C   UNL     1      47.036   6.523  13.250  0.00  0.00    +0.000 A 
ATOM     24  C   UNL     1      46.573   7.825  13.284  0.00  0.00    +0.000 A 
ATOM     25  C   UNL     1      45.374   7.984  12.613  0.00  0.00    +0.000 A 
ATOM     26  N   UNL     1      44.738   7.018  11.917  0.00  0.00    +0.000 NA
BRANCH  21  28
ATOM     27  C   UNL     1      44.988   3.312  11.703  0.00  0.00    +0.000 C 
ATOM     28  C   UNL     1      44.664   4.693  11.102  0.00  0.00    +0.000 C 
ATOM     29  C   UNL     1      45.223   4.776   9.672  0.00  0.00    +0.000 C 
ATOM     30  C   UNL     1      43.132   4.852  11.061  0.00  0.00    +0.000 C 
ENDBRANCH  21  28
ENDBRANCH  19  24
ENDBRANCH  18  19
ENDBRANCH   1  18
TORSDOF 7
ENDMDL
MODEL 4
REMARK VINA RESULT:    -6.100      2.189      6.891
REMARK INTER + INTRA:          -9.811
REMARK INTER:                  -8.605
REMARK INTRA:                  -1.206
REMARK UNBOUND:                -1.214
REMARK  Name = 
REMARK  12 active torsions:
REMARK  status: ('A' for Active; 'I' for Inactive)
REMARK    1  A    between atoms: C_1  and  C_2
REMARK    2  A    between atoms: C_2  and  C_3
REMARK    3  A    between atoms: C_2  and  C_4
REMARK    4  A    between atoms: C_2  and  C_5
REMARK    5  A    between atoms: C_8  and  N_9
REMARK    6  A    between atoms: N_9  and  C_10
REMARK    7  A    between atoms: C_10  and  C_11
REMARK    8  A    between atoms: C_11  and  C_12
REMARK    9  A    between atoms: C_11  and  C_13
REMARK   10  A    between atoms: C_11  and  C_14
REMARK   11  A    between atoms: C_18  and  C_19
REMARK   12  A    between atoms: C_23  and  C_24
REMARK                            x       y       z     vdW  Elec       q    Type
REMARK                         _______ _______ _______ _____ _____    ______ ____
ROOT
ATOM      1  C   UNL     1      49.884   9.149  13.960  0.00  0.00    +0.000 C 
ATOM      2  C   UNL     1      51.218   8.360  13.890  0.00  0.00    +0.000 C 
ATOM      3  C   UNL     1      50.193  10.631  13.643  0.00  0.00    +0.000 C 
ENDROOT
BRANCH   1   4
ATOM      4  C   UNL     1      49.303   8.999  15.382  0.00  0.00    +0.000 A 
ATOM      5  C   UNL     1      48.665  10.046  16.065  0.00  0.00    +0.000 A 
ATOM      6  C   UNL     1      48.119   9.860  17.332  0.00  0.00    +0.000 A 
ATOM      7  C   UNL     1      48.172   8.609  17.937  0.00  0.00    +0.000 A 
ATOM      8  C   UNL     1      48.765   7.515  17.289  0.00  0.00    +0.000 A 
ATOM      9  C   UNL     1      49.351   7.748  16.029  0.00  0.00    +0.000 A 
BRANCH   8  10
ATOM     10  C   UNL     1      48.735   6.158  17.882  0.00  0.00    +0.000 A 
ATOM     11  C   UNL     1      48.479   5.951  19.249  0.00  0.00    +0.000 A 
ATOM     12  C   UNL     1      48.475   4.668  19.805  0.00  0.00    +0.000 A 
ATOM     13  C   UNL     1      48.709   3.558  18.999  0.00  0.00    +0.000 A 
ATOM     14  C   UNL     1      48.964   3.731  17.639  0.00  0.00    +0.000 A 
ATOM     15  C   UNL     1      48.992   5.021  17.092  0.00  0.00    +0.000 A 
BRANCH  14  16
ATOM     16  C   UNL     1      49.187   2.598  16.794  0.00  0.00    +0.000 C 
ATOM     17  N   UNL     1      49.357   1.674  16.110  0.00  0.00    +0.000 NA
ENDBRANCH  14  16
ENDBRANCH   8  10
ENDBRANCH   1   4
BRANCH   1  18
ATOM     18  C   UNL     1      48.976   8.560  12.835  0.00  0.00    +0.000 C 
BRANCH  18  19
ATOM     19  N   UNL     1      48.852   7.103  12.915  0.00  0.00    +0.000 N 
ATOM     20  H   UNL     1      49.318   6.681  13.714  0.00  0.00    +0.000 HD
BRANCH  19  24
ATOM     21  C   UNL     1      45.323   5.153  11.998  0.00  0.00    +0.000 A 
ATOM     22  N   UNL     1      45.698   6.170  11.200  0.00  0.00    +0.000 NA
ATOM     23  C   UNL     1      46.850   6.797  11.513  0.00  0.00    +0.000 A 
ATOM     24  C   UNL     1      47.637   6.504  12.612  0.00  0.00    +0.000 A 
ATOM     25  C   UNL     1      47.166   5.422  13.334  0.00  0.00    +0.000 A 
ATOM     26  N   UNL     1      46.023   4.753  13.075  0.00  0.00    +0.000 NA
BRANCH  21  28
ATOM     27  C   UNL     1      43.958   3.065  12.327  0.00  0.00    +0.000 C 
ATOM     28  C   UNL     1      43.993   4.475  11.705  0.00  0.00    +0.000 C 
ATOM     29  C   UNL     1      43.834   4.370  10.180  0.00  0.00    +0.000 C 
ATOM     30  C   UNL     1      42.820   5.286  12.287  0.00  0.00    +0.000 C 
ENDBRANCH  21  28
ENDBRANCH  19  24
ENDBRANCH  18  19
ENDBRANCH   1  18
TORSDOF 7
ENDMDL
MODEL 5
REMARK VINA RESULT:    -6.048      2.215      6.014
REMARK INTER + INTRA:          -9.738
REMARK INTER:                  -7.711
REMARK INTRA:                  -2.027
REMARK UNBOUND:                -1.214
REMARK  Name = 
REMARK  12 active torsions:
REMARK  status: ('A' for Active; 'I' for Inactive)
REMARK    1  A    between atoms: C_1  and  C_2
REMARK    2  A    between atoms: C_2  and  C_3
REMARK    3  A    between atoms: C_2  and  C_4
REMARK    4  A    between atoms: C_2  and  C_5
REMARK    5  A    between atoms: C_8  and  N_9
REMARK    6  A    between atoms: N_9  and  C_10
REMARK    7  A    between atoms: C_10  and  C_11
REMARK    8  A    between atoms: C_11  and  C_12
REMARK    9  A    between atoms: C_11  and  C_13
REMARK   10  A    between atoms: C_11  and  C_14
REMARK   11  A    between atoms: C_18  and  C_19
REMARK   12  A    between atoms: C_23  and  C_24
REMARK                            x       y       z     vdW  Elec       q    Type
REMARK                         _______ _______ _______ _____ _____    ______ ____
ROOT
ATOM      1  C   UNL     1      48.759   5.891  18.727  0.00  0.00    +0.000 C 
ATOM      2  C   UNL     1      49.239   5.174  20.016  0.00  0.00    +0.000 C 
ATOM      3  C   UNL     1      47.476   6.683  19.074  0.00  0.00    +0.000 C 
ENDROOT
BRANCH   1   4
ATOM      4  C   UNL     1      48.473   4.822  17.651  0.00  0.00    +0.000 A 
ATOM      5  C   UNL     1      48.667   3.449  17.864  0.00  0.00    +0.000 A 
ATOM      6  C   UNL     1      48.361   2.511  16.881  0.00  0.00    +0.000 A 
ATOM      7  C   UNL     1      47.821   2.925  15.668  0.00  0.00    +0.000 A 
ATOM      8  C   UNL     1      47.571   4.281  15.410  0.00  0.00    +0.000 A 
ATOM      9  C   UNL     1      47.938   5.208  16.406  0.00  0.00    +0.000 A 
BRANCH   8  10
ATOM     10  C   UNL     1      46.903   4.719  14.164  0.00  0.00    +0.000 A 
ATOM     11  C   UNL     1      47.269   5.905  13.503  0.00  0.00    +0.000 A 
ATOM     12  C   UNL     1      46.617   6.323  12.339  0.00  0.00    +0.000 A 
ATOM     13  C   UNL     1      45.594   5.552  11.797  0.00  0.00    +0.000 A 
ATOM     14  C   UNL     1      45.210   4.369  12.428  0.00  0.00    +0.000 A 
ATOM     15  C   UNL     1      45.850   3.968  13.609  0.00  0.00    +0.000 A 
BRANCH  14  16
ATOM     16  C   UNL     1      44.172   3.555  11.872  0.00  0.00    +0.000 C 
ATOM     17  N   UNL     1      43.330   2.902  11.410  0.00  0.00    +0.000 NA
ENDBRANCH  14  16
ENDBRANCH   8  10
ENDBRANCH   1   4
BRANCH   1  18
ATOM     18  C   UNL     1      49.894   6.893  18.345  0.00  0.00    +0.000 C 
BRANCH  18  19
ATOM     19  N   UNL     1      49.378   8.143  17.784  0.00  0.00    +0.000 N 
ATOM     20  H   UNL     1      49.560   8.969  18.349  0.00  0.00    +0.000 HD
BRANCH  19  24
ATOM     21  C   UNL     1      49.546   8.755  13.698  0.00  0.00    +0.000 A 
ATOM     22  N   UNL     1      50.549   8.061  14.265  0.00  0.00    +0.000 NA
ATOM     23  C   UNL     1      50.481   7.871  15.598  0.00  0.00    +0.000 A 
ATOM     24  C   UNL     1      49.491   8.377  16.420  0.00  0.00    +0.000 A 
ATOM     25  C   UNL     1      48.502   9.042  15.718  0.00  0.00    +0.000 A 
ATOM     26  N   UNL     1      48.510   9.268  14.388  0.00  0.00    +0.000 NA
BRANCH  21  28
ATOM     27  C   UNL     1      50.772  10.039  11.915  0.00  0.00    +0.000 C 
ATOM     28  C   UNL     1      49.635   9.041  12.206  0.00  0.00    +0.000 C 
ATOM     29  C   UNL     1      48.295   9.640  11.751  0.00  0.00    +0.000 C 
ATOM     30  C   UNL     1      49.915   7.751  11.413  0.00  0.00    +0.000 C 
ENDBRANCH  21  28
ENDBRANCH  19  24
ENDBRANCH  18  19
ENDBRANCH   1  18
TORSDOF 7
ENDMDL
MODEL 6
REMARK VINA RESULT:    -6.010      3.043      8.569
REMARK INTER + INTRA:          -9.683
REMARK INTER:                  -8.644
REMARK INTRA:                  -1.039
REMARK UNBOUND:                -1.214
REMARK  Name = 
REMARK  12 active torsions:
REMARK  status: ('A' for Active; 'I' for Inactive)
REMARK    1  A    between atoms: C_1  and  C_2
REMARK    2  A    between atoms: C_2  and  C_3
REMARK    3  A    between atoms: C_2  and  C_4
REMARK    4  A    between atoms: C_2  and  C_5
REMARK    5  A    between atoms: C_8  and  N_9
REMARK    6  A    between atoms: N_9  and  C_10
REMARK    7  A    between atoms: C_10  and  C_11
REMARK    8  A    between atoms: C_11  and  C_12
REMARK    9  A    between atoms: C_11  and  C_13
REMARK   10  A    between atoms: C_11  and  C_14
REMARK   11  A    between atoms: C_18  and  C_19
REMARK   12  A    between atoms: C_23  and  C_24
REMARK                            x       y       z     vdW  Elec       q    Type
REMARK                         _______ _______ _______ _____ _____    ______ ____
ROOT
ATOM      1  C   UNL     1      49.113   7.329  16.219  0.00  0.00    +0.000 C 
ATOM      2  C   UNL     1      50.495   7.755  15.656  0.00  0.00    +0.000 C 
ATOM      3  C   UNL     1      48.708   8.352  17.307  0.00  0.00    +0.000 C 
ENDROOT
BRANCH   1   4
ATOM      4  C   UNL     1      49.246   5.912  16.816  0.00  0.00    +0.000 A 
ATOM      5  C   UNL     1      48.147   5.073  17.052  0.00  0.00    +0.000 A 
ATOM      6  C   UNL     1      48.311   3.785  17.556  0.00  0.00    +0.000 A 
ATOM      7  C   UNL     1      49.587   3.293  17.808  0.00  0.00    +0.000 A 
ATOM      8  C   UNL     1      50.727   4.073  17.558  0.00  0.00    +0.000 A 
ATOM      9  C   UNL     1      50.524   5.388  17.095  0.00  0.00    +0.000 A 
BRANCH   8  10
ATOM     10  C   UNL     1      52.091   3.521  17.727  0.00  0.00    +0.000 A 
ATOM     11  C   UNL     1      53.235   4.334  17.650  0.00  0.00    +0.000 A 
ATOM     12  C   UNL     1      54.520   3.801  17.787  0.00  0.00    +0.000 A 
ATOM     13  C   UNL     1      54.690   2.441  18.024  0.00  0.00    +0.000 A 
ATOM     14  C   UNL     1      53.574   1.608  18.107  0.00  0.00    +0.000 A 
ATOM     15  C   UNL     1      52.289   2.144  17.943  0.00  0.00    +0.000 A 
BRANCH  14  16
ATOM     16  C   UNL     1      53.731   0.210  18.369  0.00  0.00    +0.000 C 
ATOM     17  N   UNL     1      53.848  -0.925  18.585  0.00  0.00    +0.000 NA
ENDBRANCH  14  16
ENDBRANCH   8  10
ENDBRANCH   1   4
BRANCH   1  18
ATOM     18  C   UNL     1      48.114   7.427  15.024  0.00  0.00    +0.000 C 
BRANCH  18  19
ATOM     19  N   UNL     1      48.285   6.343  14.054  0.00  0.00    +0.000 N 
ATOM     20  H   UNL     1      48.928   5.611  14.346  0.00  0.00    +0.000 HD
BRANCH  19  24
ATOM     21  C   UNL     1      45.073   4.729  12.012  0.00  0.00    +0.000 A 
ATOM     22  N   UNL     1      45.717   5.764  11.442  0.00  0.00    +0.000 NA
ATOM     23  C   UNL     1      46.761   6.280  12.121  0.00  0.00    +0.000 A 
ATOM     24  C   UNL     1      47.179   5.859  13.369  0.00  0.00    +0.000 A 
ATOM     25  C   UNL     1      46.463   4.771  13.834  0.00  0.00    +0.000 A 
ATOM     26  N   UNL     1      45.409   4.209  13.206  0.00  0.00    +0.000 NA
BRANCH  21  28
ATOM     27  C   UNL     1      43.455   2.806  11.888  0.00  0.00    +0.000 C 
ATOM     28  C   UNL     1      43.850   4.173  11.297  0.00  0.00    +0.000 C 
ATOM     29  C   UNL     1      44.197   4.011   9.809  0.00  0.00    +0.000 C 
ATOM     30  C   UNL     1      42.647   5.125  11.442  0.00  0.00    +0.000 C 
ENDBRANCH  21  28
ENDBRANCH  19  24
ENDBRANCH  18  19
ENDBRANCH   1  18
TORSDOF 7
ENDMDL
MODEL 7
REMARK VINA RESULT:    -5.994      3.168      6.008
REMARK INTER + INTRA:          -9.661
REMARK INTER:                  -8.620
REMARK INTRA:                  -1.042
REMARK UNBOUND:                -1.214
REMARK  Name = 
REMARK  12 active torsions:
REMARK  status: ('A' for Active; 'I' for Inactive)
REMARK    1  A    between atoms: C_1  and  C_2
REMARK    2  A    between atoms: C_2  and  C_3
REMARK    3  A    between atoms: C_2  and  C_4
REMARK    4  A    between atoms: C_2  and  C_5
REMARK    5  A    between atoms: C_8  and  N_9
REMARK    6  A    between atoms: N_9  and  C_10
REMARK    7  A    between atoms: C_10  and  C_11
REMARK    8  A    between atoms: C_11  and  C_12
REMARK    9  A    between atoms: C_11  and  C_13
REMARK   10  A    between atoms: C_11  and  C_14
REMARK   11  A    between atoms: C_18  and  C_19
REMARK   12  A    between atoms: C_23  and  C_24
REMARK                            x       y       z     vdW  Elec       q    Type
REMARK                         _______ _______ _______ _____ _____    ______ ____
ROOT
ATOM      1  C   UNL     1      48.265   8.181  12.869  0.00  0.00    +0.000 C 
ATOM      2  C   UNL     1      48.992   6.817  13.007  0.00  0.00    +0.000 C 
ATOM      3  C   UNL     1      48.173   8.814  14.278  0.00  0.00    +0.000 C 
ENDROOT
BRANCH   1   4
ATOM      4  C   UNL     1      46.859   7.928  12.285  0.00  0.00    +0.000 A 
ATOM      5  C   UNL     1      45.859   8.910  12.239  0.00  0.00    +0.000 A 
ATOM      6  C   UNL     1      44.615   8.654  11.668  0.00  0.00    +0.000 A 
ATOM      7  C   UNL     1      44.352   7.412  11.100  0.00  0.00    +0.000 A 
ATOM      8  C   UNL     1      45.324   6.401  11.084  0.00  0.00    +0.000 A 
ATOM      9  C   UNL     1      46.555   6.676  11.712  0.00  0.00    +0.000 A 
BRANCH   8  10
ATOM     10  C   UNL     1      45.087   5.114  10.392  0.00  0.00    +0.000 A 
ATOM     11  C   UNL     1      44.297   4.099  10.960  0.00  0.00    +0.000 A 
ATOM     12  C   UNL     1      44.098   2.878  10.310  0.00  0.00    +0.000 A 
ATOM     13  C   UNL     1      44.671   2.650   9.063  0.00  0.00    +0.000 A 
ATOM     14  C   UNL     1      45.459   3.638   8.472  0.00  0.00    +0.000 A 
ATOM     15  C   UNL     1      45.676   4.850   9.140  0.00  0.00    +0.000 A 
BRANCH  14  16
ATOM     16  C   UNL     1      46.039   3.425   7.181  0.00  0.00    +0.000 C 
ATOM     17  N   UNL     1      46.500   3.248   6.129  0.00  0.00    +0.000 NA
ENDBRANCH  14  16
ENDBRANCH   8  10
ENDBRANCH   1   4
BRANCH   1  18
ATOM     18  C   UNL     1      49.180   9.067  11.966  0.00  0.00    +0.000 C 
BRANCH  18  19
ATOM     19  N   UNL     1      50.598   8.721  12.088  0.00  0.00    +0.000 N 
ATOM     20  H   UNL     1      50.805   8.025  12.801  0.00  0.00    +0.000 HD
BRANCH  19  24
ATOM     21  C   UNL     1      52.997   8.165   8.767  0.00  0.00    +0.000 A 
ATOM     22  N   UNL     1      52.845   9.422   9.221  0.00  0.00    +0.000 NA
ATOM     23  C   UNL     1      52.058   9.588  10.304  0.00  0.00    +0.000 A 
ATOM     24  C   UNL     1      51.366   8.575  10.941  0.00  0.00    +0.000 A 
ATOM     25  C   UNL     1      51.629   7.327  10.404  0.00  0.00    +0.000 A 
ATOM     26  N   UNL     1      52.404   7.094   9.324  0.00  0.00    +0.000 NA
BRANCH  21  28
ATOM     27  C   UNL     1      55.012   8.943   7.477  0.00  0.00    +0.000 C 
ATOM     28  C   UNL     1      53.825   7.962   7.506  0.00  0.00    +0.000 C 
ATOM     29  C   UNL     1      52.918   8.213   6.291  0.00  0.00    +0.000 C 
ATOM     30  C   UNL     1      54.384   6.528   7.439  0.00  0.00    +0.000 C 
ENDBRANCH  21  28
ENDBRANCH  19  24
ENDBRANCH  18  19
ENDBRANCH   1  18
TORSDOF 7
ENDMDL
MODEL 8
REMARK VINA RESULT:    -5.892      3.321      5.349
REMARK INTER + INTRA:          -9.517
REMARK INTER:                  -8.360
REMARK INTRA:                  -1.157
REMARK UNBOUND:                -1.214
REMARK  Name = 
REMARK  12 active torsions:
REMARK  status: ('A' for Active; 'I' for Inactive)
REMARK    1  A    between atoms: C_1  and  C_2
REMARK    2  A    between atoms: C_2  and  C_3
REMARK    3  A    between atoms: C_2  and  C_4
REMARK    4  A    between atoms: C_2  and  C_5
REMARK    5  A    between atoms: C_8  and  N_9
REMARK    6  A    between atoms: N_9  and  C_10
REMARK    7  A    between atoms: C_10  and  C_11
REMARK    8  A    between atoms: C_11  and  C_12
REMARK    9  A    between atoms: C_11  and  C_13
REMARK   10  A    between atoms: C_11  and  C_14
REMARK   11  A    between atoms: C_18  and  C_19
REMARK   12  A    between atoms: C_23  and  C_24
REMARK                            x       y       z     vdW  Elec       q    Type
REMARK                         _______ _______ _______ _____ _____    ______ ____
ROOT
ATOM      1  C   UNL     1      48.183   3.723  16.973  0.00  0.00    +0.000 C 
ATOM      2  C   UNL     1      49.012   2.533  16.422  0.00  0.00    +0.000 C 
ATOM      3  C   UNL     1      46.888   3.151  17.597  0.00  0.00    +0.000 C 
ENDROOT
BRANCH   1   4
ATOM      4  C   UNL     1      47.857   4.675  15.803  0.00  0.00    +0.000 A 
ATOM      5  C   UNL     1      48.630   5.804  15.494  0.00  0.00    +0.000 A 
ATOM      6  C   UNL     1      48.325   6.617  14.405  0.00  0.00    +0.000 A 
ATOM      7  C   UNL     1      47.254   6.300  13.577  0.00  0.00    +0.000 A 
ATOM      8  C   UNL     1      46.466   5.163  13.814  0.00  0.00    +0.000 A 
ATOM      9  C   UNL     1      46.770   4.390  14.952  0.00  0.00    +0.000 A 
BRANCH   8  10
ATOM     10  C   UNL     1      45.389   4.763  12.880  0.00  0.00    +0.000 A 
ATOM     11  C   UNL     1      44.069   5.224  13.028  0.00  0.00    +0.000 A 
ATOM     12  C   UNL     1      43.053   4.823  12.155  0.00  0.00    +0.000 A 
ATOM     13  C   UNL     1      43.339   3.963  11.100  0.00  0.00    +0.000 A 
ATOM     14  C   UNL     1      44.640   3.489  10.926  0.00  0.00    +0.000 A 
ATOM     15  C   UNL     1      45.648   3.875  11.819  0.00  0.00    +0.000 A 
BRANCH  14  16
ATOM     16  C   UNL     1      44.953   2.619   9.835  0.00  0.00    +0.000 C 
ATOM     17  N   UNL     1      45.214   1.921   8.943  0.00  0.00    +0.000 NA
ENDBRANCH  14  16
ENDBRANCH   8  10
ENDBRANCH   1   4
BRANCH   1  18
ATOM     18  C   UNL     1      49.054   4.368  18.097  0.00  0.00    +0.000 C 
BRANCH  18  19
ATOM     19  N   UNL     1      48.274   4.710  19.289  0.00  0.00    +0.000 N 
ATOM     20  H   UNL     1      48.509   4.170  20.118  0.00  0.00    +0.000 HD
BRANCH  19  24
ATOM     21  C   UNL     1      47.630   8.717  20.078  0.00  0.00    +0.000 A 
ATOM     22  N   UNL     1      47.299   7.833  21.036  0.00  0.00    +0.000 NA
ATOM     23  C   UNL     1      47.513   6.530  20.764  0.00  0.00    +0.000 A 
ATOM     24  C   UNL     1      47.996   6.042  19.564  0.00  0.00    +0.000 A 
ATOM     25  C   UNL     1      48.330   7.046  18.674  0.00  0.00    +0.000 A 
ATOM     26  N   UNL     1      48.141   8.366  18.883  0.00  0.00    +0.000 NA
BRANCH  21  28
ATOM     27  C   UNL     1      46.028  10.342  21.137  0.00  0.00    +0.000 C 
ATOM     28  C   UNL     1      47.335  10.187  20.336  0.00  0.00    +0.000 C 
ATOM     29  C   UNL     1      47.193  10.893  18.978  0.00  0.00    +0.000 C 
ATOM     30  C   UNL     1      48.472  10.847  21.139  0.00  0.00    +0.000 C 
ENDBRANCH  21  28
ENDBRANCH  19  24
ENDBRANCH  18  19
ENDBRANCH   1  18
TORSDOF 7
ENDMDL
MODEL 9
REMARK VINA RESULT:    -5.768      2.242      7.125
REMARK INTER + INTRA:          -9.343
REMARK INTER:                  -8.057
REMARK INTRA:                  -1.286
REMARK UNBOUND:                -1.214
REMARK  Name = 
REMARK  12 active torsions:
REMARK  status: ('A' for Active; 'I' for Inactive)
REMARK    1  A    between atoms: C_1  and  C_2
REMARK    2  A    between atoms: C_2  and  C_3
REMARK    3  A    between atoms: C_2  and  C_4
REMARK    4  A    between atoms: C_2  and  C_5
REMARK    5  A    between atoms: C_8  and  N_9
REMARK    6  A    between atoms: N_9  and  C_10
REMARK    7  A    between atoms: C_10  and  C_11
REMARK    8  A    between atoms: C_11  and  C_12
REMARK    9  A    between atoms: C_11  and  C_13
REMARK   10  A    between atoms: C_11  and  C_14
REMARK   11  A    between atoms: C_18  and  C_19
REMARK   12  A    between atoms: C_23  and  C_24
REMARK                            x       y       z     vdW  Elec       q    Type
REMARK                         _______ _______ _______ _____ _____    ______ ____
ROOT
ATOM      1  C   UNL     1      49.965   9.466  13.652  0.00  0.00    +0.000 C 
ATOM      2  C   UNL     1      50.520   8.632  12.467  0.00  0.00    +0.000 C 
ATOM      3  C   UNL     1      50.330  10.948  13.401  0.00  0.00    +0.000 C 
ENDROOT
BRANCH   1   4
ATOM      4  C   UNL     1      50.612   8.951  14.955  0.00  0.00    +0.000 A 
ATOM      5  C   UNL     1      51.327   9.777  15.834  0.00  0.00    +0.000 A 
ATOM      6  C   UNL     1      51.863   9.284  17.021  0.00  0.00    +0.000 A 
ATOM      7  C   UNL     1      51.668   7.953  17.373  0.00  0.00    +0.000 A 
ATOM      8  C   UNL     1      50.931   7.086  16.552  0.00  0.00    +0.000 A 
ATOM      9  C   UNL     1      50.444   7.605  15.335  0.00  0.00    +0.000 A 
BRANCH   8  10
ATOM     10  C   UNL     1      50.632   5.697  16.968  0.00  0.00    +0.000 A 
ATOM     11  C   UNL     1      51.644   4.811  17.376  0.00  0.00    +0.000 A 
ATOM     12  C   UNL     1      51.356   3.493  17.745  0.00  0.00    +0.000 A 
ATOM     13  C   UNL     1      50.042   3.037  17.732  0.00  0.00    +0.000 A 
ATOM     14  C   UNL     1      49.015   3.893  17.333  0.00  0.00    +0.000 A 
ATOM     15  C   UNL     1      49.313   5.204  16.940  0.00  0.00    +0.000 A 
BRANCH  14  16
ATOM     16  C   UNL     1      47.657   3.443  17.333  0.00  0.00    +0.000 C 
ATOM     17  N   UNL     1      46.551   3.087  17.340  0.00  0.00    +0.000 NA
ENDBRANCH  14  16
ENDBRANCH   8  10
ENDBRANCH   1   4
BRANCH   1  18
ATOM     18  C   UNL     1      48.413   9.303  13.602  0.00  0.00    +0.000 C 
BRANCH  18  19
ATOM     19  N   UNL     1      47.931   8.892  12.281  0.00  0.00    +0.000 N 
ATOM     20  H   UNL     1      48.645   8.869  11.557  0.00  0.00    +0.000 HD
BRANCH  19  24
ATOM     21  C   UNL     1      45.108   5.876  12.127  0.00  0.00    +0.000 A 
ATOM     22  N   UNL     1      46.387   5.520  12.345  0.00  0.00    +0.000 NA
ATOM     23  C   UNL     1      47.296   6.515  12.391  0.00  0.00    +0.000 A 
ATOM     24  C   UNL     1      47.017   7.853  12.182  0.00  0.00    +0.000 A 
ATOM     25  C   UNL     1      45.667   8.095  12.002  0.00  0.00    +0.000 A 
ATOM     26  N   UNL     1      44.707   7.147  11.944  0.00  0.00    +0.000 NA
BRANCH  21  28
ATOM     27  C   UNL     1      44.725   3.392  12.253  0.00  0.00    +0.000 C 
ATOM     28  C   UNL     1      44.074   4.766  12.003  0.00  0.00    +0.000 C 
ATOM     29  C   UNL     1      43.492   4.809  10.581  0.00  0.00    +0.000 C 
ATOM     30  C   UNL     1      42.938   4.953  13.027  0.00  0.00    +0.000 C 
ENDBRANCH  21  28
ENDBRANCH  19  24
ENDBRANCH  18  19
ENDBRANCH   1  18
TORSDOF 7
ENDMDL
