MODEL 1
REMARK VINA RESULT:    -7.678      0.000      0.000
REMARK INTER + INTRA:          -9.462
REMARK INTER:                  -9.474
REMARK INTRA:                   0.012
REMARK UNBOUND:                 0.012
REMARK  Name = 
REMARK  6 active torsions:
REMARK  status: ('A' for Active; 'I' for Inactive)
REMARK    1  A    between atoms: C_1  and  N_2
REMARK    2  A    between atoms: C_3  and  C_5
REMARK    3  A    between atoms: C_8  and  N_9
REMARK    4  A    between atoms: N_9  and  C_10
REMARK    5  A    between atoms: C_10  and  C_11
REMARK    6  A    between atoms: C_10  and  C_12
REMARK                            x       y       z     vdW  Elec       q    Type
REMARK                         _______ _______ _______ _____ _____    ______ ____
ROOT
ATOM      1  C   UNL     1      47.154   6.008  13.236  0.00  0.00    +0.000 A 
ATOM      2  C   UNL     1      47.237   6.591  11.969  0.00  0.00    +0.000 A 
ATOM      3  C   UNL     1      46.253   6.315  11.011  0.00  0.00    +0.000 A 
ATOM      4  C   UNL     1      45.199   5.431  11.273  0.00  0.00    +0.000 A 
ATOM      5  C   UNL     1      45.109   4.883  12.556  0.00  0.00    +0.000 A 
ATOM      6  C   UNL     1      46.086   5.155  13.525  0.00  0.00    +0.000 A 
ENDROOT
BRANCH   1   9
ATOM      7  C   UNL     1      48.779   6.055  16.658  0.00  0.00    +0.000 C 
ATOM      8  N   UNL     1      47.846   5.888  15.573  0.00  0.00    +0.000 N 
ATOM      9  C   UNL     1      48.190   6.239  14.283  0.00  0.00    +0.000 C 
ATOM     10  O   UNL     1      49.285   6.694  13.980  0.00  0.00    +0.000 OA
ATOM     11  H   UNL     1      47.008   5.349  15.738  0.00  0.00    +0.000 HD
ENDBRANCH   1   9
BRANCH   4  12
ATOM     12  N   UNL     1      44.269   5.215  10.256  0.00  0.00    +0.000 N 
ATOM     13  H   UNL     1      43.445   5.795  10.391  0.00  0.00    +0.000 HD
BRANCH  12  14
ATOM     14  C   UNL     1      43.946   3.858   9.802  0.00  0.00    +0.000 C 
ATOM     15  C   UNL     1      43.741   2.984  11.043  0.00  0.00    +0.000 C 
BRANCH  14  16
ATOM     16  C   UNL     1      45.039   3.314   8.893  0.00  0.00    +0.000 A 
ATOM     17  C   UNL     1      45.342   1.942   8.911  0.00  0.00    +0.000 A 
ATOM     18  C   UNL     1      46.332   1.415   8.080  0.00  0.00    +0.000 A 
ATOM     19  C   UNL     1      47.036   2.249   7.215  0.00  0.00    +0.000 A 
ATOM     20  C   UNL     1      46.757   3.614   7.190  0.00  0.00    +0.000 A 
ATOM     21  C   UNL     1      45.768   4.143   8.022  0.00  0.00    +0.000 A 
ENDBRANCH  14  16
ENDBRANCH  12  14
ENDBRANCH   4  12
TORSDOF 4
ENDMDL
MODEL 2
REMARK VINA RESULT:    -7.360      2.903      6.480
REMARK INTER + INTRA:          -9.069
REMARK INTER:                  -8.265
REMARK INTRA:                  -0.805
REMARK UNBOUND:                 0.012
REMARK  Name = 
REMARK  6 active torsions:
REMARK  status: ('A' for Active; 'I' for Inactive)
REMARK    1  A    between atoms: C_1  and  N_2
REMARK    2  A    between atoms: C_3  and  C_5
REMARK    3  A    between atoms: C_8  and  N_9
REMARK    4  A    between atoms: N_9  and  C_10
REMARK    5  A    between atoms: C_10  and  C_11
REMARK    6  A    between atoms: C_10  and  C_12
REMARK                            x       y       z     vdW  Elec       q    Type
REMARK                         _______ _______ _______ _____ _____    ______ ____
ROOT
ATOM      1  C   UNL     1      46.057   2.700   7.931  0.00  0.00    +0.000 A 
ATOM      2  C   UNL     1      45.306   1.925   8.817  0.00  0.00    +0.000 A 
ATOM      3  C   UNL     1      44.503   2.551   9.780  0.00  0.00    +0.000 A 
ATOM      4  C   UNL     1      44.463   3.945   9.910  0.00  0.00    +0.000 A 
ATOM      5  C   UNL     1      45.192   4.708   8.995  0.00  0.00    +0.000 A 
ATOM      6  C   UNL     1      45.996   4.093   8.023  0.00  0.00    +0.000 A 
ENDROOT
BRANCH   1   9
ATOM      7  C   UNL     1      48.095   2.369   4.754  0.00  0.00    +0.000 C 
ATOM      8  N   UNL     1      47.227   2.858   5.795  0.00  0.00    +0.000 N 
ATOM      9  C   UNL     1      46.955   2.089   6.909  0.00  0.00    +0.000 C 
ATOM     10  O   UNL     1      47.426   0.974   7.088  0.00  0.00    +0.000 OA
ATOM     11  H   UNL     1      46.967   3.834   5.785  0.00  0.00    +0.000 HD
ENDBRANCH   1   9
BRANCH   4  12
ATOM     12  N   UNL     1      43.638   4.477  10.901  0.00  0.00    +0.000 N 
ATOM     13  H   UNL     1      43.133   5.289  10.553  0.00  0.00    +0.000 HD
BRANCH  12  14
ATOM     14  C   UNL     1      44.121   4.649  12.276  0.00  0.00    +0.000 C 
ATOM     15  C   UNL     1      42.915   4.987  13.158  0.00  0.00    +0.000 C 
BRANCH  14  16
ATOM     16  C   UNL     1      45.199   5.722  12.343  0.00  0.00    +0.000 A 
ATOM     17  C   UNL     1      46.485   5.389  12.799  0.00  0.00    +0.000 A 
ATOM     18  C   UNL     1      47.496   6.351  12.861  0.00  0.00    +0.000 A 
ATOM     19  C   UNL     1      47.238   7.661  12.466  0.00  0.00    +0.000 A 
ATOM     20  C   UNL     1      45.966   8.013  12.020  0.00  0.00    +0.000 A 
ATOM     21  C   UNL     1      44.953   7.052  11.960  0.00  0.00    +0.000 A 
ENDBRANCH  14  16
ENDBRANCH  12  14
ENDBRANCH   4  12
TORSDOF 4
ENDMDL
MODEL 3
REMARK VINA RESULT:    -6.795      1.921      2.174
REMARK INTER + INTRA:          -8.372
REMARK INTER:                  -7.719
REMARK INTRA:                  -0.653
REMARK UNBOUND:                 0.012
REMARK  Name = 
REMARK  6 active torsions:
REMARK  status: ('A' for Active; 'I' for Inactive)
REMARK    1  A    between atoms: C_1  and  N_2
REMARK    2  A    between atoms: C_3  and  C_5
REMARK    3  A    between atoms: C_8  and  N_9
REMARK    4  A    between atoms: N_9  and  C_10
REMARK    5  A    between atoms: C_10  and  C_11
REMARK    6  A    between atoms: C_10  and  C_12
REMARK                            x       y       z     vdW  Elec       q    Type
REMARK                         _______ _______ _______ _____ _____    ______ ____
ROOT
ATOM      1  C   UNL     1      48.367   7.403  13.017  0.00  0.00    +0.000 A 
ATOM      2  C   UNL     1      47.584   7.557  11.871  0.00  0.00    +0.000 A 
ATOM      3  C   UNL     1      46.544   6.655  11.613  0.00  0.00    +0.000 A 
ATOM      4  C   UNL     1      46.289   5.565  12.457  0.00  0.00    +0.000 A 
ATOM      5  C   UNL     1      47.057   5.444  13.617  0.00  0.00    +0.000 A 
ATOM      6  C   UNL     1      48.099   6.344  13.889  0.00  0.00    +0.000 A 
ENDROOT
BRANCH   1   9
ATOM      7  C   UNL     1      51.898   8.496  13.850  0.00  0.00    +0.000 C 
ATOM      8  N   UNL     1      50.727   7.708  13.558  0.00  0.00    +0.000 N 
ATOM      9  C   UNL     1      49.508   8.312  13.326  0.00  0.00    +0.000 C 
ATOM     10  O   UNL     1      49.344   9.525  13.341  0.00  0.00    +0.000 OA
ATOM     11  H   UNL     1      50.848   6.728  13.351  0.00  0.00    +0.000 HD
ENDBRANCH   1   9
BRANCH   4  12
ATOM     12  N   UNL     1      45.235   4.718  12.116  0.00  0.00    +0.000 N 
ATOM     13  H   UNL     1      45.484   3.746  12.287  0.00  0.00    +0.000 HD
BRANCH  12  14
ATOM     14  C   UNL     1      44.486   4.906  10.868  0.00  0.00    +0.000 C 
ATOM     15  C   UNL     1      43.019   4.563  11.146  0.00  0.00    +0.000 C 
BRANCH  14  16
ATOM     16  C   UNL     1      45.071   4.055   9.750  0.00  0.00    +0.000 A 
ATOM     17  C   UNL     1      44.936   2.658   9.794  0.00  0.00    +0.000 A 
ATOM     18  C   UNL     1      45.454   1.854   8.776  0.00  0.00    +0.000 A 
ATOM     19  C   UNL     1      46.113   2.434   7.695  0.00  0.00    +0.000 A 
ATOM     20  C   UNL     1      46.265   3.818   7.638  0.00  0.00    +0.000 A 
ATOM     21  C   UNL     1      45.750   4.622   8.657  0.00  0.00    +0.000 A 
ENDBRANCH  14  16
ENDBRANCH  12  14
ENDBRANCH   4  12
TORSDOF 4
ENDMDL
MODEL 4
REMARK VINA RESULT:    -6.079      2.944      6.747
REMARK INTER + INTRA:          -7.488
REMARK INTER:                  -6.810
REMARK INTRA:                  -0.678
REMARK UNBOUND:                 0.012
REMARK  Name = 
REMARK  6 active torsions:
REMARK  status: ('A' for Active; 'I' for Inactive)
REMARK    1  A    between atoms: C_1  and  N_2
REMARK    2  A    between atoms: C_3  and  C_5
REMARK    3  A    between atoms: C_8  and  N_9
REMARK    4  A    between atoms: N_9  and  C_10
REMARK    5  A    between atoms: C_10  and  C_11
REMARK    6  A    between atoms: C_10  and  C_12
REMARK                            x       y       z     vdW  Elec       q    Type
REMARK                         _______ _______ _______ _____ _____    ______ ____
ROOT
ATOM      1  C   UNL     1      45.081   4.206  11.667  0.00  0.00    +0.000 A 
ATOM      2  C   UNL     1      45.649   3.885  12.902  0.00  0.00    +0.000 A 
ATOM      3  C   UNL     1      46.305   4.877  13.644  0.00  0.00    +0.000 A 
ATOM      4  C   UNL     1      46.447   6.184  13.160  0.00  0.00    +0.000 A 
ATOM      5  C   UNL     1      45.843   6.498  11.940  0.00  0.00    +0.000 A 
ATOM      6  C   UNL     1      45.180   5.515  11.190  0.00  0.00    +0.000 A 
ENDROOT
BRANCH   1   9
ATOM      7  C   UNL     1      44.607   1.601   8.956  0.00  0.00    +0.000 C 
ATOM      8  N   UNL     1      45.163   2.610   9.822  0.00  0.00    +0.000 N 
ATOM      9  C   UNL     1      44.401   3.185  10.819  0.00  0.00    +0.000 C 
ATOM     10  O   UNL     1      43.236   2.879  11.036  0.00  0.00    +0.000 OA
ATOM     11  H   UNL     1      46.161   2.759   9.806  0.00  0.00    +0.000 HD
ENDBRANCH   1   9
BRANCH   4  12
ATOM     12  N   UNL     1      47.120   7.101  13.967  0.00  0.00    +0.000 N 
ATOM     13  H   UNL     1      46.652   8.005  13.954  0.00  0.00    +0.000 HD
BRANCH  12  14
ATOM     14  C   UNL     1      48.582   7.212  13.930  0.00  0.00    +0.000 C 
ATOM     15  C   UNL     1      49.064   7.549  15.344  0.00  0.00    +0.000 C 
BRANCH  14  16
ATOM     16  C   UNL     1      49.021   8.255  12.912  0.00  0.00    +0.000 A 
ATOM     17  C   UNL     1      48.186   9.350  12.632  0.00  0.00    +0.000 A 
ATOM     18  C   UNL     1      48.570  10.328  11.711  0.00  0.00    +0.000 A 
ATOM     19  C   UNL     1      49.794  10.229  11.055  0.00  0.00    +0.000 A 
ATOM     20  C   UNL     1      50.631   9.145  11.313  0.00  0.00    +0.000 A 
ATOM     21  C   UNL     1      50.248   8.165  12.231  0.00  0.00    +0.000 A 
ENDBRANCH  14  16
ENDBRANCH  12  14
ENDBRANCH   4  12
TORSDOF 4
ENDMDL
MODEL 5
REMARK VINA RESULT:    -5.725      2.542      7.373
REMARK INTER + INTRA:          -7.052
REMARK INTER:                  -6.685
REMARK INTRA:                  -0.366
REMARK UNBOUND:                 0.012
REMARK  Name = 
REMARK  6 active torsions:
REMARK  status: ('A' for Active; 'I' for Inactive)
REMARK    1  A    between atoms: C_1  and  N_2
REMARK    2  A    between atoms: C_3  and  C_5
REMARK    3  A    between atoms: C_8  and  N_9
REMARK    4  A    between atoms: N_9  and  C_10
REMARK    5  A    between atoms: C_10  and  C_11
REMARK    6  A    between atoms: C_10  and  C_12
REMARK                            x       y       z     vdW  Elec       q    Type
REMARK                         _______ _______ _______ _____ _____    ______ ____
ROOT
ATOM      1  C   UNL     1      44.911   4.301  11.362  0.00  0.00    +0.000 A 
ATOM      2  C   UNL     1      45.259   4.256  12.714  0.00  0.00    +0.000 A 
ATOM      3  C   UNL     1      45.723   5.415  13.351  0.00  0.00    +0.000 A 
ATOM      4  C   UNL     1      45.891   6.619  12.655  0.00  0.00    +0.000 A 
ATOM      5  C   UNL     1      45.506   6.657  11.312  0.00  0.00    +0.000 A 
ATOM      6  C   UNL     1      45.036   5.505  10.665  0.00  0.00    +0.000 A 
ENDROOT
BRANCH   1   9
ATOM      7  C   UNL     1      44.875   1.511   8.798  0.00  0.00    +0.000 C 
ATOM      8  N   UNL     1      45.229   2.677   9.568  0.00  0.00    +0.000 N 
ATOM      9  C   UNL     1      44.443   3.092  10.624  0.00  0.00    +0.000 C 
ATOM     10  O   UNL     1      43.426   2.509  10.976  0.00  0.00    +0.000 OA
ATOM     11  H   UNL     1      46.146   3.078   9.438  0.00  0.00    +0.000 HD
ENDBRANCH   1   9
BRANCH   4  12
ATOM     12  N   UNL     1      46.364   7.718  13.372  0.00  0.00    +0.000 N 
ATOM     13  H   UNL     1      45.793   8.540  13.190  0.00  0.00    +0.000 HD
BRANCH  12  14
ATOM     14  C   UNL     1      47.798   8.020  13.436  0.00  0.00    +0.000 C 
ATOM     15  C   UNL     1      48.521   7.073  12.472  0.00  0.00    +0.000 C 
BRANCH  14  16
ATOM     16  C   UNL     1      48.317   7.892  14.861  0.00  0.00    +0.000 A 
ATOM     17  C   UNL     1      48.316   9.015  15.706  0.00  0.00    +0.000 A 
ATOM     18  C   UNL     1      48.777   8.923  17.021  0.00  0.00    +0.000 A 
ATOM     19  C   UNL     1      49.244   7.708  17.515  0.00  0.00    +0.000 A 
ATOM     20  C   UNL     1      49.262   6.586  16.689  0.00  0.00    +0.000 A 
ATOM     21  C   UNL     1      48.805   6.677  15.373  0.00  0.00    +0.000 A 
ENDBRANCH  14  16
ENDBRANCH  12  14
ENDBRANCH   4  12
TORSDOF 4
ENDMDL
MODEL 6
REMARK VINA RESULT:    -5.508      3.230      6.761
REMARK INTER + INTRA:          -6.784
REMARK INTER:                  -6.400
REMARK INTRA:                  -0.383
REMARK UNBOUND:                 0.012
REMARK  Name = 
REMARK  6 active torsions:
REMARK  status: ('A' for Active; 'I' for Inactive)
REMARK    1  A    between atoms: C_1  and  N_2
REMARK    2  A    between atoms: C_3  and  C_5
REMARK    3  A    between atoms: C_8  and  N_9
REMARK    4  A    between atoms: N_9  and  C_10
REMARK    5  A    between atoms: C_10  and  C_11
REMARK    6  A    between atoms: C_10  and  C_12
REMARK                            x       y       z     vdW  Elec       q    Type
REMARK                         _______ _______ _______ _____ _____    ______ ____
ROOT
ATOM      1  C   UNL     1      45.018   4.753   9.808  0.00  0.00    +0.000 A 
ATOM      2  C   UNL     1      46.102   5.561  10.159  0.00  0.00    +0.000 A 
ATOM      3  C   UNL     1      45.957   6.519  11.171  0.00  0.00    +0.000 A 
ATOM      4  C   UNL     1      44.732   6.722  11.820  0.00  0.00    +0.000 A 
ATOM      5  C   UNL     1      43.667   5.884  11.484  0.00  0.00    +0.000 A 
ATOM      6  C   UNL     1      43.801   4.918  10.475  0.00  0.00    +0.000 A 
ENDROOT
BRANCH   1   9
ATOM      7  C   UNL     1      46.274   3.012   6.687  0.00  0.00    +0.000 C 
ATOM      8  N   UNL     1      46.094   3.939   7.775  0.00  0.00    +0.000 N 
ATOM      9  C   UNL     1      45.104   3.741   8.716  0.00  0.00    +0.000 C 
ATOM     10  O   UNL     1      44.340   2.785   8.698  0.00  0.00    +0.000 OA
ATOM     11  H   UNL     1      46.809   4.632   7.938  0.00  0.00    +0.000 HD
ENDBRANCH   1   9
BRANCH   4  12
ATOM     12  N   UNL     1      44.683   7.703  12.811  0.00  0.00    +0.000 N 
ATOM     13  H   UNL     1      43.864   7.576  13.403  0.00  0.00    +0.000 HD
BRANCH  12  14
ATOM     14  C   UNL     1      44.951   9.110  12.498  0.00  0.00    +0.000 C 
ATOM     15  C   UNL     1      44.366   9.402  11.112  0.00  0.00    +0.000 C 
BRANCH  14  16
ATOM     16  C   UNL     1      46.442   9.407  12.564  0.00  0.00    +0.000 A 
ATOM     17  C   UNL     1      47.227   8.813  13.566  0.00  0.00    +0.000 A 
ATOM     18  C   UNL     1      48.599   9.059  13.644  0.00  0.00    +0.000 A 
ATOM     19  C   UNL     1      49.211   9.902  12.720  0.00  0.00    +0.000 A 
ATOM     20  C   UNL     1      48.448  10.509  11.725  0.00  0.00    +0.000 A 
ATOM     21  C   UNL     1      47.075  10.265  11.648  0.00  0.00    +0.000 A 
ENDBRANCH  14  16
ENDBRANCH  12  14
ENDBRANCH   4  12
TORSDOF 4
ENDMDL
MODEL 7
REMARK VINA RESULT:    -5.488      2.966      4.988
REMARK INTER + INTRA:          -6.759
REMARK INTER:                  -6.134
REMARK INTRA:                  -0.625
REMARK UNBOUND:                 0.012
REMARK  Name = 
REMARK  6 active torsions:
REMARK  status: ('A' for Active; 'I' for Inactive)
REMARK    1  A    between atoms: C_1  and  N_2
REMARK    2  A    between atoms: C_3  and  C_5
REMARK    3  A    between atoms: C_8  and  N_9
REMARK    4  A    between atoms: N_9  and  C_10
REMARK    5  A    between atoms: C_10  and  C_11
REMARK    6  A    between atoms: C_10  and  C_12
REMARK                            x       y       z     vdW  Elec       q    Type
REMARK                         _______ _______ _______ _____ _____    ______ ____
ROOT
ATOM      1  C   UNL     1      49.534   5.021  17.079  0.00  0.00    +0.000 A 
ATOM      2  C   UNL     1      49.761   6.236  16.429  0.00  0.00    +0.000 A 
ATOM      3  C   UNL     1      48.867   6.674  15.443  0.00  0.00    +0.000 A 
ATOM      4  C   UNL     1      47.764   5.902  15.055  0.00  0.00    +0.000 A 
ATOM      5  C   UNL     1      47.531   4.706  15.738  0.00  0.00    +0.000 A 
ATOM      6  C   UNL     1      48.416   4.259  16.731  0.00  0.00    +0.000 A 
ENDROOT
BRANCH   1   9
ATOM      7  C   UNL     1      52.559   3.283  18.559  0.00  0.00    +0.000 C 
ATOM      8  N   UNL     1      51.584   3.823  17.645  0.00  0.00    +0.000 N 
ATOM      9  C   UNL     1      50.469   4.488  18.113  0.00  0.00    +0.000 C 
ATOM     10  O   UNL     1      50.243   4.669  19.302  0.00  0.00    +0.000 OA
ATOM     11  H   UNL     1      51.817   3.865  16.664  0.00  0.00    +0.000 HD
ENDBRANCH   1   9
BRANCH   4  12
ATOM     12  N   UNL     1      46.934   6.419  14.061  0.00  0.00    +0.000 N 
ATOM     13  H   UNL     1      45.991   6.560  14.416  0.00  0.00    +0.000 HD
BRANCH  12  14
ATOM     14  C   UNL     1      46.957   5.876  12.698  0.00  0.00    +0.000 C 
ATOM     15  C   UNL     1      47.421   6.992  11.756  0.00  0.00    +0.000 C 
BRANCH  14  16
ATOM     16  C   UNL     1      45.591   5.330  12.307  0.00  0.00    +0.000 A 
ATOM     17  C   UNL     1      45.232   5.254  10.951  0.00  0.00    +0.000 A 
ATOM     18  C   UNL     1      43.990   4.746  10.565  0.00  0.00    +0.000 A 
ATOM     19  C   UNL     1      43.085   4.305  11.526  0.00  0.00    +0.000 A 
ATOM     20  C   UNL     1      43.419   4.381  12.877  0.00  0.00    +0.000 A 
ATOM     21  C   UNL     1      44.660   4.891  13.265  0.00  0.00    +0.000 A 
ENDBRANCH  14  16
ENDBRANCH  12  14
ENDBRANCH   4  12
TORSDOF 4
ENDMDL
MODEL 8
REMARK VINA RESULT:    -5.382      2.746      6.203
REMARK INTER + INTRA:          -6.628
REMARK INTER:                  -6.126
REMARK INTRA:                  -0.503
REMARK UNBOUND:                 0.012
REMARK  Name = 
REMARK  6 active torsions:
REMARK  status: ('A' for Active; 'I' for Inactive)
REMARK    1  A    between atoms: C_1  and  N_2
REMARK    2  A    between atoms: C_3  and  C_5
REMARK    3  A    between atoms: C_8  and  N_9
REMARK    4  A    between atoms: N_9  and  C_10
REMARK    5  A    between atoms: C_10  and  C_11
REMARK    6  A    between atoms: C_10  and  C_12
REMARK                            x       y       z     vdW  Elec       q    Type
REMARK                         _______ _______ _______ _____ _____    ______ ____
ROOT
ATOM      1  C   UNL     1      44.699   4.379  11.177  0.00  0.00    +0.000 A 
ATOM      2  C   UNL     1      44.226   5.594  10.675  0.00  0.00    +0.000 A 
ATOM      3  C   UNL     1      44.378   6.764  11.431  0.00  0.00    +0.000 A 
ATOM      4  C   UNL     1      44.958   6.746  12.706  0.00  0.00    +0.000 A 
ATOM      5  C   UNL     1      45.457   5.530  13.179  0.00  0.00    +0.000 A 
ATOM      6  C   UNL     1      45.316   4.352  12.430  0.00  0.00    +0.000 A 
ENDROOT
BRANCH   1   9
ATOM      7  C   UNL     1      45.403   1.626   8.670  0.00  0.00    +0.000 C 
ATOM      8  N   UNL     1      45.461   2.843   9.440  0.00  0.00    +0.000 N 
ATOM      9  C   UNL     1      44.536   3.097  10.433  0.00  0.00    +0.000 C 
ATOM     10  O   UNL     1      43.634   2.323  10.726  0.00  0.00    +0.000 OA
ATOM     11  H   UNL     1      46.286   3.419   9.365  0.00  0.00    +0.000 HD
ENDBRANCH   1   9
BRANCH   4  12
ATOM     12  N   UNL     1      45.061   7.960  13.385  0.00  0.00    +0.000 N 
ATOM     13  H   UNL     1      44.139   8.352  13.566  0.00  0.00    +0.000 HD
BRANCH  12  14
ATOM     14  C   UNL     1      46.044   8.971  12.981  0.00  0.00    +0.000 C 
ATOM     15  C   UNL     1      45.560   9.599  11.669  0.00  0.00    +0.000 C 
BRANCH  14  16
ATOM     16  C   UNL     1      47.430   8.358  12.846  0.00  0.00    +0.000 A 
ATOM     17  C   UNL     1      48.014   8.230  11.574  0.00  0.00    +0.000 A 
ATOM     18  C   UNL     1      49.289   7.682  11.422  0.00  0.00    +0.000 A 
ATOM     19  C   UNL     1      50.003   7.253  12.538  0.00  0.00    +0.000 A 
ATOM     20  C   UNL     1      49.437   7.362  13.806  0.00  0.00    +0.000 A 
ATOM     21  C   UNL     1      48.160   7.908  13.960  0.00  0.00    +0.000 A 
ENDBRANCH  14  16
ENDBRANCH  12  14
ENDBRANCH   4  12
TORSDOF 4
ENDMDL
MODEL 9
REMARK VINA RESULT:    -4.918     11.047     12.482
REMARK INTER + INTRA:          -6.056
REMARK INTER:                  -5.454
REMARK INTRA:                  -0.602
REMARK UNBOUND:                 0.012
REMARK  Name = 
REMARK  6 active torsions:
REMARK  status: ('A' for Active; 'I' for Inactive)
REMARK    1  A    between atoms: C_1  and  N_2
REMARK    2  A    between atoms: C_3  and  C_5
REMARK    3  A    between atoms: C_8  and  N_9
REMARK    4  A    between atoms: N_9  and  C_10
REMARK    5  A    between atoms: C_10  and  C_11
REMARK    6  A    between atoms: C_10  and  C_12
REMARK                            x       y       z     vdW  Elec       q    Type
REMARK                         _______ _______ _______ _____ _____    ______ ____
ROOT
ATOM      1  C   UNL     1      46.729  -6.475  17.547  0.00  0.00    +0.000 A 
ATOM      2  C   UNL     1      45.739  -7.279  16.977  0.00  0.00    +0.000 A 
ATOM      3  C   UNL     1      44.388  -6.955  17.163  0.00  0.00    +0.000 A 
ATOM      4  C   UNL     1      43.995  -5.862  17.946  0.00  0.00    +0.000 A 
ATOM      5  C   UNL     1      44.996  -5.048  18.480  0.00  0.00    +0.000 A 
ATOM      6  C   UNL     1      46.352  -5.358  18.297  0.00  0.00    +0.000 A 
ENDROOT
BRANCH   1   9
ATOM      7  C   UNL     1      50.297  -7.239  18.567  0.00  0.00    +0.000 C 
ATOM      8  N   UNL     1      48.891  -6.921  18.586  0.00  0.00    +0.000 N 
ATOM      9  C   UNL     1      48.180  -6.789  17.410  0.00  0.00    +0.000 C 
ATOM     10  O   UNL     1      48.678  -6.939  16.302  0.00  0.00    +0.000 OA
ATOM     11  H   UNL     1      48.399  -6.973  19.466  0.00  0.00    +0.000 HD
ENDBRANCH   1   9
BRANCH   4  12
ATOM     12  N   UNL     1      42.627  -5.622  18.078  0.00  0.00    +0.000 N 
ATOM     13  H   UNL     1      42.099  -6.161  17.395  0.00  0.00    +0.000 HD
BRANCH  12  14
ATOM     14  C   UNL     1      42.112  -4.260  18.256  0.00  0.00    +0.000 C 
ATOM     15  C   UNL     1      41.024  -4.307  19.334  0.00  0.00    +0.000 C 
BRANCH  14  16
ATOM     16  C   UNL     1      41.589  -3.701  16.940  0.00  0.00    +0.000 A 
ATOM     17  C   UNL     1      41.729  -4.450  15.760  0.00  0.00    +0.000 A 
ATOM     18  C   UNL     1      41.249  -3.966  14.542  0.00  0.00    +0.000 A 
ATOM     19  C   UNL     1      40.620  -2.725  14.481  0.00  0.00    +0.000 A 
ATOM     20  C   UNL     1      40.481  -1.963  15.640  0.00  0.00    +0.000 A 
ATOM     21  C   UNL     1      40.963  -2.445  16.859  0.00  0.00    +0.000 A 
ENDBRANCH  14  16
ENDBRANCH  12  14
ENDBRANCH   4  12
TORSDOF 4
ENDMDL
