MODEL 1
REMARK VINA RESULT:    -7.740      0.000      0.000
REMARK INTER + INTRA:          -9.942
REMARK INTER:                  -9.776
REMARK INTRA:                  -0.166
REMARK UNBOUND:                -0.166
REMARK  Name = 
REMARK  5 active torsions:
REMARK  status: ('A' for Active; 'I' for Inactive)
REMARK    1  A    between atoms: N_1  and  C_2
REMARK    2  A    between atoms: C_2  and  C_3
REMARK    3  A    between atoms: C_6  and  C_7
REMARK    4  A    between atoms: C_7  and  N_8
REMARK    5  A    between atoms: C_13  and  C_14
REMARK                            x       y       z     vdW  Elec       q    Type
REMARK                         _______ _______ _______ _____ _____    ______ ____
ROOT
ATOM      1  N   UNL     1      44.085   4.370  10.364  0.00  0.00    +0.000 N 
ATOM      2  C   UNL     1      43.570   3.243  10.959  0.00  0.00    +0.000 A 
ATOM      3  C   UNL     1      44.132   2.144  10.342  0.00  0.00    +0.000 A 
ATOM      4  C   UNL     1      45.016   2.618   9.337  0.00  0.00    +0.000 A 
ATOM      5  C   UNL     1      45.836   2.015   8.364  0.00  0.00    +0.000 A 
ATOM      6  C   UNL     1      46.563   2.852   7.511  0.00  0.00    +0.000 A 
ATOM      7  C   UNL     1      46.469   4.230   7.701  0.00  0.00    +0.000 A 
ATOM      8  N   UNL     1      45.711   4.859   8.637  0.00  0.00    +0.000 NA
ATOM      9  C   UNL     1      44.999   4.010   9.401  0.00  0.00    +0.000 A 
ENDROOT
BRANCH   6  10
ATOM     10  C   UNL     1      47.414   2.359   6.398  0.00  0.00    +0.000 C 
ATOM     11  N   UNL     1      47.331   2.978   5.182  0.00  0.00    +0.000 N 
ATOM     12  O   UNL     1      48.189   1.424   6.555  0.00  0.00    +0.000 OA
ATOM     13  H   UNL     1      46.741   3.765   4.963  0.00  0.00    +0.000 HD
ATOM     14  H   UNL     1      47.949   2.638   4.456  0.00  0.00    +0.000 HD
ENDBRANCH   6  10
BRANCH   1  15
ATOM     15  C   UNL     1      43.737   5.735  10.726  0.00  0.00    +0.000 C 
BRANCH  15  19
ATOM     16  C   UNL     1      47.037   7.189  13.245  0.00  0.00    +0.000 C 
ATOM     17  C   UNL     1      45.901   8.164  12.914  0.00  0.00    +0.000 C 
ATOM     18  C   UNL     1      45.025   7.681  11.763  0.00  0.00    +0.000 C 
ATOM     19  C   UNL     1      44.451   6.272  11.987  0.00  0.00    +0.000 C 
ATOM     20  C   UNL     1      45.551   5.279  12.409  0.00  0.00    +0.000 C 
ATOM     21  C   UNL     1      46.439   5.803  13.538  0.00  0.00    +0.000 C 
BRANCH  16  22
ATOM     22  C   UNL     1      48.124   7.120  12.153  0.00  0.00    +0.000 C 
BRANCH  22  23
ATOM     23  N   UNL     1      49.397   6.650  12.690  0.00  0.00    +0.000 NA
ATOM     24  H   UNL     1      50.006   7.445  12.879  0.00  0.00    +0.000 HD
ATOM     25  H   UNL     1      49.876   6.072  12.000  0.00  0.00    +0.000 HD
ENDBRANCH  22  23
ENDBRANCH  16  22
ENDBRANCH  15  19
ENDBRANCH   1  15
TORSDOF 5
ENDMDL
MODEL 2
REMARK VINA RESULT:    -6.344      4.584      8.259
REMARK INTER + INTRA:          -8.179
REMARK INTER:                  -7.646
REMARK INTRA:                  -0.533
REMARK UNBOUND:                -0.166
REMARK  Name = 
REMARK  5 active torsions:
REMARK  status: ('A' for Active; 'I' for Inactive)
REMARK    1  A    between atoms: N_1  and  C_2
REMARK    2  A    between atoms: C_2  and  C_3
REMARK    3  A    between atoms: C_6  and  C_7
REMARK    4  A    between atoms: C_7  and  N_8
REMARK    5  A    between atoms: C_13  and  C_14
REMARK                            x       y       z     vdW  Elec       q    Type
REMARK                         _______ _______ _______ _____ _____    ______ ____
ROOT
ATOM      1  N   UNL     1      47.958   6.252  14.200  0.00  0.00    +0.000 N 
ATOM      2  C   UNL     1      48.354   7.565  14.288  0.00  0.00    +0.000 A 
ATOM      3  C   UNL     1      48.791   7.791  15.577  0.00  0.00    +0.000 A 
ATOM      4  C   UNL     1      48.654   6.575  16.298  0.00  0.00    +0.000 A 
ATOM      5  C   UNL     1      48.882   6.173  17.627  0.00  0.00    +0.000 A 
ATOM      6  C   UNL     1      48.591   4.848  17.971  0.00  0.00    +0.000 A 
ATOM      7  C   UNL     1      48.134   3.993  16.968  0.00  0.00    +0.000 A 
ATOM      8  N   UNL     1      47.918   4.327  15.669  0.00  0.00    +0.000 NA
ATOM      9  C   UNL     1      48.171   5.622  15.403  0.00  0.00    +0.000 A 
ENDROOT
BRANCH   6  10
ATOM     10  C   UNL     1      48.718   4.304  19.346  0.00  0.00    +0.000 C 
ATOM     11  N   UNL     1      48.347   3.008  19.578  0.00  0.00    +0.000 N 
ATOM     12  O   UNL     1      49.157   4.986  20.264  0.00  0.00    +0.000 OA
ATOM     13  H   UNL     1      47.996   2.366  18.886  0.00  0.00    +0.000 HD
ATOM     14  H   UNL     1      48.478   2.660  20.520  0.00  0.00    +0.000 HD
ENDBRANCH   6  10
BRANCH   1  15
ATOM     15  C   UNL     1      47.426   5.622  13.002  0.00  0.00    +0.000 C 
BRANCH  15  19
ATOM     16  C   UNL     1      43.350   4.688  11.635  0.00  0.00    +0.000 C 
ATOM     17  C   UNL     1      43.616   4.707  13.145  0.00  0.00    +0.000 C 
ATOM     18  C   UNL     1      45.103   4.676  13.483  0.00  0.00    +0.000 C 
ATOM     19  C   UNL     1      45.903   5.798  12.801  0.00  0.00    +0.000 C 
ATOM     20  C   UNL     1      45.596   5.869  11.292  0.00  0.00    +0.000 C 
ATOM     21  C   UNL     1      44.099   5.860  10.980  0.00  0.00    +0.000 C 
BRANCH  16  22
ATOM     22  C   UNL     1      43.702   3.343  10.966  0.00  0.00    +0.000 C 
BRANCH  22  23
ATOM     23  N   UNL     1      43.050   2.222  11.636  0.00  0.00    +0.000 NA
ATOM     24  H   UNL     1      42.183   1.989  11.153  0.00  0.00    +0.000 HD
ATOM     25  H   UNL     1      42.793   2.485  12.587  0.00  0.00    +0.000 HD
ENDBRANCH  22  23
ENDBRANCH  16  22
ENDBRANCH  15  19
ENDBRANCH   1  15
TORSDOF 5
ENDMDL
MODEL 3
REMARK VINA RESULT:    -6.284      4.255      6.073
REMARK INTER + INTRA:          -8.102
REMARK INTER:                  -7.816
REMARK INTRA:                  -0.287
REMARK UNBOUND:                -0.166
REMARK  Name = 
REMARK  5 active torsions:
REMARK  status: ('A' for Active; 'I' for Inactive)
REMARK    1  A    between atoms: N_1  and  C_2
REMARK    2  A    between atoms: C_2  and  C_3
REMARK    3  A    between atoms: C_6  and  C_7
REMARK    4  A    between atoms: C_7  and  N_8
REMARK    5  A    between atoms: C_13  and  C_14
REMARK                            x       y       z     vdW  Elec       q    Type
REMARK                         _______ _______ _______ _____ _____    ______ ____
ROOT
ATOM      1  N   UNL     1      47.443   5.406  14.398  0.00  0.00    +0.000 N 
ATOM      2  C   UNL     1      47.886   6.640  13.983  0.00  0.00    +0.000 A 
ATOM      3  C   UNL     1      47.295   6.914  12.767  0.00  0.00    +0.000 A 
ATOM      4  C   UNL     1      46.466   5.811  12.430  0.00  0.00    +0.000 A 
ATOM      5  C   UNL     1      45.652   5.473  11.333  0.00  0.00    +0.000 A 
ATOM      6  C   UNL     1      44.992   4.239  11.362  0.00  0.00    +0.000 A 
ATOM      7  C   UNL     1      45.144   3.437  12.494  0.00  0.00    +0.000 A 
ATOM      8  N   UNL     1      45.899   3.728  13.585  0.00  0.00    +0.000 NA
ATOM      9  C   UNL     1      46.546   4.904  13.486  0.00  0.00    +0.000 A 
ENDROOT
BRANCH   6  10
ATOM     10  C   UNL     1      44.157   3.722  10.249  0.00  0.00    +0.000 C 
ATOM     11  N   UNL     1      43.988   4.499   9.137  0.00  0.00    +0.000 N 
ATOM     12  O   UNL     1      43.632   2.617  10.306  0.00  0.00    +0.000 OA
ATOM     13  H   UNL     1      44.394   5.409   8.990  0.00  0.00    +0.000 HD
ATOM     14  H   UNL     1      43.439   4.103   8.385  0.00  0.00    +0.000 HD
ENDBRANCH   6  10
BRANCH   1  15
ATOM     15  C   UNL     1      47.843   4.753  15.635  0.00  0.00    +0.000 C 
BRANCH  15  19
ATOM     16  C   UNL     1      49.002   6.038  19.679  0.00  0.00    +0.000 C 
ATOM     17  C   UNL     1      49.791   6.602  18.491  0.00  0.00    +0.000 C 
ATOM     18  C   UNL     1      49.552   5.824  17.201  0.00  0.00    +0.000 C 
ATOM     19  C   UNL     1      48.064   5.709  16.829  0.00  0.00    +0.000 C 
ATOM     20  C   UNL     1      47.222   5.227  18.027  0.00  0.00    +0.000 C 
ATOM     21  C   UNL     1      47.509   5.999  19.316  0.00  0.00    +0.000 C 
BRANCH  16  22
ATOM     22  C   UNL     1      49.509   4.660  20.154  0.00  0.00    +0.000 C 
BRANCH  22  23
ATOM     23  N   UNL     1      48.441   3.877  20.768  0.00  0.00    +0.000 NA
ATOM     24  H   UNL     1      48.396   2.957  20.332  0.00  0.00    +0.000 HD
ATOM     25  H   UNL     1      47.541   4.324  20.603  0.00  0.00    +0.000 HD
ENDBRANCH  22  23
ENDBRANCH  16  22
ENDBRANCH  15  19
ENDBRANCH   1  15
TORSDOF 5
ENDMDL
MODEL 4
REMARK VINA RESULT:    -6.244      3.946      6.051
REMARK INTER + INTRA:          -8.052
REMARK INTER:                  -7.570
REMARK INTRA:                  -0.482
REMARK UNBOUND:                -0.166
REMARK  Name = 
REMARK  5 active torsions:
REMARK  status: ('A' for Active; 'I' for Inactive)
REMARK    1  A    between atoms: N_1  and  C_2
REMARK    2  A    between atoms: C_2  and  C_3
REMARK    3  A    between atoms: C_6  and  C_7
REMARK    4  A    between atoms: C_7  and  N_8
REMARK    5  A    between atoms: C_13  and  C_14
REMARK                            x       y       z     vdW  Elec       q    Type
REMARK                         _______ _______ _______ _____ _____    ______ ____
ROOT
ATOM      1  N   UNL     1      47.687   6.819  13.778  0.00  0.00    +0.000 N 
ATOM      2  C   UNL     1      48.497   7.496  12.899  0.00  0.00    +0.000 A 
ATOM      3  C   UNL     1      47.999   7.302  11.627  0.00  0.00    +0.000 A 
ATOM      4  C   UNL     1      46.847   6.478  11.736  0.00  0.00    +0.000 A 
ATOM      5  C   UNL     1      45.941   5.905  10.825  0.00  0.00    +0.000 A 
ATOM      6  C   UNL     1      44.915   5.103  11.337  0.00  0.00    +0.000 A 
ATOM      7  C   UNL     1      44.824   4.954  12.721  0.00  0.00    +0.000 A 
ATOM      8  N   UNL     1      45.659   5.502  13.641  0.00  0.00    +0.000 NA
ATOM      9  C   UNL     1      46.652   6.226  13.093  0.00  0.00    +0.000 A 
ENDROOT
BRANCH   6  10
ATOM     10  C   UNL     1      43.930   4.382  10.492  0.00  0.00    +0.000 C 
ATOM     11  N   UNL     1      44.019   4.496   9.133  0.00  0.00    +0.000 N 
ATOM     12  O   UNL     1      43.054   3.685  10.989  0.00  0.00    +0.000 OA
ATOM     13  H   UNL     1      44.714   5.028   8.633  0.00  0.00    +0.000 HD
ATOM     14  H   UNL     1      43.352   3.966   8.587  0.00  0.00    +0.000 HD
ENDBRANCH   6  10
BRANCH   1  15
ATOM     15  C   UNL     1      47.881   6.769  15.219  0.00  0.00    +0.000 C 
BRANCH  15  19
ATOM     16  C   UNL     1      49.460   3.833  18.088  0.00  0.00    +0.000 C 
ATOM     17  C   UNL     1      48.437   3.349  17.053  0.00  0.00    +0.000 C 
ATOM     18  C   UNL     1      47.701   4.496  16.370  0.00  0.00    +0.000 C 
ATOM     19  C   UNL     1      48.645   5.525  15.726  0.00  0.00    +0.000 C 
ATOM     20  C   UNL     1      49.744   5.971  16.710  0.00  0.00    +0.000 C 
ATOM     21  C   UNL     1      50.440   4.803  17.409  0.00  0.00    +0.000 C 
BRANCH  16  22
ATOM     22  C   UNL     1      48.815   4.460  19.342  0.00  0.00    +0.000 C 
BRANCH  22  23
ATOM     23  N   UNL     1      48.346   3.438  20.273  0.00  0.00    +0.000 NA
ATOM     24  H   UNL     1      48.266   3.835  21.208  0.00  0.00    +0.000 HD
ATOM     25  H   UNL     1      49.025   2.681  20.333  0.00  0.00    +0.000 HD
ENDBRANCH  22  23
ENDBRANCH  16  22
ENDBRANCH  15  19
ENDBRANCH   1  15
TORSDOF 5
ENDMDL
MODEL 5
REMARK VINA RESULT:    -5.961      3.074      5.043
REMARK INTER + INTRA:          -7.695
REMARK INTER:                  -7.386
REMARK INTRA:                  -0.309
REMARK UNBOUND:                -0.166
REMARK  Name = 
REMARK  5 active torsions:
REMARK  status: ('A' for Active; 'I' for Inactive)
REMARK    1  A    between atoms: N_1  and  C_2
REMARK    2  A    between atoms: C_2  and  C_3
REMARK    3  A    between atoms: C_6  and  C_7
REMARK    4  A    between atoms: C_7  and  N_8
REMARK    5  A    between atoms: C_13  and  C_14
REMARK                            x       y       z     vdW  Elec       q    Type
REMARK                         _______ _______ _______ _____ _____    ______ ____
ROOT
ATOM      1  N   UNL     1      47.144   6.833  13.252  0.00  0.00    +0.000 N 
ATOM      2  C   UNL     1      47.650   6.223  14.375  0.00  0.00    +0.000 A 
ATOM      3  C   UNL     1      47.210   4.916  14.383  0.00  0.00    +0.000 A 
ATOM      4  C   UNL     1      46.408   4.724  13.225  0.00  0.00    +0.000 A 
ATOM      5  C   UNL     1      45.662   3.655  12.696  0.00  0.00    +0.000 A 
ATOM      6  C   UNL     1      44.961   3.872  11.505  0.00  0.00    +0.000 A 
ATOM      7  C   UNL     1      45.079   5.118  10.889  0.00  0.00    +0.000 A 
ATOM      8  N   UNL     1      45.802   6.172  11.347  0.00  0.00    +0.000 NA
ATOM      9  C   UNL     1      46.420   5.924  12.517  0.00  0.00    +0.000 A 
ENDROOT
BRANCH   6  10
ATOM     10  C   UNL     1      44.081   2.861  10.867  0.00  0.00    +0.000 C 
ATOM     11  N   UNL     1      44.521   2.218   9.744  0.00  0.00    +0.000 N 
ATOM     12  O   UNL     1      42.982   2.587  11.335  0.00  0.00    +0.000 OA
ATOM     13  H   UNL     1      45.414   2.360   9.299  0.00  0.00    +0.000 HD
ATOM     14  H   UNL     1      43.910   1.512   9.355  0.00  0.00    +0.000 HD
ENDBRANCH   6  10
BRANCH   1  15
ATOM     15  C   UNL     1      47.374   8.221  12.884  0.00  0.00    +0.000 C 
BRANCH  15  19
ATOM     16  C   UNL     1      51.403   9.047  11.324  0.00  0.00    +0.000 C 
ATOM     17  C   UNL     1      50.803   7.658  11.069  0.00  0.00    +0.000 C 
ATOM     18  C   UNL     1      49.592   7.368  11.950  0.00  0.00    +0.000 C 
ATOM     19  C   UNL     1      48.492   8.438  11.840  0.00  0.00    +0.000 C 
ATOM     20  C   UNL     1      49.071   9.857  12.002  0.00  0.00    +0.000 C 
ATOM     21  C   UNL     1      50.307  10.108  11.137  0.00  0.00    +0.000 C 
BRANCH  16  22
ATOM     22  C   UNL     1      52.092   9.175  12.699  0.00  0.00    +0.000 C 
BRANCH  22  23
ATOM     23  N   UNL     1      52.965   8.038  12.971  0.00  0.00    +0.000 NA
ATOM     24  H   UNL     1      52.427   7.174  12.933  0.00  0.00    +0.000 HD
ATOM     25  H   UNL     1      53.344   8.106  13.914  0.00  0.00    +0.000 HD
ENDBRANCH  22  23
ENDBRANCH  16  22
ENDBRANCH  15  19
ENDBRANCH   1  15
TORSDOF 5
ENDMDL
MODEL 6
REMARK VINA RESULT:    -5.847      3.882      6.173
REMARK INTER + INTRA:          -7.551
REMARK INTER:                  -7.111
REMARK INTRA:                  -0.440
REMARK UNBOUND:                -0.166
REMARK  Name = 
REMARK  5 active torsions:
REMARK  status: ('A' for Active; 'I' for Inactive)
REMARK    1  A    between atoms: N_1  and  C_2
REMARK    2  A    between atoms: C_2  and  C_3
REMARK    3  A    between atoms: C_6  and  C_7
REMARK    4  A    between atoms: C_7  and  N_8
REMARK    5  A    between atoms: C_13  and  C_14
REMARK                            x       y       z     vdW  Elec       q    Type
REMARK                         _______ _______ _______ _____ _____    ______ ____
ROOT
ATOM      1  N   UNL     1      47.600   7.169  13.577  0.00  0.00    +0.000 N 
ATOM      2  C   UNL     1      47.007   8.399  13.420  0.00  0.00    +0.000 A 
ATOM      3  C   UNL     1      45.717   8.193  12.975  0.00  0.00    +0.000 A 
ATOM      4  C   UNL     1      45.520   6.791  12.856  0.00  0.00    +0.000 A 
ATOM      5  C   UNL     1      44.463   5.966  12.428  0.00  0.00    +0.000 A 
ATOM      6  C   UNL     1      44.670   4.582  12.432  0.00  0.00    +0.000 A 
ATOM      7  C   UNL     1      45.892   4.100  12.901  0.00  0.00    +0.000 A 
ATOM      8  N   UNL     1      46.932   4.853  13.345  0.00  0.00    +0.000 NA
ATOM      9  C   UNL     1      46.697   6.176  13.278  0.00  0.00    +0.000 A 
ENDROOT
BRANCH   6  10
ATOM     10  C   UNL     1      43.673   3.596  11.945  0.00  0.00    +0.000 C 
ATOM     11  N   UNL     1      43.663   2.344  12.494  0.00  0.00    +0.000 N 
ATOM     12  O   UNL     1      42.860   3.888  11.076  0.00  0.00    +0.000 OA
ATOM     13  H   UNL     1      44.275   2.019  13.224  0.00  0.00    +0.000 HD
ATOM     14  H   UNL     1      42.949   1.708  12.161  0.00  0.00    +0.000 HD
ENDBRANCH   6  10
BRANCH   1  15
ATOM     15  C   UNL     1      48.968   6.956  14.025  0.00  0.00    +0.000 C 
BRANCH  15  19
ATOM     16  C   UNL     1      50.332   5.849  18.057  0.00  0.00    +0.000 C 
ATOM     17  C   UNL     1      50.916   7.117  17.423  0.00  0.00    +0.000 C 
ATOM     18  C   UNL     1      50.660   7.198  15.922  0.00  0.00    +0.000 C 
ATOM     19  C   UNL     1      49.173   7.070  15.553  0.00  0.00    +0.000 C 
ATOM     20  C   UNL     1      48.526   5.853  16.243  0.00  0.00    +0.000 C 
ATOM     21  C   UNL     1      48.830   5.775  17.739  0.00  0.00    +0.000 C 
BRANCH  16  22
ATOM     22  C   UNL     1      51.067   4.558  17.637  0.00  0.00    +0.000 C 
BRANCH  22  23
ATOM     23  N   UNL     1      50.460   3.375  18.237  0.00  0.00    +0.000 NA
ATOM     24  H   UNL     1      50.187   2.720  17.506  0.00  0.00    +0.000 HD
ATOM     25  H   UNL     1      49.608   3.632  18.733  0.00  0.00    +0.000 HD
ENDBRANCH  22  23
ENDBRANCH  16  22
ENDBRANCH  15  19
ENDBRANCH   1  15
TORSDOF 5
ENDMDL
MODEL 7
REMARK VINA RESULT:    -5.736      3.956      7.000
REMARK INTER + INTRA:          -7.411
REMARK INTER:                  -7.002
REMARK INTRA:                  -0.409
REMARK UNBOUND:                -0.166
REMARK  Name = 
REMARK  5 active torsions:
REMARK  status: ('A' for Active; 'I' for Inactive)
REMARK    1  A    between atoms: N_1  and  C_2
REMARK    2  A    between atoms: C_2  and  C_3
REMARK    3  A    between atoms: C_6  and  C_7
REMARK    4  A    between atoms: C_7  and  N_8
REMARK    5  A    between atoms: C_13  and  C_14
REMARK                            x       y       z     vdW  Elec       q    Type
REMARK                         _______ _______ _______ _____ _____    ______ ____
ROOT
ATOM      1  N   UNL     1      47.179   7.885  12.135  0.00  0.00    +0.000 N 
ATOM      2  C   UNL     1      46.355   8.981  12.241  0.00  0.00    +0.000 A 
ATOM      3  C   UNL     1      47.118  10.108  12.016  0.00  0.00    +0.000 A 
ATOM      4  C   UNL     1      48.451   9.685  11.766  0.00  0.00    +0.000 A 
ATOM      5  C   UNL     1      49.673  10.335  11.514  0.00  0.00    +0.000 A 
ATOM      6  C   UNL     1      50.813   9.543  11.340  0.00  0.00    +0.000 A 
ATOM      7  C   UNL     1      50.665   8.157  11.382  0.00  0.00    +0.000 A 
ATOM      8  N   UNL     1      49.507   7.483  11.600  0.00  0.00    +0.000 NA
ATOM      9  C   UNL     1      48.451   8.292  11.805  0.00  0.00    +0.000 A 
ENDROOT
BRANCH   6  10
ATOM     10  C   UNL     1      52.177  10.092  11.134  0.00  0.00    +0.000 C 
ATOM     11  N   UNL     1      53.242   9.235  11.158  0.00  0.00    +0.000 N 
ATOM     12  O   UNL     1      52.360  11.287  10.934  0.00  0.00    +0.000 OA
ATOM     13  H   UNL     1      53.191   8.239  11.294  0.00  0.00    +0.000 HD
ATOM     14  H   UNL     1      54.154   9.639  10.981  0.00  0.00    +0.000 HD
ENDBRANCH   6  10
BRANCH   1  15
ATOM     15  C   UNL     1      46.755   6.505  12.312  0.00  0.00    +0.000 C 
BRANCH  15  19
ATOM     16  C   UNL     1      43.092   4.178  11.595  0.00  0.00    +0.000 C 
ATOM     17  C   UNL     1      43.019   5.348  12.584  0.00  0.00    +0.000 C 
ATOM     18  C   UNL     1      44.396   5.836  13.024  0.00  0.00    +0.000 C 
ATOM     19  C   UNL     1      45.312   6.207  11.846  0.00  0.00    +0.000 C 
ATOM     20  C   UNL     1      45.343   5.090  10.785  0.00  0.00    +0.000 C 
ATOM     21  C   UNL     1      43.951   4.593  10.390  0.00  0.00    +0.000 C 
BRANCH  16  22
ATOM     22  C   UNL     1      43.599   2.867  12.232  0.00  0.00    +0.000 C 
BRANCH  22  23
ATOM     23  N   UNL     1      43.122   1.696  11.503  0.00  0.00    +0.000 NA
ATOM     24  H   UNL     1      42.684   1.043  12.151  0.00  0.00    +0.000 HD
ATOM     25  H   UNL     1      43.907   1.205  11.078  0.00  0.00    +0.000 HD
ENDBRANCH  22  23
ENDBRANCH  16  22
ENDBRANCH  15  19
ENDBRANCH   1  15
TORSDOF 5
ENDMDL
MODEL 8
REMARK VINA RESULT:    -5.366      4.578      6.855
REMARK INTER + INTRA:          -6.943
REMARK INTER:                  -6.409
REMARK INTRA:                  -0.534
REMARK UNBOUND:                -0.166
REMARK  Name = 
REMARK  5 active torsions:
REMARK  status: ('A' for Active; 'I' for Inactive)
REMARK    1  A    between atoms: N_1  and  C_2
REMARK    2  A    between atoms: C_2  and  C_3
REMARK    3  A    between atoms: C_6  and  C_7
REMARK    4  A    between atoms: C_7  and  N_8
REMARK    5  A    between atoms: C_13  and  C_14
REMARK                            x       y       z     vdW  Elec       q    Type
REMARK                         _______ _______ _______ _____ _____    ______ ____
ROOT
ATOM      1  N   UNL     1      47.297   7.352  12.652  0.00  0.00    +0.000 N 
ATOM      2  C   UNL     1      46.428   6.798  11.743  0.00  0.00    +0.000 A 
ATOM      3  C   UNL     1      46.057   5.555  12.214  0.00  0.00    +0.000 A 
ATOM      4  C   UNL     1      46.724   5.346  13.450  0.00  0.00    +0.000 A 
ATOM      5  C   UNL     1      46.793   4.291  14.380  0.00  0.00    +0.000 A 
ATOM      6  C   UNL     1      47.610   4.460  15.503  0.00  0.00    +0.000 A 
ATOM      7  C   UNL     1      48.272   5.678  15.659  0.00  0.00    +0.000 A 
ATOM      8  N   UNL     1      48.221   6.732  14.803  0.00  0.00    +0.000 NA
ATOM      9  C   UNL     1      47.458   6.500  13.719  0.00  0.00    +0.000 A 
ENDROOT
BRANCH   6  10
ATOM     10  C   UNL     1      47.831   3.411  16.529  0.00  0.00    +0.000 C 
ATOM     11  N   UNL     1      46.820   3.120  17.402  0.00  0.00    +0.000 N 
ATOM     12  O   UNL     1      48.891   2.800  16.598  0.00  0.00    +0.000 OA
ATOM     13  H   UNL     1      45.910   3.552  17.411  0.00  0.00    +0.000 HD
ATOM     14  H   UNL     1      46.994   2.377  18.068  0.00  0.00    +0.000 HD
ENDBRANCH   6  10
BRANCH   1  15
ATOM     15  C   UNL     1      47.922   8.658  12.516  0.00  0.00    +0.000 C 
BRANCH  15  19
ATOM     16  C   UNL     1      52.048   8.918  11.012  0.00  0.00    +0.000 C 
ATOM     17  C   UNL     1      51.263   7.628  10.742  0.00  0.00    +0.000 C 
ATOM     18  C   UNL     1      50.012   7.507  11.605  0.00  0.00    +0.000 C 
ATOM     19  C   UNL     1      49.074   8.720  11.487  0.00  0.00    +0.000 C 
ATOM     20  C   UNL     1      49.844  10.043  11.666  0.00  0.00    +0.000 C 
ATOM     21  C   UNL     1      51.114  10.123  10.818  0.00  0.00    +0.000 C 
BRANCH  16  22
ATOM     22  C   UNL     1      52.730   8.942  12.396  0.00  0.00    +0.000 C 
BRANCH  22  23
ATOM     23  N   UNL     1      53.489   7.721  12.644  0.00  0.00    +0.000 NA
ATOM     24  H   UNL     1      54.152   7.876  13.401  0.00  0.00    +0.000 HD
ATOM     25  H   UNL     1      54.036   7.477  11.820  0.00  0.00    +0.000 HD
ENDBRANCH  22  23
ENDBRANCH  16  22
ENDBRANCH  15  19
ENDBRANCH   1  15
TORSDOF 5
ENDMDL
MODEL 9
REMARK VINA RESULT:    -5.276      4.900      8.640
REMARK INTER + INTRA:          -6.829
REMARK INTER:                  -6.590
REMARK INTRA:                  -0.239
REMARK UNBOUND:                -0.166
REMARK  Name = 
REMARK  5 active torsions:
REMARK  status: ('A' for Active; 'I' for Inactive)
REMARK    1  A    between atoms: N_1  and  C_2
REMARK    2  A    between atoms: C_2  and  C_3
REMARK    3  A    between atoms: C_6  and  C_7
REMARK    4  A    between atoms: C_7  and  N_8
REMARK    5  A    between atoms: C_13  and  C_14
REMARK                            x       y       z     vdW  Elec       q    Type
REMARK                         _______ _______ _______ _____ _____    ______ ____
ROOT
ATOM      1  N   UNL     1      47.802   5.707  14.817  0.00  0.00    +0.000 N 
ATOM      2  C   UNL     1      48.434   6.666  14.061  0.00  0.00    +0.000 A 
ATOM      3  C   UNL     1      49.434   7.222  14.832  0.00  0.00    +0.000 A 
ATOM      4  C   UNL     1      49.409   6.582  16.100  0.00  0.00    +0.000 A 
ATOM      5  C   UNL     1      50.128   6.722  17.301  0.00  0.00    +0.000 A 
ATOM      6  C   UNL     1      49.778   5.894  18.374  0.00  0.00    +0.000 A 
ATOM      7  C   UNL     1      48.770   4.951  18.177  0.00  0.00    +0.000 A 
ATOM      8  N   UNL     1      48.063   4.763  17.032  0.00  0.00    +0.000 NA
ATOM      9  C   UNL     1      48.409   5.613  16.048  0.00  0.00    +0.000 A 
ENDROOT
BRANCH   6  10
ATOM     10  C   UNL     1      50.402   5.976  19.718  0.00  0.00    +0.000 C 
ATOM     11  N   UNL     1      51.281   6.991  19.976  0.00  0.00    +0.000 N 
ATOM     12  O   UNL     1      50.136   5.162  20.595  0.00  0.00    +0.000 OA
ATOM     13  H   UNL     1      51.545   7.716  19.329  0.00  0.00    +0.000 HD
ATOM     14  H   UNL     1      51.662   7.035  20.913  0.00  0.00    +0.000 HD
ENDBRANCH   6  10
BRANCH   1  15
ATOM     15  C   UNL     1      46.683   4.896  14.366  0.00  0.00    +0.000 C 
BRANCH  15  19
ATOM     16  C   UNL     1      43.975   5.364  10.931  0.00  0.00    +0.000 C 
ATOM     17  C   UNL     1      44.775   6.589  11.389  0.00  0.00    +0.000 C 
ATOM     18  C   UNL     1      45.382   6.414  12.777  0.00  0.00    +0.000 C 
ATOM     19  C   UNL     1      46.248   5.150  12.904  0.00  0.00    +0.000 C 
ATOM     20  C   UNL     1      45.510   3.907  12.371  0.00  0.00    +0.000 C 
ATOM     21  C   UNL     1      44.879   4.122  10.995  0.00  0.00    +0.000 C 
BRANCH  16  22
ATOM     22  C   UNL     1      42.665   5.156  11.720  0.00  0.00    +0.000 C 
BRANCH  22  23
ATOM     23  N   UNL     1      41.894   6.391  11.817  0.00  0.00    +0.000 NA
ATOM     24  H   UNL     1      41.383   6.409  12.698  0.00  0.00    +0.000 HD
ATOM     25  H   UNL     1      41.198   6.427  11.074  0.00  0.00    +0.000 HD
ENDBRANCH  22  23
ENDBRANCH  16  22
ENDBRANCH  15  19
ENDBRANCH   1  15
TORSDOF 5
ENDMDL
