MODEL 1
REMARK VINA RESULT:    -8.835      0.000      0.000
REMARK INTER + INTRA:         -11.756
REMARK INTER:                 -11.160
REMARK INTRA:                  -0.596
REMARK UNBOUND:                -0.596
REMARK  Name = 
REMARK  5 active torsions:
REMARK  status: ('A' for Active; 'I' for Inactive)
REMARK    1  A    between atoms: C_2  and  C_4
REMARK    2  A    between atoms: C_7  and  C_8
REMARK    3  A    between atoms: C_8  and  C_9
REMARK    4  A    between atoms: C_13  and  C_14
REMARK    5  A    between atoms: C_22  and  O_23
REMARK                            x       y       z     vdW  Elec       q    Type
REMARK                         _______ _______ _______ _____ _____    ______ ____
ROOT
ATOM      1  C   UNL     1      44.454   4.452  11.009  0.00  0.00    +0.000 C 
ATOM      2  C   UNL     1      43.182   3.741  11.500  0.00  0.00    +0.000 C 
ATOM      3  C   UNL     1      43.052   5.060  10.818  0.00  0.00    +0.000 C 
ENDROOT
BRANCH   1   7
ATOM      4  C   UNL     1      46.456   2.894   7.593  0.00  0.00    +0.000 A 
ATOM      5  N   UNL     1      46.368   4.242   7.689  0.00  0.00    +0.000 NA
ATOM      6  C   UNL     1      45.704   4.701   8.775  0.00  0.00    +0.000 A 
ATOM      7  C   UNL     1      45.138   3.908   9.762  0.00  0.00    +0.000 A 
ATOM      8  C   UNL     1      45.294   2.549   9.522  0.00  0.00    +0.000 A 
ATOM      9  N   UNL     1      45.940   2.013   8.467  0.00  0.00    +0.000 NA
BRANCH   4  11
ATOM     10  N   UNL     1      47.180   3.117   5.265  0.00  0.00    +0.000 N 
ATOM     11  C   UNL     1      47.201   2.336   6.402  0.00  0.00    +0.000 C 
ATOM     12  O   UNL     1      47.812   1.272   6.406  0.00  0.00    +0.000 OA
ATOM     13  H   UNL     1      47.658   2.786   4.438  0.00  0.00    +0.000 HD
ATOM     14  H   UNL     1      46.674   3.992   5.256  0.00  0.00    +0.000 HD
ENDBRANCH   4  11
ENDBRANCH   1   7
BRANCH   1  15
ATOM     15  C   UNL     1      45.344   5.083  12.086  0.00  0.00    +0.000 A 
ATOM     16  C   UNL     1      45.645   4.411  13.280  0.00  0.00    +0.000 A 
ATOM     17  C   UNL     1      46.680   4.851  14.106  0.00  0.00    +0.000 A 
ATOM     18  C   UNL     1      47.435   5.970  13.749  0.00  0.00    +0.000 A 
ATOM     19  C   UNL     1      47.136   6.704  12.591  0.00  0.00    +0.000 A 
ATOM     20  C   UNL     1      46.046   6.271  11.816  0.00  0.00    +0.000 A 
BRANCH  19  21
ATOM     21  C   UNL     1      47.996   7.803  12.105  0.00  0.00    +0.000 A 
ATOM     22  C   UNL     1      47.522   9.127  12.071  0.00  0.00    +0.000 A 
ATOM     23  C   UNL     1      48.361  10.193  11.730  0.00  0.00    +0.000 A 
ATOM     24  C   UNL     1      49.697   9.956  11.421  0.00  0.00    +0.000 A 
ATOM     25  C   UNL     1      50.189   8.655  11.434  0.00  0.00    +0.000 A 
ATOM     26  C   UNL     1      49.345   7.590  11.763  0.00  0.00    +0.000 A 
ENDBRANCH  19  21
ENDBRANCH   1  15
BRANCH   3  27
ATOM     27  O   UNL     1      42.664   6.165  11.656  0.00  0.00    +0.000 OA
ATOM     28  H   UNL     1      43.328   6.880  11.671  0.00  0.00    +0.000 HD
ENDBRANCH   3  27
TORSDOF 5
ENDMDL
MODEL 2
REMARK VINA RESULT:    -7.750      1.638      3.389
REMARK INTER + INTRA:         -10.385
REMARK INTER:                 -10.171
REMARK INTRA:                  -0.214
REMARK UNBOUND:                -0.596
REMARK  Name = 
REMARK  5 active torsions:
REMARK  status: ('A' for Active; 'I' for Inactive)
REMARK    1  A    between atoms: C_2  and  C_4
REMARK    2  A    between atoms: C_7  and  C_8
REMARK    3  A    between atoms: C_8  and  C_9
REMARK    4  A    between atoms: C_13  and  C_14
REMARK    5  A    between atoms: C_22  and  O_23
REMARK                            x       y       z     vdW  Elec       q    Type
REMARK                         _______ _______ _______ _____ _____    ______ ____
ROOT
ATOM      1  C   UNL     1      44.686   4.719  11.015  0.00  0.00    +0.000 C 
ATOM      2  C   UNL     1      43.633   3.957  11.837  0.00  0.00    +0.000 C 
ATOM      3  C   UNL     1      43.199   5.117  11.008  0.00  0.00    +0.000 C 
ENDROOT
BRANCH   1   7
ATOM      4  C   UNL     1      46.271   2.821   7.552  0.00  0.00    +0.000 A 
ATOM      5  N   UNL     1      46.306   4.174   7.578  0.00  0.00    +0.000 NA
ATOM      6  C   UNL     1      45.772   4.744   8.683  0.00  0.00    +0.000 A 
ATOM      7  C   UNL     1      45.220   4.054   9.753  0.00  0.00    +0.000 A 
ATOM      8  C   UNL     1      45.239   2.677   9.577  0.00  0.00    +0.000 A 
ATOM      9  N   UNL     1      45.752   2.034   8.509  0.00  0.00    +0.000 NA
BRANCH   4  11
ATOM     10  N   UNL     1      47.155   2.965   5.273  0.00  0.00    +0.000 N 
ATOM     11  C   UNL     1      46.869   2.141   6.340  0.00  0.00    +0.000 C 
ATOM     12  O   UNL     1      47.114   0.941   6.274  0.00  0.00    +0.000 OA
ATOM     13  H   UNL     1      47.551   2.559   4.437  0.00  0.00    +0.000 HD
ATOM     14  H   UNL     1      46.950   3.954   5.322  0.00  0.00    +0.000 HD
ENDBRANCH   4  11
ENDBRANCH   1   7
BRANCH   1  15
ATOM     15  C   UNL     1      45.645   5.621  11.799  0.00  0.00    +0.000 A 
ATOM     16  C   UNL     1      45.663   7.012  11.618  0.00  0.00    +0.000 A 
ATOM     17  C   UNL     1      46.308   7.844  12.533  0.00  0.00    +0.000 A 
ATOM     18  C   UNL     1      46.944   7.299  13.649  0.00  0.00    +0.000 A 
ATOM     19  C   UNL     1      46.998   5.910  13.844  0.00  0.00    +0.000 A 
ATOM     20  C   UNL     1      46.394   5.098  12.868  0.00  0.00    +0.000 A 
BRANCH  19  21
ATOM     21  C   UNL     1      47.534   5.302  15.080  0.00  0.00    +0.000 A 
ATOM     22  C   UNL     1      47.192   3.987  15.443  0.00  0.00    +0.000 A 
ATOM     23  C   UNL     1      47.785   3.356  16.540  0.00  0.00    +0.000 A 
ATOM     24  C   UNL     1      48.741   4.027  17.296  0.00  0.00    +0.000 A 
ATOM     25  C   UNL     1      49.090   5.333  16.967  0.00  0.00    +0.000 A 
ATOM     26  C   UNL     1      48.485   5.966  15.877  0.00  0.00    +0.000 A 
ENDBRANCH  19  21
ENDBRANCH   1  15
BRANCH   3  27
ATOM     27  O   UNL     1      42.803   6.296  11.736  0.00  0.00    +0.000 OA
ATOM     28  H   UNL     1      43.560   6.857  11.989  0.00  0.00    +0.000 HD
ENDBRANCH   3  27
TORSDOF 5
ENDMDL
MODEL 3
REMARK VINA RESULT:    -7.628      4.029      7.154
REMARK INTER + INTRA:         -10.230
REMARK INTER:                 -10.084
REMARK INTRA:                  -0.146
REMARK UNBOUND:                -0.596
REMARK  Name = 
REMARK  5 active torsions:
REMARK  status: ('A' for Active; 'I' for Inactive)
REMARK    1  A    between atoms: C_2  and  C_4
REMARK    2  A    between atoms: C_7  and  C_8
REMARK    3  A    between atoms: C_8  and  C_9
REMARK    4  A    between atoms: C_13  and  C_14
REMARK    5  A    between atoms: C_22  and  O_23
REMARK                            x       y       z     vdW  Elec       q    Type
REMARK                         _______ _______ _______ _____ _____    ______ ____
ROOT
ATOM      1  C   UNL     1      45.767   5.596  12.444  0.00  0.00    +0.000 C 
ATOM      2  C   UNL     1      46.045   6.788  11.512  0.00  0.00    +0.000 C 
ATOM      3  C   UNL     1      44.872   6.849  12.428  0.00  0.00    +0.000 C 
ENDROOT
BRANCH   1   7
ATOM      4  C   UNL     1      48.195   5.131  15.907  0.00  0.00    +0.000 A 
ATOM      5  N   UNL     1      48.518   6.140  15.064  0.00  0.00    +0.000 NA
ATOM      6  C   UNL     1      47.740   6.243  13.962  0.00  0.00    +0.000 A 
ATOM      7  C   UNL     1      46.669   5.417  13.658  0.00  0.00    +0.000 A 
ATOM      8  C   UNL     1      46.468   4.420  14.603  0.00  0.00    +0.000 A 
ATOM      9  N   UNL     1      47.196   4.251  15.725  0.00  0.00    +0.000 NA
BRANCH   4  11
ATOM     10  N   UNL     1      48.347   5.098  18.350  0.00  0.00    +0.000 N 
ATOM     11  C   UNL     1      49.031   4.986  17.159  0.00  0.00    +0.000 C 
ATOM     12  O   UNL     1      50.238   4.767  17.160  0.00  0.00    +0.000 OA
ATOM     13  H   UNL     1      48.860   5.015  19.217  0.00  0.00    +0.000 HD
ATOM     14  H   UNL     1      47.352   5.284  18.353  0.00  0.00    +0.000 HD
ENDBRANCH   4  11
ENDBRANCH   1   7
BRANCH   1  15
ATOM     15  C   UNL     1      45.205   4.331  11.786  0.00  0.00    +0.000 A 
ATOM     16  C   UNL     1      43.970   3.787  12.171  0.00  0.00    +0.000 A 
ATOM     17  C   UNL     1      43.332   2.833  11.378  0.00  0.00    +0.000 A 
ATOM     18  C   UNL     1      43.916   2.408  10.184  0.00  0.00    +0.000 A 
ATOM     19  C   UNL     1      45.174   2.885   9.785  0.00  0.00    +0.000 A 
ATOM     20  C   UNL     1      45.819   3.797  10.640  0.00  0.00    +0.000 A 
BRANCH  19  21
ATOM     21  C   UNL     1      45.760   2.572   8.465  0.00  0.00    +0.000 A 
ATOM     22  C   UNL     1      45.872   3.563   7.473  0.00  0.00    +0.000 A 
ATOM     23  C   UNL     1      46.534   3.316   6.267  0.00  0.00    +0.000 A 
ATOM     24  C   UNL     1      47.104   2.069   6.029  0.00  0.00    +0.000 A 
ATOM     25  C   UNL     1      46.998   1.066   6.987  0.00  0.00    +0.000 A 
ATOM     26  C   UNL     1      46.324   1.313   8.187  0.00  0.00    +0.000 A 
ENDBRANCH  19  21
ENDBRANCH   1  15
BRANCH   3  27
ATOM     27  O   UNL     1      43.579   6.759  11.800  0.00  0.00    +0.000 OA
ATOM     28  H   UNL     1      43.365   7.542  11.260  0.00  0.00    +0.000 HD
ENDBRANCH   3  27
TORSDOF 5
ENDMDL
MODEL 4
REMARK VINA RESULT:    -6.701      3.497      6.710
REMARK INTER + INTRA:          -9.060
REMARK INTER:                  -8.605
REMARK INTRA:                  -0.454
REMARK UNBOUND:                -0.596
REMARK  Name = 
REMARK  5 active torsions:
REMARK  status: ('A' for Active; 'I' for Inactive)
REMARK    1  A    between atoms: C_2  and  C_4
REMARK    2  A    between atoms: C_7  and  C_8
REMARK    3  A    between atoms: C_8  and  C_9
REMARK    4  A    between atoms: C_13  and  C_14
REMARK    5  A    between atoms: C_22  and  O_23
REMARK                            x       y       z     vdW  Elec       q    Type
REMARK                         _______ _______ _______ _____ _____    ______ ____
ROOT
ATOM      1  C   UNL     1      46.139   4.945  13.347  0.00  0.00    +0.000 C 
ATOM      2  C   UNL     1      46.031   4.694  14.860  0.00  0.00    +0.000 C 
ATOM      3  C   UNL     1      47.285   4.309  14.154  0.00  0.00    +0.000 C 
ENDROOT
BRANCH   1   7
ATOM      4  C   UNL     1      46.797   8.970  12.130  0.00  0.00    +0.000 A 
ATOM      5  N   UNL     1      45.546   8.651  12.541  0.00  0.00    +0.000 NA
ATOM      6  C   UNL     1      45.368   7.357  12.897  0.00  0.00    +0.000 A 
ATOM      7  C   UNL     1      46.350   6.378  12.877  0.00  0.00    +0.000 A 
ATOM      8  C   UNL     1      47.574   6.848  12.418  0.00  0.00    +0.000 A 
ATOM      9  N   UNL     1      47.832   8.117  12.047  0.00  0.00    +0.000 NA
BRANCH   4  11
ATOM     10  N   UNL     1      46.085  11.312  12.138  0.00  0.00    +0.000 N 
ATOM     11  C   UNL     1      47.044  10.408  11.734  0.00  0.00    +0.000 C 
ATOM     12  O   UNL     1      48.028  10.791  11.110  0.00  0.00    +0.000 OA
ATOM     13  H   UNL     1      46.201  12.286  11.894  0.00  0.00    +0.000 HD
ATOM     14  H   UNL     1      45.271  10.999  12.649  0.00  0.00    +0.000 HD
ENDBRANCH   4  11
ENDBRANCH   1   7
BRANCH   1  15
ATOM     15  C   UNL     1      45.327   4.015  12.439  0.00  0.00    +0.000 A 
ATOM     16  C   UNL     1      43.973   3.744  12.683  0.00  0.00    +0.000 A 
ATOM     17  C   UNL     1      43.174   3.153  11.703  0.00  0.00    +0.000 A 
ATOM     18  C   UNL     1      43.718   2.825  10.460  0.00  0.00    +0.000 A 
ATOM     19  C   UNL     1      45.079   3.029  10.189  0.00  0.00    +0.000 A 
ATOM     20  C   UNL     1      45.869   3.566  11.221  0.00  0.00    +0.000 A 
BRANCH  19  21
ATOM     21  C   UNL     1      45.660   2.830   8.845  0.00  0.00    +0.000 A 
ATOM     22  C   UNL     1      45.927   3.927   8.006  0.00  0.00    +0.000 A 
ATOM     23  C   UNL     1      46.588   3.767   6.785  0.00  0.00    +0.000 A 
ATOM     24  C   UNL     1      47.002   2.502   6.378  0.00  0.00    +0.000 A 
ATOM     25  C   UNL     1      46.739   1.397   7.181  0.00  0.00    +0.000 A 
ATOM     26  C   UNL     1      46.066   1.559   8.397  0.00  0.00    +0.000 A 
ENDBRANCH  19  21
ENDBRANCH   1  15
BRANCH   3  27
ATOM     27  O   UNL     1      47.518   2.894  14.014  0.00  0.00    +0.000 OA
ATOM     28  H   UNL     1      48.226   2.567  14.601  0.00  0.00    +0.000 HD
ENDBRANCH   3  27
TORSDOF 5
ENDMDL
MODEL 5
REMARK VINA RESULT:    -6.631      3.713      5.559
REMARK INTER + INTRA:          -8.971
REMARK INTER:                  -8.551
REMARK INTRA:                  -0.421
REMARK UNBOUND:                -0.596
REMARK  Name = 
REMARK  5 active torsions:
REMARK  status: ('A' for Active; 'I' for Inactive)
REMARK    1  A    between atoms: C_2  and  C_4
REMARK    2  A    between atoms: C_7  and  C_8
REMARK    3  A    between atoms: C_8  and  C_9
REMARK    4  A    between atoms: C_13  and  C_14
REMARK    5  A    between atoms: C_22  and  O_23
REMARK                            x       y       z     vdW  Elec       q    Type
REMARK                         _______ _______ _______ _____ _____    ______ ____
ROOT
ATOM      1  C   UNL     1      45.823   5.882  12.662  0.00  0.00    +0.000 C 
ATOM      2  C   UNL     1      44.292   5.742  12.678  0.00  0.00    +0.000 C 
ATOM      3  C   UNL     1      45.062   5.101  11.576  0.00  0.00    +0.000 C 
ENDROOT
BRANCH   1   7
ATOM      4  C   UNL     1      47.956   3.527  15.494  0.00  0.00    +0.000 A 
ATOM      5  N   UNL     1      47.900   4.861  15.724  0.00  0.00    +0.000 NA
ATOM      6  C   UNL     1      47.235   5.581  14.791  0.00  0.00    +0.000 A 
ATOM      7  C   UNL     1      46.623   5.057  13.662  0.00  0.00    +0.000 A 
ATOM      8  C   UNL     1      46.777   3.682  13.550  0.00  0.00    +0.000 A 
ATOM      9  N   UNL     1      47.422   2.895  14.435  0.00  0.00    +0.000 NA
BRANCH   4  11
ATOM     10  N   UNL     1      48.415   2.985  17.837  0.00  0.00    +0.000 N 
ATOM     11  C   UNL     1      48.678   2.682  16.518  0.00  0.00    +0.000 C 
ATOM     12  O   UNL     1      49.445   1.766  16.238  0.00  0.00    +0.000 OA
ATOM     13  H   UNL     1      48.877   2.454  18.561  0.00  0.00    +0.000 HD
ATOM     14  H   UNL     1      47.787   3.743  18.071  0.00  0.00    +0.000 HD
ENDBRANCH   4  11
ENDBRANCH   1   7
BRANCH   1  15
ATOM     15  C   UNL     1      46.381   7.255  12.270  0.00  0.00    +0.000 A 
ATOM     16  C   UNL     1      45.704   8.443  12.584  0.00  0.00    +0.000 A 
ATOM     17  C   UNL     1      46.349   9.677  12.499  0.00  0.00    +0.000 A 
ATOM     18  C   UNL     1      47.686   9.743  12.100  0.00  0.00    +0.000 A 
ATOM     19  C   UNL     1      48.387   8.587  11.726  0.00  0.00    +0.000 A 
ATOM     20  C   UNL     1      47.687   7.368  11.762  0.00  0.00    +0.000 A 
BRANCH  19  21
ATOM     21  C   UNL     1      49.836   8.596  11.438  0.00  0.00    +0.000 A 
ATOM     22  C   UNL     1      50.501   7.419  11.050  0.00  0.00    +0.000 A 
ATOM     23  C   UNL     1      51.842   7.435  10.656  0.00  0.00    +0.000 A 
ATOM     24  C   UNL     1      52.547   8.634  10.635  0.00  0.00    +0.000 A 
ATOM     25  C   UNL     1      51.919   9.813  11.025  0.00  0.00    +0.000 A 
ATOM     26  C   UNL     1      50.580   9.791  11.432  0.00  0.00    +0.000 A 
ENDBRANCH  19  21
ENDBRANCH   1  15
BRANCH   3  27
ATOM     27  O   UNL     1      44.917   5.702  10.275  0.00  0.00    +0.000 OA
ATOM     28  H   UNL     1      44.402   5.149   9.658  0.00  0.00    +0.000 HD
ENDBRANCH   3  27
TORSDOF 5
ENDMDL
MODEL 6
REMARK VINA RESULT:    -6.556      3.623      6.403
REMARK INTER + INTRA:          -8.876
REMARK INTER:                  -8.219
REMARK INTRA:                  -0.657
REMARK UNBOUND:                -0.596
REMARK  Name = 
REMARK  5 active torsions:
REMARK  status: ('A' for Active; 'I' for Inactive)
REMARK    1  A    between atoms: C_2  and  C_4
REMARK    2  A    between atoms: C_7  and  C_8
REMARK    3  A    between atoms: C_8  and  C_9
REMARK    4  A    between atoms: C_13  and  C_14
REMARK    5  A    between atoms: C_22  and  O_23
REMARK                            x       y       z     vdW  Elec       q    Type
REMARK                         _______ _______ _______ _____ _____    ______ ____
ROOT
ATOM      1  C   UNL     1      48.188   7.889  12.580  0.00  0.00    +0.000 C 
ATOM      2  C   UNL     1      48.642   9.076  11.714  0.00  0.00    +0.000 C 
ATOM      3  C   UNL     1      49.334   7.765  11.559  0.00  0.00    +0.000 C 
ENDROOT
BRANCH   1   7
ATOM      4  C   UNL     1      44.476   6.015  11.677  0.00  0.00    +0.000 A 
ATOM      5  N   UNL     1      45.531   5.200  11.914  0.00  0.00    +0.000 NA
ATOM      6  C   UNL     1      46.700   5.830  12.174  0.00  0.00    +0.000 A 
ATOM      7  C   UNL     1      46.876   7.206  12.219  0.00  0.00    +0.000 A 
ATOM      8  C   UNL     1      45.712   7.910  11.940  0.00  0.00    +0.000 A 
ATOM      9  N   UNL     1      44.512   7.358  11.674  0.00  0.00    +0.000 NA
BRANCH   4  11
ATOM     10  N   UNL     1      42.029   6.110  11.682  0.00  0.00    +0.000 N 
ATOM     11  C   UNL     1      43.146   5.354  11.395  0.00  0.00    +0.000 C 
ATOM     12  O   UNL     1      43.022   4.226  10.927  0.00  0.00    +0.000 OA
ATOM     13  H   UNL     1      41.115   5.711  11.517  0.00  0.00    +0.000 HD
ATOM     14  H   UNL     1      42.127   7.037  12.073  0.00  0.00    +0.000 HD
ENDBRANCH   4  11
ENDBRANCH   1   7
BRANCH   1  15
ATOM     15  C   UNL     1      48.579   7.934  14.061  0.00  0.00    +0.000 A 
ATOM     16  C   UNL     1      48.534   9.125  14.800  0.00  0.00    +0.000 A 
ATOM     17  C   UNL     1      48.595   9.105  16.194  0.00  0.00    +0.000 A 
ATOM     18  C   UNL     1      48.698   7.890  16.874  0.00  0.00    +0.000 A 
ATOM     19  C   UNL     1      48.799   6.677  16.176  0.00  0.00    +0.000 A 
ATOM     20  C   UNL     1      48.800   6.740  14.771  0.00  0.00    +0.000 A 
BRANCH  19  21
ATOM     21  C   UNL     1      48.765   5.365  16.855  0.00  0.00    +0.000 A 
ATOM     22  C   UNL     1      47.584   4.601  16.887  0.00  0.00    +0.000 A 
ATOM     23  C   UNL     1      47.568   3.308  17.417  0.00  0.00    +0.000 A 
ATOM     24  C   UNL     1      48.737   2.747  17.921  0.00  0.00    +0.000 A 
ATOM     25  C   UNL     1      49.917   3.484  17.913  0.00  0.00    +0.000 A 
ATOM     26  C   UNL     1      49.927   4.783  17.394  0.00  0.00    +0.000 A 
ENDBRANCH  19  21
ENDBRANCH   1  15
BRANCH   3  27
ATOM     27  O   UNL     1      50.686   7.706  12.051  0.00  0.00    +0.000 OA
ATOM     28  H   UNL     1      51.193   8.518  11.863  0.00  0.00    +0.000 HD
ENDBRANCH   3  27
TORSDOF 5
ENDMDL
MODEL 7
REMARK VINA RESULT:    -6.337      6.057      8.427
REMARK INTER + INTRA:          -8.600
REMARK INTER:                  -8.575
REMARK INTRA:                  -0.025
REMARK UNBOUND:                -0.596
REMARK  Name = 
REMARK  5 active torsions:
REMARK  status: ('A' for Active; 'I' for Inactive)
REMARK    1  A    between atoms: C_2  and  C_4
REMARK    2  A    between atoms: C_7  and  C_8
REMARK    3  A    between atoms: C_8  and  C_9
REMARK    4  A    between atoms: C_13  and  C_14
REMARK    5  A    between atoms: C_22  and  O_23
REMARK                            x       y       z     vdW  Elec       q    Type
REMARK                         _______ _______ _______ _____ _____    ______ ____
ROOT
ATOM      1  C   UNL     1      49.135   4.819  17.769  0.00  0.00    +0.000 C 
ATOM      2  C   UNL     1      48.934   5.490  19.138  0.00  0.00    +0.000 C 
ATOM      3  C   UNL     1      47.910   4.522  18.654  0.00  0.00    +0.000 C 
ENDROOT
BRANCH   1   7
ATOM      4  C   UNL     1      52.003   1.684  17.554  0.00  0.00    +0.000 A 
ATOM      5  N   UNL     1      52.422   2.862  18.076  0.00  0.00    +0.000 NA
ATOM      6  C   UNL     1      51.490   3.843  18.107  0.00  0.00    +0.000 A 
ATOM      7  C   UNL     1      50.182   3.720  17.661  0.00  0.00    +0.000 A 
ATOM      8  C   UNL     1      49.904   2.464  17.138  0.00  0.00    +0.000 A 
ATOM      9  N   UNL     1      50.774   1.436  17.073  0.00  0.00    +0.000 NA
BRANCH   4  11
ATOM     10  N   UNL     1      52.752  -0.505  18.355  0.00  0.00    +0.000 N 
ATOM     11  C   UNL     1      53.008   0.555  17.512  0.00  0.00    +0.000 C 
ATOM     12  O   UNL     1      53.993   0.535  16.780  0.00  0.00    +0.000 OA
ATOM     13  H   UNL     1      53.397  -1.283  18.370  0.00  0.00    +0.000 HD
ATOM     14  H   UNL     1      51.944  -0.490  18.964  0.00  0.00    +0.000 HD
ENDBRANCH   4  11
ENDBRANCH   1   7
BRANCH   1  15
ATOM     15  C   UNL     1      48.904   5.700  16.536  0.00  0.00    +0.000 A 
ATOM     16  C   UNL     1      49.830   6.678  16.144  0.00  0.00    +0.000 A 
ATOM     17  C   UNL     1      49.766   7.256  14.876  0.00  0.00    +0.000 A 
ATOM     18  C   UNL     1      48.775   6.862  13.975  0.00  0.00    +0.000 A 
ATOM     19  C   UNL     1      47.796   5.927  14.341  0.00  0.00    +0.000 A 
ATOM     20  C   UNL     1      47.851   5.413  15.649  0.00  0.00    +0.000 A 
BRANCH  19  21
ATOM     21  C   UNL     1      46.820   5.379  13.375  0.00  0.00    +0.000 A 
ATOM     22  C   UNL     1      46.456   6.108  12.228  0.00  0.00    +0.000 A 
ATOM     23  C   UNL     1      45.631   5.553  11.245  0.00  0.00    +0.000 A 
ATOM     24  C   UNL     1      45.156   4.253  11.386  0.00  0.00    +0.000 A 
ATOM     25  C   UNL     1      45.491   3.514  12.516  0.00  0.00    +0.000 A 
ATOM     26  C   UNL     1      46.305   4.076  13.504  0.00  0.00    +0.000 A 
ENDBRANCH  19  21
ENDBRANCH   1  15
BRANCH   3  27
ATOM     27  O   UNL     1      46.640   5.087  18.278  0.00  0.00    +0.000 OA
ATOM     28  H   UNL     1      46.632   6.062  18.318  0.00  0.00    +0.000 HD
ENDBRANCH   3  27
TORSDOF 5
ENDMDL
MODEL 8
REMARK VINA RESULT:    -6.271      5.208      7.962
REMARK INTER + INTRA:          -8.517
REMARK INTER:                  -7.861
REMARK INTRA:                  -0.656
REMARK UNBOUND:                -0.596
REMARK  Name = 
REMARK  5 active torsions:
REMARK  status: ('A' for Active; 'I' for Inactive)
REMARK    1  A    between atoms: C_2  and  C_4
REMARK    2  A    between atoms: C_7  and  C_8
REMARK    3  A    between atoms: C_8  and  C_9
REMARK    4  A    between atoms: C_13  and  C_14
REMARK    5  A    between atoms: C_22  and  O_23
REMARK                            x       y       z     vdW  Elec       q    Type
REMARK                         _______ _______ _______ _____ _____    ______ ____
ROOT
ATOM      1  C   UNL     1      49.177   7.763  15.943  0.00  0.00    +0.000 C 
ATOM      2  C   UNL     1      49.835   8.991  16.594  0.00  0.00    +0.000 C 
ATOM      3  C   UNL     1      48.437   8.638  16.971  0.00  0.00    +0.000 C 
ENDROOT
BRANCH   1   7
ATOM      4  C   UNL     1      50.472   3.894  17.153  0.00  0.00    +0.000 A 
ATOM      5  N   UNL     1      49.147   4.051  16.920  0.00  0.00    +0.000 NA
ATOM      6  C   UNL     1      48.768   5.300  16.561  0.00  0.00    +0.000 A 
ATOM      7  C   UNL     1      49.620   6.384  16.414  0.00  0.00    +0.000 A 
ATOM      8  C   UNL     1      50.944   6.077  16.702  0.00  0.00    +0.000 A 
ATOM      9  N   UNL     1      51.400   4.861  17.064  0.00  0.00    +0.000 NA
BRANCH   4  11
ATOM     10  N   UNL     1      51.945   2.467  18.490  0.00  0.00    +0.000 N 
ATOM     11  C   UNL     1      50.942   2.512  17.545  0.00  0.00    +0.000 C 
ATOM     12  O   UNL     1      50.478   1.471  17.090  0.00  0.00    +0.000 OA
ATOM     13  H   UNL     1      52.299   1.567  18.782  0.00  0.00    +0.000 HD
ATOM     14  H   UNL     1      52.333   3.323  18.864  0.00  0.00    +0.000 HD
ENDBRANCH   4  11
ENDBRANCH   1   7
BRANCH   1  15
ATOM     15  C   UNL     1      48.758   7.909  14.476  0.00  0.00    +0.000 A 
ATOM     16  C   UNL     1      49.543   8.613  13.552  0.00  0.00    +0.000 A 
ATOM     17  C   UNL     1      49.318   8.488  12.180  0.00  0.00    +0.000 A 
ATOM     18  C   UNL     1      48.305   7.651  11.709  0.00  0.00    +0.000 A 
ATOM     19  C   UNL     1      47.461   6.967  12.598  0.00  0.00    +0.000 A 
ATOM     20  C   UNL     1      47.674   7.167  13.973  0.00  0.00    +0.000 A 
BRANCH  19  21
ATOM     21  C   UNL     1      46.475   5.965  12.143  0.00  0.00    +0.000 A 
ATOM     22  C   UNL     1      45.940   6.019  10.843  0.00  0.00    +0.000 A 
ATOM     23  C   UNL     1      45.102   5.010  10.358  0.00  0.00    +0.000 A 
ATOM     24  C   UNL     1      44.785   3.921  11.163  0.00  0.00    +0.000 A 
ATOM     25  C   UNL     1      45.290   3.847  12.458  0.00  0.00    +0.000 A 
ATOM     26  C   UNL     1      46.118   4.864  12.945  0.00  0.00    +0.000 A 
ENDBRANCH  19  21
ENDBRANCH   1  15
BRANCH   3  27
ATOM     27  O   UNL     1      47.414   9.534  16.497  0.00  0.00    +0.000 OA
ATOM     28  H   UNL     1      47.519  10.443  16.837  0.00  0.00    +0.000 HD
ENDBRANCH   3  27
TORSDOF 5
ENDMDL
