MODEL 1
REMARK VINA RESULT:    -7.157      0.000      0.000
REMARK INTER + INTRA:         -11.367
REMARK INTER:                 -10.086
REMARK INTRA:                  -1.282
REMARK UNBOUND:                -1.282
REMARK  Name = 
REMARK  7 active torsions:
REMARK  status: ('A' for Active; 'I' for Inactive)
REMARK    1  A    between atoms: C_2  and  C_3
REMARK    2  A    between atoms: C_3  and  N_4
REMARK    3  A    between atoms: C_3  and  C_17
REMARK    4  A    between atoms: C_5  and  C_7
REMARK    5  A    between atoms: C_20  and  C_21
REMARK    6  A    between atoms: C_21  and  N_22
REMARK    7  A    between atoms: C_23  and  C_25
REMARK                            x       y       z     vdW  Elec       q    Type
REMARK                         _______ _______ _______ _____ _____    ______ ____
ROOT
ATOM      1  C   UNL     1      47.966   4.640  15.879  0.00  0.00    +0.000 C 
ENDROOT
BRANCH   1   2
ATOM      2  C   UNL     1      47.294   5.073  14.577  0.00  0.00    +0.000 A 
ATOM      3  C   UNL     1      47.715   6.253  13.938  0.00  0.00    +0.000 A 
ATOM      4  C   UNL     1      47.101   6.693  12.759  0.00  0.00    +0.000 A 
ATOM      5  C   UNL     1      46.036   5.977  12.200  0.00  0.00    +0.000 A 
ATOM      6  C   UNL     1      45.607   4.805  12.836  0.00  0.00    +0.000 A 
ATOM      7  C   UNL     1      46.216   4.367  14.017  0.00  0.00    +0.000 A 
BRANCH   5   8
ATOM      8  C   UNL     1      45.343   6.464  10.956  0.00  0.00    +0.000 C 
BRANCH   8   9
ATOM      9  N   UNL     1      44.768   5.390  10.179  0.00  0.00    +0.000 N 
ATOM     10  C   UNL     1      45.408   4.973   9.025  0.00  0.00    +0.000 C 
ATOM     11  O   UNL     1      46.482   5.445   8.662  0.00  0.00    +0.000 OA
ATOM     12  H   UNL     1      43.805   5.125  10.336  0.00  0.00    +0.000 HD
BRANCH  10  13
ATOM     13  C   UNL     1      44.646   3.878   8.244  0.00  0.00    +0.000 C 
ATOM     14  C   UNL     1      45.490   3.210   7.170  0.00  0.00    +0.000 C 
ATOM     15  C   UNL     1      46.306   2.196   7.950  0.00  0.00    +0.000 C 
ATOM     16  C   UNL     1      45.417   1.814   9.123  0.00  0.00    +0.000 C 
ATOM     17  N   UNL     1      44.290   2.756   9.139  0.00  0.00    +0.000 NA
ATOM     18  H   UNL     1      44.130   3.092  10.088  0.00  0.00    +0.000 HD
ENDBRANCH  10  13
ENDBRANCH   8   9
ENDBRANCH   5   8
ENDBRANCH   1   2
BRANCH   1  19
ATOM     19  N   UNL     1      48.329   5.830  16.630  0.00  0.00    +0.000 N 
ATOM     20  C   UNL     1      49.584   6.003  17.144  0.00  0.00    +0.000 C 
ATOM     21  O   UNL     1      50.490   5.204  16.924  0.00  0.00    +0.000 OA
ATOM     22  H   UNL     1      47.558   6.368  17.014  0.00  0.00    +0.000 HD
BRANCH  20  23
ATOM     23  C   UNL     1      49.811   7.241  17.900  0.00  0.00    +0.000 A 
ATOM     24  C   UNL     1      50.882   8.064  17.578  0.00  0.00    +0.000 A 
ATOM     25  S   UNL     1      50.952   9.490  18.511  0.00  0.00    +0.000 S 
ATOM     26  C   UNL     1      49.588   9.030  19.418  0.00  0.00    +0.000 A 
ATOM     27  N   UNL     1      49.114   9.815  20.422  0.00  0.00    +0.000 NA
ATOM     28  C   UNL     1      48.102   9.321  21.054  0.00  0.00    +0.000 A 
ATOM     29  N   UNL     1      47.515   8.115  20.768  0.00  0.00    +0.000 N 
ATOM     30  C   UNL     1      47.923   7.317  19.726  0.00  0.00    +0.000 A 
ATOM     31  O   UNL     1      47.322   6.289  19.429  0.00  0.00    +0.000 OA
ATOM     32  C   UNL     1      49.077   7.813  19.002  0.00  0.00    +0.000 A 
ATOM     33  H   UNL     1      46.714   7.795  21.293  0.00  0.00    +0.000 HD
ENDBRANCH  20  23
ENDBRANCH   1  19
BRANCH   1  35
ATOM     34  N   UNL     1      46.483   3.026  17.363  0.00  0.00    +0.000 NA
ATOM     35  C   UNL     1      47.136   3.720  16.697  0.00  0.00    +0.000 C 
ENDBRANCH   1  35
TORSDOF 7
ENDMDL
MODEL 2
REMARK VINA RESULT:    -6.863      2.734      4.152
REMARK INTER + INTRA:         -10.953
REMARK INTER:                 -10.203
REMARK INTRA:                  -0.749
REMARK UNBOUND:                -1.282
REMARK  Name = 
REMARK  7 active torsions:
REMARK  status: ('A' for Active; 'I' for Inactive)
REMARK    1  A    between atoms: C_2  and  C_3
REMARK    2  A    between atoms: C_3  and  N_4
REMARK    3  A    between atoms: C_3  and  C_17
REMARK    4  A    between atoms: C_5  and  C_7
REMARK    5  A    between atoms: C_20  and  C_21
REMARK    6  A    between atoms: C_21  and  N_22
REMARK    7  A    between atoms: C_23  and  C_25
REMARK                            x       y       z     vdW  Elec       q    Type
REMARK                         _______ _______ _______ _____ _____    ______ ____
ROOT
ATOM      1  C   UNL     1      46.714   7.950  12.887  0.00  0.00    +0.000 C 
ENDROOT
BRANCH   1   2
ATOM      2  C   UNL     1      46.059   6.767  12.177  0.00  0.00    +0.000 A 
ATOM      3  C   UNL     1      46.323   6.543  10.814  0.00  0.00    +0.000 A 
ATOM      4  C   UNL     1      45.717   5.485  10.126  0.00  0.00    +0.000 A 
ATOM      5  C   UNL     1      44.814   4.637  10.777  0.00  0.00    +0.000 A 
ATOM      6  C   UNL     1      44.541   4.858  12.133  0.00  0.00    +0.000 A 
ATOM      7  C   UNL     1      45.142   5.918  12.821  0.00  0.00    +0.000 A 
BRANCH   5   8
ATOM      8  C   UNL     1      44.126   3.521  10.037  0.00  0.00    +0.000 C 
BRANCH   8   9
ATOM      9  N   UNL     1      44.553   3.415   8.661  0.00  0.00    +0.000 N 
ATOM     10  C   UNL     1      45.298   2.317   8.267  0.00  0.00    +0.000 C 
ATOM     11  O   UNL     1      45.563   1.395   9.033  0.00  0.00    +0.000 OA
ATOM     12  H   UNL     1      44.525   4.234   8.068  0.00  0.00    +0.000 HD
BRANCH  10  13
ATOM     13  C   UNL     1      45.762   2.367   6.794  0.00  0.00    +0.000 C 
ATOM     14  C   UNL     1      46.496   3.649   6.439  0.00  0.00    +0.000 C 
ATOM     15  C   UNL     1      47.901   3.401   6.954  0.00  0.00    +0.000 C 
ATOM     16  C   UNL     1      48.086   1.895   6.841  0.00  0.00    +0.000 C 
ATOM     17  N   UNL     1      46.772   1.317   6.532  0.00  0.00    +0.000 NA
ATOM     18  H   UNL     1      46.603   0.504   7.122  0.00  0.00    +0.000 HD
ENDBRANCH  10  13
ENDBRANCH   8   9
ENDBRANCH   5   8
ENDBRANCH   1   2
BRANCH   1  19
ATOM     19  N   UNL     1      47.203   7.500  14.180  0.00  0.00    +0.000 N 
ATOM     20  C   UNL     1      48.245   6.622  14.290  0.00  0.00    +0.000 C 
ATOM     21  O   UNL     1      48.874   6.236  13.309  0.00  0.00    +0.000 OA
ATOM     22  H   UNL     1      46.567   7.614  14.963  0.00  0.00    +0.000 HD
BRANCH  20  23
ATOM     23  C   UNL     1      48.626   6.234  15.654  0.00  0.00    +0.000 A 
ATOM     24  C   UNL     1      49.476   7.044  16.394  0.00  0.00    +0.000 A 
ATOM     25  S   UNL     1      49.754   6.475  17.978  0.00  0.00    +0.000 S 
ATOM     26  C   UNL     1      48.795   5.096  17.711  0.00  0.00    +0.000 A 
ATOM     27  N   UNL     1      48.625   4.158  18.682  0.00  0.00    +0.000 NA
ATOM     28  C   UNL     1      47.911   3.144  18.326  0.00  0.00    +0.000 A 
ATOM     29  N   UNL     1      47.343   2.984  17.087  0.00  0.00    +0.000 N 
ATOM     30  C   UNL     1      47.438   3.931  16.096  0.00  0.00    +0.000 A 
ATOM     31  O   UNL     1      46.842   3.811  15.031  0.00  0.00    +0.000 OA
ATOM     32  C   UNL     1      48.257   5.079  16.437  0.00  0.00    +0.000 A 
ATOM     33  H   UNL     1      46.780   2.171  16.880  0.00  0.00    +0.000 HD
ENDBRANCH  20  23
ENDBRANCH   1  19
BRANCH   1  35
ATOM     34  N   UNL     1      48.618   9.110  11.459  0.00  0.00    +0.000 NA
ATOM     35  C   UNL     1      47.796   8.590  12.097  0.00  0.00    +0.000 C 
ENDBRANCH   1  35
TORSDOF 7
ENDMDL
MODEL 3
REMARK VINA RESULT:    -6.681      3.001      4.292
REMARK INTER + INTRA:         -10.697
REMARK INTER:                  -9.089
REMARK INTRA:                  -1.608
REMARK UNBOUND:                -1.282
REMARK  Name = 
REMARK  7 active torsions:
REMARK  status: ('A' for Active; 'I' for Inactive)
REMARK    1  A    between atoms: C_2  and  C_3
REMARK    2  A    between atoms: C_3  and  N_4
REMARK    3  A    between atoms: C_3  and  C_17
REMARK    4  A    between atoms: C_5  and  C_7
REMARK    5  A    between atoms: C_20  and  C_21
REMARK    6  A    between atoms: C_21  and  N_22
REMARK    7  A    between atoms: C_23  and  C_25
REMARK                            x       y       z     vdW  Elec       q    Type
REMARK                         _______ _______ _______ _____ _____    ______ ____
ROOT
ATOM      1  C   UNL     1      49.245   8.286  13.617  0.00  0.00    +0.000 C 
ENDROOT
BRANCH   1   2
ATOM      2  C   UNL     1      47.879   8.091  12.962  0.00  0.00    +0.000 A 
ATOM      3  C   UNL     1      46.830   8.974  13.271  0.00  0.00    +0.000 A 
ATOM      4  C   UNL     1      45.558   8.807  12.710  0.00  0.00    +0.000 A 
ATOM      5  C   UNL     1      45.296   7.741  11.842  0.00  0.00    +0.000 A 
ATOM      6  C   UNL     1      46.336   6.854  11.536  0.00  0.00    +0.000 A 
ATOM      7  C   UNL     1      47.606   7.016  12.099  0.00  0.00    +0.000 A 
BRANCH   5   8
ATOM      8  C   UNL     1      43.922   7.529  11.265  0.00  0.00    +0.000 C 
BRANCH   8   9
ATOM      9  N   UNL     1      43.639   6.140  10.988  0.00  0.00    +0.000 N 
ATOM     10  C   UNL     1      43.257   5.307  12.025  0.00  0.00    +0.000 C 
ATOM     11  O   UNL     1      43.091   5.718  13.170  0.00  0.00    +0.000 OA
ATOM     12  H   UNL     1      43.954   5.734  10.116  0.00  0.00    +0.000 HD
BRANCH  10  13
ATOM     13  C   UNL     1      43.067   3.830  11.610  0.00  0.00    +0.000 C 
ATOM     14  C   UNL     1      43.801   3.468  10.329  0.00  0.00    +0.000 C 
ATOM     15  C   UNL     1      45.225   3.234  10.798  0.00  0.00    +0.000 C 
ATOM     16  C   UNL     1      45.077   2.731  12.226  0.00  0.00    +0.000 C 
ATOM     17  N   UNL     1      43.673   2.928  12.613  0.00  0.00    +0.000 NA
ATOM     18  H   UNL     1      43.624   3.342  13.543  0.00  0.00    +0.000 HD
ENDBRANCH  10  13
ENDBRANCH   8   9
ENDBRANCH   5   8
ENDBRANCH   1   2
BRANCH   1  19
ATOM     19  N   UNL     1      49.388   7.313  14.687  0.00  0.00    +0.000 N 
ATOM     20  C   UNL     1      49.053   7.610  15.979  0.00  0.00    +0.000 C 
ATOM     21  O   UNL     1      48.537   8.680  16.286  0.00  0.00    +0.000 OA
ATOM     22  H   UNL     1      50.014   6.535  14.503  0.00  0.00    +0.000 HD
BRANCH  20  23
ATOM     23  C   UNL     1      49.265   6.543  16.966  0.00  0.00    +0.000 A 
ATOM     24  C   UNL     1      50.159   6.732  18.011  0.00  0.00    +0.000 A 
ATOM     25  S   UNL     1      50.227   5.420  19.098  0.00  0.00    +0.000 S 
ATOM     26  C   UNL     1      49.106   4.529  18.179  0.00  0.00    +0.000 A 
ATOM     27  N   UNL     1      48.729   3.276  18.552  0.00  0.00    +0.000 NA
ATOM     28  C   UNL     1      47.909   2.701  17.737  0.00  0.00    +0.000 A 
ATOM     29  N   UNL     1      47.425   3.267  16.585  0.00  0.00    +0.000 N 
ATOM     30  C   UNL     1      47.732   4.550  16.201  0.00  0.00    +0.000 A 
ATOM     31  O   UNL     1      47.212   5.070  15.218  0.00  0.00    +0.000 OA
ATOM     32  C   UNL     1      48.675   5.230  17.067  0.00  0.00    +0.000 A 
ATOM     33  H   UNL     1      46.771   2.767  16.001  0.00  0.00    +0.000 HD
ENDBRANCH  20  23
ENDBRANCH   1  19
BRANCH   1  35
ATOM     34  N   UNL     1      51.244   8.147  11.886  0.00  0.00    +0.000 NA
ATOM     35  C   UNL     1      50.379   8.203  12.661  0.00  0.00    +0.000 C 
ENDBRANCH   1  35
TORSDOF 7
ENDMDL
MODEL 4
REMARK VINA RESULT:    -6.533      3.684      5.040
REMARK INTER + INTRA:         -10.489
REMARK INTER:                  -9.449
REMARK INTRA:                  -1.040
REMARK UNBOUND:                -1.282
REMARK  Name = 
REMARK  7 active torsions:
REMARK  status: ('A' for Active; 'I' for Inactive)
REMARK    1  A    between atoms: C_2  and  C_3
REMARK    2  A    between atoms: C_3  and  N_4
REMARK    3  A    between atoms: C_3  and  C_17
REMARK    4  A    between atoms: C_5  and  C_7
REMARK    5  A    between atoms: C_20  and  C_21
REMARK    6  A    between atoms: C_21  and  N_22
REMARK    7  A    between atoms: C_23  and  C_25
REMARK                            x       y       z     vdW  Elec       q    Type
REMARK                         _______ _______ _______ _____ _____    ______ ____
ROOT
ATOM      1  C   UNL     1      48.327   4.265  17.942  0.00  0.00    +0.000 C 
ENDROOT
BRANCH   1   2
ATOM      2  C   UNL     1      48.122   4.869  16.555  0.00  0.00    +0.000 A 
ATOM      3  C   UNL     1      48.788   6.059  16.211  0.00  0.00    +0.000 A 
ATOM      4  C   UNL     1      48.600   6.655  14.957  0.00  0.00    +0.000 A 
ATOM      5  C   UNL     1      47.724   6.088  14.024  0.00  0.00    +0.000 A 
ATOM      6  C   UNL     1      47.052   4.908  14.363  0.00  0.00    +0.000 A 
ATOM      7  C   UNL     1      47.235   4.314  15.616  0.00  0.00    +0.000 A 
BRANCH   5   8
ATOM      8  C   UNL     1      47.484   6.743  12.689  0.00  0.00    +0.000 C 
BRANCH   8   9
ATOM      9  N   UNL     1      46.639   5.954  11.823  0.00  0.00    +0.000 N 
ATOM     10  C   UNL     1      45.385   6.432  11.484  0.00  0.00    +0.000 C 
ATOM     11  O   UNL     1      44.982   7.533  11.846  0.00  0.00    +0.000 OA
ATOM     12  H   UNL     1      46.855   4.977  11.676  0.00  0.00    +0.000 HD
BRANCH  10  13
ATOM     13  C   UNL     1      44.551   5.455  10.623  0.00  0.00    +0.000 C 
ATOM     14  C   UNL     1      44.535   4.037  11.169  0.00  0.00    +0.000 C 
ATOM     15  C   UNL     1      43.483   4.096  12.260  0.00  0.00    +0.000 C 
ATOM     16  C   UNL     1      42.507   5.163  11.789  0.00  0.00    +0.000 C 
ATOM     17  N   UNL     1      43.123   5.839  10.640  0.00  0.00    +0.000 NA
ATOM     18  H   UNL     1      43.025   6.849  10.737  0.00  0.00    +0.000 HD
ENDBRANCH  10  13
ENDBRANCH   8   9
ENDBRANCH   5   8
ENDBRANCH   1   2
BRANCH   1  19
ATOM     19  N   UNL     1      49.704   3.811  18.050  0.00  0.00    +0.000 N 
ATOM     20  C   UNL     1      50.155   2.715  17.369  0.00  0.00    +0.000 C 
ATOM     21  O   UNL     1      49.447   2.112  16.568  0.00  0.00    +0.000 OA
ATOM     22  H   UNL     1      50.220   4.138  18.861  0.00  0.00    +0.000 HD
BRANCH  20  23
ATOM     23  C   UNL     1      51.562   2.352  17.583  0.00  0.00    +0.000 A 
ATOM     24  C   UNL     1      51.924   1.017  17.701  0.00  0.00    +0.000 A 
ATOM     25  S   UNL     1      53.604   0.778  17.875  0.00  0.00    +0.000 S 
ATOM     26  C   UNL     1      53.901   2.453  17.857  0.00  0.00    +0.000 A 
ATOM     27  N   UNL     1      55.162   2.945  17.987  0.00  0.00    +0.000 NA
ATOM     28  C   UNL     1      55.234   4.234  18.002  0.00  0.00    +0.000 A 
ATOM     29  N   UNL     1      54.158   5.078  17.890  0.00  0.00    +0.000 N 
ATOM     30  C   UNL     1      52.874   4.626  17.697  0.00  0.00    +0.000 A 
ATOM     31  O   UNL     1      51.942   5.400  17.502  0.00  0.00    +0.000 OA
ATOM     32  C   UNL     1      52.736   3.183  17.703  0.00  0.00    +0.000 A 
ATOM     33  H   UNL     1      54.287   6.080  17.892  0.00  0.00    +0.000 HD
ENDBRANCH  20  23
ENDBRANCH   1  19
BRANCH   1  35
ATOM     34  N   UNL     1      47.711   5.890  19.940  0.00  0.00    +0.000 NA
ATOM     35  C   UNL     1      47.979   5.191  19.049  0.00  0.00    +0.000 C 
ENDBRANCH   1  35
TORSDOF 7
ENDMDL
MODEL 5
REMARK VINA RESULT:    -6.340      3.342      4.730
REMARK INTER + INTRA:         -10.217
REMARK INTER:                  -8.815
REMARK INTRA:                  -1.402
REMARK UNBOUND:                -1.282
REMARK  Name = 
REMARK  7 active torsions:
REMARK  status: ('A' for Active; 'I' for Inactive)
REMARK    1  A    between atoms: C_2  and  C_3
REMARK    2  A    between atoms: C_3  and  N_4
REMARK    3  A    between atoms: C_3  and  C_17
REMARK    4  A    between atoms: C_5  and  C_7
REMARK    5  A    between atoms: C_20  and  C_21
REMARK    6  A    between atoms: C_21  and  N_22
REMARK    7  A    between atoms: C_23  and  C_25
REMARK                            x       y       z     vdW  Elec       q    Type
REMARK                         _______ _______ _______ _____ _____    ______ ____
ROOT
ATOM      1  C   UNL     1      49.576   8.292  14.650  0.00  0.00    +0.000 C 
ENDROOT
BRANCH   1   2
ATOM      2  C   UNL     1      48.296   8.123  13.835  0.00  0.00    +0.000 A 
ATOM      3  C   UNL     1      48.181   7.043  12.941  0.00  0.00    +0.000 A 
ATOM      4  C   UNL     1      47.033   6.875  12.158  0.00  0.00    +0.000 A 
ATOM      5  C   UNL     1      45.980   7.794  12.230  0.00  0.00    +0.000 A 
ATOM      6  C   UNL     1      46.092   8.876  13.112  0.00  0.00    +0.000 A 
ATOM      7  C   UNL     1      47.240   9.048  13.892  0.00  0.00    +0.000 A 
BRANCH   5   8
ATOM      8  C   UNL     1      44.759   7.645  11.362  0.00  0.00    +0.000 C 
BRANCH   8   9
ATOM      9  N   UNL     1      44.619   6.315  10.815  0.00  0.00    +0.000 N 
ATOM     10  C   UNL     1      43.469   5.593  11.079  0.00  0.00    +0.000 C 
ATOM     11  O   UNL     1      42.531   6.063  11.716  0.00  0.00    +0.000 OA
ATOM     12  H   UNL     1      45.438   5.835  10.464  0.00  0.00    +0.000 HD
BRANCH  10  13
ATOM     13  C   UNL     1      43.482   4.157  10.507  0.00  0.00    +0.000 C 
ATOM     14  C   UNL     1      44.874   3.552  10.437  0.00  0.00    +0.000 C 
ATOM     15  C   UNL     1      45.118   3.073  11.855  0.00  0.00    +0.000 C 
ATOM     16  C   UNL     1      43.734   2.726  12.382  0.00  0.00    +0.000 C 
ATOM     17  N   UNL     1      42.758   3.234  11.408  0.00  0.00    +0.000 NA
ATOM     18  H   UNL     1      42.006   3.722  11.892  0.00  0.00    +0.000 HD
ENDBRANCH  10  13
ENDBRANCH   8   9
ENDBRANCH   5   8
ENDBRANCH   1   2
BRANCH   1  19
ATOM     19  N   UNL     1      49.911   7.014  15.256  0.00  0.00    +0.000 N 
ATOM     20  C   UNL     1      49.449   6.661  16.494  0.00  0.00    +0.000 C 
ATOM     21  O   UNL     1      48.662   7.367  17.118  0.00  0.00    +0.000 OA
ATOM     22  H   UNL     1      50.724   6.539  14.876  0.00  0.00    +0.000 HD
BRANCH  20  23
ATOM     23  C   UNL     1      49.879   5.351  16.998  0.00  0.00    +0.000 A 
ATOM     24  C   UNL     1      48.936   4.371  17.275  0.00  0.00    +0.000 A 
ATOM     25  S   UNL     1      49.617   2.892  17.784  0.00  0.00    +0.000 S 
ATOM     26  C   UNL     1      51.193   3.527  17.706  0.00  0.00    +0.000 A 
ATOM     27  N   UNL     1      52.274   2.772  18.042  0.00  0.00    +0.000 NA
ATOM     28  C   UNL     1      53.402   3.396  17.981  0.00  0.00    +0.000 A 
ATOM     29  N   UNL     1      53.550   4.707  17.607  0.00  0.00    +0.000 N 
ATOM     30  C   UNL     1      52.495   5.491  17.204  0.00  0.00    +0.000 A 
ATOM     31  O   UNL     1      52.664   6.630  16.781  0.00  0.00    +0.000 OA
ATOM     32  C   UNL     1      51.200   4.844  17.283  0.00  0.00    +0.000 A 
ATOM     33  H   UNL     1      54.466   5.130  17.564  0.00  0.00    +0.000 HD
ENDBRANCH  20  23
ENDBRANCH   1  19
BRANCH   1  35
ATOM     34  N   UNL     1      51.585   9.271  13.230  0.00  0.00    +0.000 NA
ATOM     35  C   UNL     1      50.715   8.828  13.863  0.00  0.00    +0.000 C 
ENDBRANCH   1  35
TORSDOF 7
ENDMDL
MODEL 6
REMARK VINA RESULT:    -6.298      3.529      5.121
REMARK INTER + INTRA:         -10.157
REMARK INTER:                  -9.201
REMARK INTRA:                  -0.956
REMARK UNBOUND:                -1.282
REMARK  Name = 
REMARK  7 active torsions:
REMARK  status: ('A' for Active; 'I' for Inactive)
REMARK    1  A    between atoms: C_2  and  C_3
REMARK    2  A    between atoms: C_3  and  N_4
REMARK    3  A    between atoms: C_3  and  C_17
REMARK    4  A    between atoms: C_5  and  C_7
REMARK    5  A    between atoms: C_20  and  C_21
REMARK    6  A    between atoms: C_21  and  N_22
REMARK    7  A    between atoms: C_23  and  C_25
REMARK                            x       y       z     vdW  Elec       q    Type
REMARK                         _______ _______ _______ _____ _____    ______ ____
ROOT
ATOM      1  C   UNL     1      48.603   5.798  17.191  0.00  0.00    +0.000 C 
ENDROOT
BRANCH   1   2
ATOM      2  C   UNL     1      48.241   5.953  15.715  0.00  0.00    +0.000 A 
ATOM      3  C   UNL     1      48.703   7.073  15.002  0.00  0.00    +0.000 A 
ATOM      4  C   UNL     1      48.366   7.260  13.655  0.00  0.00    +0.000 A 
ATOM      5  C   UNL     1      47.541   6.344  12.994  0.00  0.00    +0.000 A 
ATOM      6  C   UNL     1      47.071   5.230  13.701  0.00  0.00    +0.000 A 
ATOM      7  C   UNL     1      47.402   5.044  15.047  0.00  0.00    +0.000 A 
BRANCH   5   8
ATOM      8  C   UNL     1      47.139   6.557  11.558  0.00  0.00    +0.000 C 
BRANCH   8   9
ATOM      9  N   UNL     1      45.876   5.937  11.232  0.00  0.00    +0.000 N 
ATOM     10  C   UNL     1      44.706   6.655  11.406  0.00  0.00    +0.000 C 
ATOM     11  O   UNL     1      44.702   7.826  11.775  0.00  0.00    +0.000 OA
ATOM     12  H   UNL     1      45.831   4.932  11.121  0.00  0.00    +0.000 HD
BRANCH  10  13
ATOM     13  C   UNL     1      43.422   5.849  11.101  0.00  0.00    +0.000 C 
ATOM     14  C   UNL     1      43.681   4.367  10.885  0.00  0.00    +0.000 C 
ATOM     15  C   UNL     1      43.781   3.821  12.297  0.00  0.00    +0.000 C 
ATOM     16  C   UNL     1      42.879   4.728  13.120  0.00  0.00    +0.000 C 
ATOM     17  N   UNL     1      42.511   5.865  12.267  0.00  0.00    +0.000 NA
ATOM     18  H   UNL     1      42.611   6.737  12.787  0.00  0.00    +0.000 HD
ENDBRANCH  10  13
ENDBRANCH   8   9
ENDBRANCH   5   8
ENDBRANCH   1   2
BRANCH   1  19
ATOM     19  N   UNL     1      49.941   5.237  17.283  0.00  0.00    +0.000 N 
ATOM     20  C   UNL     1      50.306   4.413  18.310  0.00  0.00    +0.000 C 
ATOM     21  O   UNL     1      49.502   4.037  19.158  0.00  0.00    +0.000 OA
ATOM     22  H   UNL     1      50.661   5.710  16.746  0.00  0.00    +0.000 HD
BRANCH  20  23
ATOM     23  C   UNL     1      51.693   3.932  18.294  0.00  0.00    +0.000 A 
ATOM     24  C   UNL     1      52.723   4.770  18.701  0.00  0.00    +0.000 A 
ATOM     25  S   UNL     1      54.257   4.024  18.684  0.00  0.00    +0.000 S 
ATOM     26  C   UNL     1      53.607   2.574  18.078  0.00  0.00    +0.000 A 
ATOM     27  N   UNL     1      54.404   1.504  17.811  0.00  0.00    +0.000 NA
ATOM     28  C   UNL     1      53.784   0.487  17.313  0.00  0.00    +0.000 A 
ATOM     29  N   UNL     1      52.436   0.439  17.063  0.00  0.00    +0.000 N 
ATOM     30  C   UNL     1      51.584   1.473  17.371  0.00  0.00    +0.000 A 
ATOM     31  O   UNL     1      50.370   1.372  17.229  0.00  0.00    +0.000 OA
ATOM     32  C   UNL     1      52.237   2.652  17.906  0.00  0.00    +0.000 A 
ATOM     33  H   UNL     1      52.011  -0.396  16.687  0.00  0.00    +0.000 HD
ENDBRANCH  20  23
ENDBRANCH   1  19
BRANCH   1  35
ATOM     34  N   UNL     1      48.379   8.055  18.556  0.00  0.00    +0.000 NA
ATOM     35  C   UNL     1      48.496   7.062  17.963  0.00  0.00    +0.000 C 
ENDBRANCH   1  35
TORSDOF 7
ENDMDL
MODEL 7
REMARK VINA RESULT:    -6.262      3.432     10.074
REMARK INTER + INTRA:         -10.106
REMARK INTER:                  -9.013
REMARK INTRA:                  -1.093
REMARK UNBOUND:                -1.282
REMARK  Name = 
REMARK  7 active torsions:
REMARK  status: ('A' for Active; 'I' for Inactive)
REMARK    1  A    between atoms: C_2  and  C_3
REMARK    2  A    between atoms: C_3  and  N_4
REMARK    3  A    between atoms: C_3  and  C_17
REMARK    4  A    between atoms: C_5  and  C_7
REMARK    5  A    between atoms: C_20  and  C_21
REMARK    6  A    between atoms: C_21  and  N_22
REMARK    7  A    between atoms: C_23  and  C_25
REMARK                            x       y       z     vdW  Elec       q    Type
REMARK                         _______ _______ _______ _____ _____    ______ ____
ROOT
ATOM      1  C   UNL     1      44.723   5.739  11.657  0.00  0.00    +0.000 C 
ENDROOT
BRANCH   1   2
ATOM      2  C   UNL     1      45.894   6.263  12.485  0.00  0.00    +0.000 A 
ATOM      3  C   UNL     1      46.622   5.375  13.297  0.00  0.00    +0.000 A 
ATOM      4  C   UNL     1      47.683   5.827  14.090  0.00  0.00    +0.000 A 
ATOM      5  C   UNL     1      48.031   7.182  14.109  0.00  0.00    +0.000 A 
ATOM      6  C   UNL     1      47.306   8.073  13.308  0.00  0.00    +0.000 A 
ATOM      7  C   UNL     1      46.242   7.624  12.518  0.00  0.00    +0.000 A 
BRANCH   5   8
ATOM      8  C   UNL     1      49.145   7.686  14.988  0.00  0.00    +0.000 C 
BRANCH   8   9
ATOM      9  N   UNL     1      48.945   7.366  16.383  0.00  0.00    +0.000 N 
ATOM     10  C   UNL     1      49.727   6.388  16.971  0.00  0.00    +0.000 C 
ATOM     11  O   UNL     1      50.630   5.817  16.366  0.00  0.00    +0.000 OA
ATOM     12  H   UNL     1      48.096   7.667  16.844  0.00  0.00    +0.000 HD
BRANCH  10  13
ATOM     13  C   UNL     1      49.356   6.084  18.440  0.00  0.00    +0.000 C 
ATOM     14  C   UNL     1      47.866   6.198  18.719  0.00  0.00    +0.000 C 
ATOM     15  C   UNL     1      47.318   4.872  18.225  0.00  0.00    +0.000 C 
ATOM     16  C   UNL     1      48.459   3.888  18.431  0.00  0.00    +0.000 C 
ATOM     17  N   UNL     1      49.653   4.673  18.769  0.00  0.00    +0.000 NA
ATOM     18  H   UNL     1      50.452   4.341  18.230  0.00  0.00    +0.000 HD
ENDBRANCH  10  13
ENDBRANCH   8   9
ENDBRANCH   5   8
ENDBRANCH   1   2
BRANCH   1  19
ATOM     19  N   UNL     1      45.182   4.605  10.871  0.00  0.00    +0.000 N 
ATOM     20  C   UNL     1      44.514   4.187   9.754  0.00  0.00    +0.000 C 
ATOM     21  O   UNL     1      43.546   4.797   9.311  0.00  0.00    +0.000 OA
ATOM     22  H   UNL     1      45.816   3.965  11.339  0.00  0.00    +0.000 HD
BRANCH  20  23
ATOM     23  C   UNL     1      45.072   3.017   9.064  0.00  0.00    +0.000 A 
ATOM     24  C   UNL     1      44.569   1.750   9.327  0.00  0.00    +0.000 A 
ATOM     25  S   UNL     1      45.286   0.521   8.387  0.00  0.00    +0.000 S 
ATOM     26  C   UNL     1      46.336   1.630   7.637  0.00  0.00    +0.000 A 
ATOM     27  N   UNL     1      47.250   1.222   6.716  0.00  0.00    +0.000 NA
ATOM     28  C   UNL     1      48.010   2.162   6.264  0.00  0.00    +0.000 A 
ATOM     29  N   UNL     1      47.935   3.478   6.644  0.00  0.00    +0.000 N 
ATOM     30  C   UNL     1      46.990   3.946   7.526  0.00  0.00    +0.000 A 
ATOM     31  O   UNL     1      46.880   5.142   7.777  0.00  0.00    +0.000 OA
ATOM     32  C   UNL     1      46.130   2.922   8.087  0.00  0.00    +0.000 A 
ATOM     33  H   UNL     1      48.551   4.168   6.237  0.00  0.00    +0.000 HD
ENDBRANCH  20  23
ENDBRANCH   1  19
BRANCH   1  35
ATOM     34  N   UNL     1      42.621   5.073  13.124  0.00  0.00    +0.000 NA
ATOM     35  C   UNL     1      43.534   5.381  12.472  0.00  0.00    +0.000 C 
ENDBRANCH   1  35
TORSDOF 7
ENDMDL
MODEL 8
REMARK VINA RESULT:    -6.232      5.581      8.403
REMARK INTER + INTRA:         -10.064
REMARK INTER:                  -8.717
REMARK INTRA:                  -1.347
REMARK UNBOUND:                -1.282
REMARK  Name = 
REMARK  7 active torsions:
REMARK  status: ('A' for Active; 'I' for Inactive)
REMARK    1  A    between atoms: C_2  and  C_3
REMARK    2  A    between atoms: C_3  and  N_4
REMARK    3  A    between atoms: C_3  and  C_17
REMARK    4  A    between atoms: C_5  and  C_7
REMARK    5  A    between atoms: C_20  and  C_21
REMARK    6  A    between atoms: C_21  and  N_22
REMARK    7  A    between atoms: C_23  and  C_25
REMARK                            x       y       z     vdW  Elec       q    Type
REMARK                         _______ _______ _______ _____ _____    ______ ____
ROOT
ATOM      1  C   UNL     1      48.011   7.393  13.459  0.00  0.00    +0.000 C 
ENDROOT
BRANCH   1   2
ATOM      2  C   UNL     1      49.050   8.111  12.600  0.00  0.00    +0.000 A 
ATOM      3  C   UNL     1      49.989   7.359  11.873  0.00  0.00    +0.000 A 
ATOM      4  C   UNL     1      50.972   7.986  11.098  0.00  0.00    +0.000 A 
ATOM      5  C   UNL     1      51.056   9.382  11.047  0.00  0.00    +0.000 A 
ATOM      6  C   UNL     1      50.127  10.138  11.774  0.00  0.00    +0.000 A 
ATOM      7  C   UNL     1      49.148   9.512  12.553  0.00  0.00    +0.000 A 
BRANCH   5   8
ATOM      8  C   UNL     1      52.134  10.066  10.249  0.00  0.00    +0.000 C 
BRANCH   8   9
ATOM      9  N   UNL     1      53.220   9.181   9.901  0.00  0.00    +0.000 N 
ATOM     10  C   UNL     1      53.441   8.873   8.570  0.00  0.00    +0.000 C 
ATOM     11  O   UNL     1      52.781   9.371   7.662  0.00  0.00    +0.000 OA
ATOM     12  H   UNL     1      53.643   8.609  10.620  0.00  0.00    +0.000 HD
BRANCH  10  13
ATOM     13  C   UNL     1      54.578   7.851   8.341  0.00  0.00    +0.000 C 
ATOM     14  C   UNL     1      54.653   6.785   9.421  0.00  0.00    +0.000 C 
ATOM     15  C   UNL     1      53.578   5.797   9.011  0.00  0.00    +0.000 C 
ATOM     16  C   UNL     1      53.523   5.902   7.495  0.00  0.00    +0.000 C 
ATOM     17  N   UNL     1      54.330   7.067   7.111  0.00  0.00    +0.000 NA
ATOM     18  H   UNL     1      53.826   7.628   6.424  0.00  0.00    +0.000 HD
ENDBRANCH  10  13
ENDBRANCH   8   9
ENDBRANCH   5   8
ENDBRANCH   1   2
BRANCH   1  19
ATOM     19  N   UNL     1      47.321   6.418  12.632  0.00  0.00    +0.000 N 
ATOM     20  C   UNL     1      46.258   6.765  11.845  0.00  0.00    +0.000 C 
ATOM     21  O   UNL     1      45.888   7.930  11.732  0.00  0.00    +0.000 OA
ATOM     22  H   UNL     1      47.452   5.444  12.886  0.00  0.00    +0.000 HD
BRANCH  20  23
ATOM     23  C   UNL     1      45.638   5.680  11.075  0.00  0.00    +0.000 A 
ATOM     24  C   UNL     1      45.770   5.646   9.693  0.00  0.00    +0.000 A 
ATOM     25  S   UNL     1      45.048   4.279   8.972  0.00  0.00    +0.000 S 
ATOM     26  C   UNL     1      44.482   3.715  10.474  0.00  0.00    +0.000 A 
ATOM     27  N   UNL     1      43.751   2.572  10.566  0.00  0.00    +0.000 NA
ATOM     28  C   UNL     1      43.350   2.289  11.760  0.00  0.00    +0.000 A 
ATOM     29  N   UNL     1      43.620   3.042  12.874  0.00  0.00    +0.000 N 
ATOM     30  C   UNL     1      44.403   4.171  12.838  0.00  0.00    +0.000 A 
ATOM     31  O   UNL     1      44.711   4.775  13.861  0.00  0.00    +0.000 OA
ATOM     32  C   UNL     1      44.854   4.549  11.513  0.00  0.00    +0.000 A 
ATOM     33  H   UNL     1      43.289   2.754  13.784  0.00  0.00    +0.000 HD
ENDBRANCH  20  23
ENDBRANCH   1  19
BRANCH   1  35
ATOM     34  N   UNL     1      49.044   6.293  15.635  0.00  0.00    +0.000 NA
ATOM     35  C   UNL     1      48.583   6.758  14.673  0.00  0.00    +0.000 C 
ENDBRANCH   1  35
TORSDOF 7
ENDMDL
MODEL 9
REMARK VINA RESULT:    -6.207      4.441      8.996
REMARK INTER + INTRA:         -10.029
REMARK INTER:                  -8.804
REMARK INTRA:                  -1.226
REMARK UNBOUND:                -1.282
REMARK  Name = 
REMARK  7 active torsions:
REMARK  status: ('A' for Active; 'I' for Inactive)
REMARK    1  A    between atoms: C_2  and  C_3
REMARK    2  A    between atoms: C_3  and  N_4
REMARK    3  A    between atoms: C_3  and  C_17
REMARK    4  A    between atoms: C_5  and  C_7
REMARK    5  A    between atoms: C_20  and  C_21
REMARK    6  A    between atoms: C_21  and  N_22
REMARK    7  A    between atoms: C_23  and  C_25
REMARK                            x       y       z     vdW  Elec       q    Type
REMARK                         _______ _______ _______ _____ _____    ______ ____
ROOT
ATOM      1  C   UNL     1      48.955   7.750  15.417  0.00  0.00    +0.000 C 
ENDROOT
BRANCH   1   2
ATOM      2  C   UNL     1      49.497   6.591  16.252  0.00  0.00    +0.000 A 
ATOM      3  C   UNL     1      50.881   6.485  16.474  0.00  0.00    +0.000 A 
ATOM      4  C   UNL     1      51.415   5.421  17.211  0.00  0.00    +0.000 A 
ATOM      5  C   UNL     1      50.580   4.422  17.725  0.00  0.00    +0.000 A 
ATOM      6  C   UNL     1      49.201   4.518  17.501  0.00  0.00    +0.000 A 
ATOM      7  C   UNL     1      48.667   5.579  16.762  0.00  0.00    +0.000 A 
BRANCH   5   8
ATOM      8  C   UNL     1      51.147   3.252  18.484  0.00  0.00    +0.000 C 
BRANCH   8   9
ATOM      9  N   UNL     1      52.336   2.709  17.869  0.00  0.00    +0.000 N 
ATOM     10  C   UNL     1      52.383   1.361  17.561  0.00  0.00    +0.000 C 
ATOM     11  O   UNL     1      51.425   0.613  17.738  0.00  0.00    +0.000 OA
ATOM     12  H   UNL     1      53.195   3.243  17.895  0.00  0.00    +0.000 HD
BRANCH  10  13
ATOM     13  C   UNL     1      53.740   0.893  16.987  0.00  0.00    +0.000 C 
ATOM     14  C   UNL     1      54.935   1.457  17.737  0.00  0.00    +0.000 C 
ATOM     15  C   UNL     1      55.046   0.550  18.948  0.00  0.00    +0.000 C 
ATOM     16  C   UNL     1      54.512  -0.791  18.468  0.00  0.00    +0.000 C 
ATOM     17  N   UNL     1      53.897  -0.569  17.154  0.00  0.00    +0.000 NA
ATOM     18  H   UNL     1      52.990  -1.033  17.111  0.00  0.00    +0.000 HD
ENDBRANCH  10  13
ENDBRANCH   8   9
ENDBRANCH   5   8
ENDBRANCH   1   2
BRANCH   1  19
ATOM     19  N   UNL     1      47.790   7.285  14.683  0.00  0.00    +0.000 N 
ATOM     20  C   UNL     1      47.811   7.125  13.325  0.00  0.00    +0.000 C 
ATOM     21  O   UNL     1      48.837   7.284  12.670  0.00  0.00    +0.000 OA
ATOM     22  H   UNL     1      46.897   7.377  15.157  0.00  0.00    +0.000 HD
BRANCH  20  23
ATOM     23  C   UNL     1      46.561   6.669  12.705  0.00  0.00    +0.000 A 
ATOM     24  C   UNL     1      45.740   7.576  12.049  0.00  0.00    +0.000 A 
ATOM     25  S   UNL     1      44.369   6.861  11.330  0.00  0.00    +0.000 S 
ATOM     26  C   UNL     1      44.793   5.322  11.920  0.00  0.00    +0.000 A 
ATOM     27  N   UNL     1      44.012   4.236  11.676  0.00  0.00    +0.000 NA
ATOM     28  C   UNL     1      44.430   3.144  12.223  0.00  0.00    +0.000 A 
ATOM     29  N   UNL     1      45.565   3.037  12.986  0.00  0.00    +0.000 N 
ATOM     30  C   UNL     1      46.415   4.094  13.210  0.00  0.00    +0.000 A 
ATOM     31  O   UNL     1      47.473   3.952  13.814  0.00  0.00    +0.000 OA
ATOM     32  C   UNL     1      45.973   5.353  12.641  0.00  0.00    +0.000 A 
ATOM     33  H   UNL     1      45.845   2.146  13.371  0.00  0.00    +0.000 HD
ENDBRANCH  20  23
ENDBRANCH   1  19
BRANCH   1  35
ATOM     34  N   UNL     1      48.362   9.889  16.861  0.00  0.00    +0.000 NA
ATOM     35  C   UNL     1      48.637   8.959  16.217  0.00  0.00    +0.000 C 
ENDBRANCH   1  35
TORSDOF 7
ENDMDL
