MODEL 1
REMARK VINA RESULT:    -7.335      0.000      0.000
REMARK INTER + INTRA:         -11.033
REMARK INTER:                  -9.908
REMARK INTRA:                  -1.125
REMARK UNBOUND:                -1.125
REMARK  Name = 
REMARK  6 active torsions:
REMARK  status: ('A' for Active; 'I' for Inactive)
REMARK    1  A    between atoms: C_2  and  C_20
REMARK    2  A    between atoms: N_3  and  C_4
REMARK    3  A    between atoms: C_4  and  C_5
REMARK    4  A    between atoms: C_8  and  C_9
REMARK    5  A    between atoms: C_9  and  N_10
REMARK    6  A    between atoms: C_11  and  C_13
REMARK                            x       y       z     vdW  Elec       q    Type
REMARK                         _______ _______ _______ _____ _____    ______ ____
ROOT
ATOM      1  C   UNL     1      46.754   4.374  14.491  0.00  0.00    +0.000 C 
ENDROOT
BRANCH   1   2
ATOM      2  C   UNL     1      46.022   4.433  13.172  0.00  0.00    +0.000 A 
ATOM      3  C   UNL     1      45.882   5.647  12.486  0.00  0.00    +0.000 A 
ATOM      4  C   UNL     1      45.263   5.698  11.228  0.00  0.00    +0.000 A 
ATOM      5  C   UNL     1      44.745   4.536  10.640  0.00  0.00    +0.000 A 
ATOM      6  C   UNL     1      44.872   3.324  11.333  0.00  0.00    +0.000 A 
ATOM      7  C   UNL     1      45.493   3.275  12.588  0.00  0.00    +0.000 A 
BRANCH   5   8
ATOM      8  C   UNL     1      44.085   4.575   9.282  0.00  0.00    +0.000 C 
BRANCH   8   9
ATOM      9  N   UNL     1      44.550   3.501   8.430  0.00  0.00    +0.000 N 
ATOM     10  C   UNL     1      45.702   3.638   7.677  0.00  0.00    +0.000 C 
ATOM     11  O   UNL     1      46.399   4.643   7.723  0.00  0.00    +0.000 OA
ATOM     12  H   UNL     1      43.897   2.764   8.203  0.00  0.00    +0.000 HD
BRANCH  10  13
ATOM     13  C   UNL     1      45.960   2.468   6.730  0.00  0.00    +0.000 C 
ATOM     14  C   UNL     1      46.821   1.377   7.332  0.00  0.00    +0.000 C 
ATOM     15  C   UNL     1      48.224   1.765   6.920  0.00  0.00    +0.000 C 
ATOM     16  O   UNL     1      48.117   2.486   5.692  0.00  0.00    +0.000 OA
ATOM     17  C   UNL     1      46.747   2.866   5.492  0.00  0.00    +0.000 C 
ENDBRANCH  10  13
ENDBRANCH   8   9
ENDBRANCH   5   8
ENDBRANCH   1   2
BRANCH   1  20
ATOM     18  O   UNL     1      48.695   4.628  16.433  0.00  0.00    +0.000 OA
ATOM     19  C   UNL     1      48.392   5.630  15.793  0.00  0.00    +0.000 C 
ATOM     20  N   UNL     1      47.393   5.618  14.845  0.00  0.00    +0.000 N 
ATOM     21  H   UNL     1      47.332   6.382  14.179  0.00  0.00    +0.000 HD
BRANCH  19  22
ATOM     22  C   UNL     1      49.059   6.915  16.034  0.00  0.00    +0.000 A 
ATOM     23  C   UNL     1      49.161   7.418  17.324  0.00  0.00    +0.000 A 
ATOM     24  S   UNL     1      49.989   8.909  17.410  0.00  0.00    +0.000 S 
ATOM     25  C   UNL     1      50.279   8.907  15.731  0.00  0.00    +0.000 A 
ATOM     26  N   UNL     1      50.995   9.900  15.140  0.00  0.00    +0.000 NA
ATOM     27  C   UNL     1      51.171   9.746  13.868  0.00  0.00    +0.000 A 
ATOM     28  N   UNL     1      50.680   8.699  13.135  0.00  0.00    +0.000 N 
ATOM     29  C   UNL     1      49.908   7.703  13.678  0.00  0.00    +0.000 A 
ATOM     30  O   UNL     1      49.410   6.826  12.981  0.00  0.00    +0.000 OA
ATOM     31  C   UNL     1      49.717   7.806  15.114  0.00  0.00    +0.000 A 
ATOM     32  H   UNL     1      50.828   8.651  12.139  0.00  0.00    +0.000 HD
ENDBRANCH  19  22
ENDBRANCH   1  20
TORSDOF 6
ENDMDL
MODEL 2
REMARK VINA RESULT:    -7.284      2.054      3.579
REMARK INTER + INTRA:         -10.964
REMARK INTER:                  -9.865
REMARK INTRA:                  -1.099
REMARK UNBOUND:                -1.125
REMARK  Name = 
REMARK  6 active torsions:
REMARK  status: ('A' for Active; 'I' for Inactive)
REMARK    1  A    between atoms: C_2  and  C_20
REMARK    2  A    between atoms: N_3  and  C_4
REMARK    3  A    between atoms: C_4  and  C_5
REMARK    4  A    between atoms: C_8  and  C_9
REMARK    5  A    between atoms: C_9  and  N_10
REMARK    6  A    between atoms: C_11  and  C_13
REMARK                            x       y       z     vdW  Elec       q    Type
REMARK                         _______ _______ _______ _____ _____    ______ ____
ROOT
ATOM      1  C   UNL     1      47.460   7.318  13.428  0.00  0.00    +0.000 C 
ENDROOT
BRANCH   1   2
ATOM      2  C   UNL     1      46.572   6.443  12.577  0.00  0.00    +0.000 A 
ATOM      3  C   UNL     1      45.757   5.465  13.165  0.00  0.00    +0.000 A 
ATOM      4  C   UNL     1      44.879   4.696  12.389  0.00  0.00    +0.000 A 
ATOM      5  C   UNL     1      44.815   4.868  10.999  0.00  0.00    +0.000 A 
ATOM      6  C   UNL     1      45.640   5.837  10.409  0.00  0.00    +0.000 A 
ATOM      7  C   UNL     1      46.515   6.606  11.188  0.00  0.00    +0.000 A 
BRANCH   5   8
ATOM      8  C   UNL     1      43.867   4.053  10.153  0.00  0.00    +0.000 C 
BRANCH   8   9
ATOM      9  N   UNL     1      44.383   3.851   8.815  0.00  0.00    +0.000 N 
ATOM     10  C   UNL     1      45.122   2.726   8.500  0.00  0.00    +0.000 C 
ATOM     11  O   UNL     1      45.342   1.838   9.313  0.00  0.00    +0.000 OA
ATOM     12  H   UNL     1      44.410   4.650   8.196  0.00  0.00    +0.000 HD
BRANCH  10  13
ATOM     13  C   UNL     1      45.707   2.751   7.089  0.00  0.00    +0.000 C 
ATOM     14  C   UNL     1      46.425   1.473   6.706  0.00  0.00    +0.000 C 
ATOM     15  C   UNL     1      47.861   1.743   7.096  0.00  0.00    +0.000 C 
ATOM     16  O   UNL     1      48.065   3.153   6.998  0.00  0.00    +0.000 OA
ATOM     17  C   UNL     1      46.788   3.804   6.911  0.00  0.00    +0.000 C 
ENDBRANCH  10  13
ENDBRANCH   8   9
ENDBRANCH   5   8
ENDBRANCH   1   2
BRANCH   1  20
ATOM     18  O   UNL     1      49.972   7.040  14.530  0.00  0.00    +0.000 OA
ATOM     19  C   UNL     1      49.007   6.723  15.219  0.00  0.00    +0.000 C 
ATOM     20  N   UNL     1      47.718   6.769  14.736  0.00  0.00    +0.000 N 
ATOM     21  H   UNL     1      46.942   6.733  15.391  0.00  0.00    +0.000 HD
BRANCH  19  22
ATOM     22  C   UNL     1      49.182   6.239  16.593  0.00  0.00    +0.000 A 
ATOM     23  C   UNL     1      49.816   7.033  17.538  0.00  0.00    +0.000 A 
ATOM     24  S   UNL     1      49.906   6.313  19.084  0.00  0.00    +0.000 S 
ATOM     25  C   UNL     1      49.058   4.935  18.551  0.00  0.00    +0.000 A 
ATOM     26  N   UNL     1      48.748   3.924  19.406  0.00  0.00    +0.000 NA
ATOM     27  C   UNL     1      48.068   2.963  18.873  0.00  0.00    +0.000 A 
ATOM     28  N   UNL     1      47.687   2.915  17.559  0.00  0.00    +0.000 N 
ATOM     29  C   UNL     1      48.022   3.884  16.646  0.00  0.00    +0.000 A 
ATOM     30  O   UNL     1      47.741   3.771  15.459  0.00  0.00    +0.000 OA
ATOM     31  C   UNL     1      48.750   5.009  17.206  0.00  0.00    +0.000 A 
ATOM     32  H   UNL     1      47.181   2.122  17.196  0.00  0.00    +0.000 HD
ENDBRANCH  19  22
ENDBRANCH   1  20
TORSDOF 6
ENDMDL
MODEL 3
REMARK VINA RESULT:    -7.153      5.281      9.738
REMARK INTER + INTRA:         -10.788
REMARK INTER:                  -9.808
REMARK INTRA:                  -0.979
REMARK UNBOUND:                -1.125
REMARK  Name = 
REMARK  6 active torsions:
REMARK  status: ('A' for Active; 'I' for Inactive)
REMARK    1  A    between atoms: C_2  and  C_20
REMARK    2  A    between atoms: N_3  and  C_4
REMARK    3  A    between atoms: C_4  and  C_5
REMARK    4  A    between atoms: C_8  and  C_9
REMARK    5  A    between atoms: C_9  and  N_10
REMARK    6  A    between atoms: C_11  and  C_13
REMARK                            x       y       z     vdW  Elec       q    Type
REMARK                         _______ _______ _______ _____ _____    ______ ____
ROOT
ATOM      1  C   UNL     1      47.236   3.364  16.683  0.00  0.00    +0.000 C 
ENDROOT
BRANCH   1   2
ATOM      2  C   UNL     1      48.681   3.509  17.094  0.00  0.00    +0.000 A 
ATOM      3  C   UNL     1      49.548   2.408  17.058  0.00  0.00    +0.000 A 
ATOM      4  C   UNL     1      50.907   2.551  17.372  0.00  0.00    +0.000 A 
ATOM      5  C   UNL     1      51.426   3.796  17.756  0.00  0.00    +0.000 A 
ATOM      6  C   UNL     1      50.555   4.894  17.805  0.00  0.00    +0.000 A 
ATOM      7  C   UNL     1      49.197   4.749  17.489  0.00  0.00    +0.000 A 
BRANCH   5   8
ATOM      8  C   UNL     1      52.889   3.964  18.087  0.00  0.00    +0.000 C 
BRANCH   8   9
ATOM      9  N   UNL     1      53.624   2.730  17.909  0.00  0.00    +0.000 N 
ATOM     10  C   UNL     1      54.196   2.080  18.987  0.00  0.00    +0.000 C 
ATOM     11  O   UNL     1      54.078   2.487  20.135  0.00  0.00    +0.000 OA
ATOM     12  H   UNL     1      53.923   2.492  16.973  0.00  0.00    +0.000 HD
BRANCH  10  13
ATOM     13  C   UNL     1      55.053   0.878  18.595  0.00  0.00    +0.000 C 
ATOM     14  C   UNL     1      54.350  -0.096  17.673  0.00  0.00    +0.000 C 
ATOM     15  C   UNL     1      53.727  -1.096  18.621  0.00  0.00    +0.000 C 
ATOM     16  O   UNL     1      54.548  -1.135  19.789  0.00  0.00    +0.000 OA
ATOM     17  C   UNL     1      55.427   0.001  19.780  0.00  0.00    +0.000 C 
ENDBRANCH  10  13
ENDBRANCH   8   9
ENDBRANCH   5   8
ENDBRANCH   1   2
BRANCH   1  20
ATOM     18  O   UNL     1      47.187   3.090  13.940  0.00  0.00    +0.000 OA
ATOM     19  C   UNL     1      46.758   4.135  14.418  0.00  0.00    +0.000 C 
ATOM     20  N   UNL     1      46.796   4.391  15.771  0.00  0.00    +0.000 N 
ATOM     21  H   UNL     1      46.228   5.142  16.149  0.00  0.00    +0.000 HD
BRANCH  19  22
ATOM     22  C   UNL     1      46.212   5.193  13.560  0.00  0.00    +0.000 A 
ATOM     23  C   UNL     1      46.979   6.308  13.252  0.00  0.00    +0.000 A 
ATOM     24  S   UNL     1      46.186   7.418  12.224  0.00  0.00    +0.000 S 
ATOM     25  C   UNL     1      44.808   6.422  12.121  0.00  0.00    +0.000 A 
ATOM     26  N   UNL     1      43.747   6.767  11.345  0.00  0.00    +0.000 NA
ATOM     27  C   UNL     1      42.791   5.896  11.331  0.00  0.00    +0.000 A 
ATOM     28  N   UNL     1      42.796   4.722  12.036  0.00  0.00    +0.000 N 
ATOM     29  C   UNL     1      43.820   4.357  12.873  0.00  0.00    +0.000 A 
ATOM     30  O   UNL     1      43.757   3.343  13.557  0.00  0.00    +0.000 OA
ATOM     31  C   UNL     1      44.939   5.282  12.891  0.00  0.00    +0.000 A 
ATOM     32  H   UNL     1      42.005   4.097  12.005  0.00  0.00    +0.000 HD
ENDBRANCH  19  22
ENDBRANCH   1  20
TORSDOF 6
ENDMDL
MODEL 4
REMARK VINA RESULT:    -7.099      1.734      2.751
REMARK INTER + INTRA:         -10.715
REMARK INTER:                  -9.804
REMARK INTRA:                  -0.911
REMARK UNBOUND:                -1.125
REMARK  Name = 
REMARK  6 active torsions:
REMARK  status: ('A' for Active; 'I' for Inactive)
REMARK    1  A    between atoms: C_2  and  C_20
REMARK    2  A    between atoms: N_3  and  C_4
REMARK    3  A    between atoms: C_4  and  C_5
REMARK    4  A    between atoms: C_8  and  C_9
REMARK    5  A    between atoms: C_9  and  N_10
REMARK    6  A    between atoms: C_11  and  C_13
REMARK                            x       y       z     vdW  Elec       q    Type
REMARK                         _______ _______ _______ _____ _____    ______ ____
ROOT
ATOM      1  C   UNL     1      47.075   4.225  14.770  0.00  0.00    +0.000 C 
ENDROOT
BRANCH   1   2
ATOM      2  C   UNL     1      46.285   4.383  13.494  0.00  0.00    +0.000 A 
ATOM      3  C   UNL     1      46.168   5.636  12.877  0.00  0.00    +0.000 A 
ATOM      4  C   UNL     1      45.493   5.778  11.656  0.00  0.00    +0.000 A 
ATOM      5  C   UNL     1      44.897   4.671  11.036  0.00  0.00    +0.000 A 
ATOM      6  C   UNL     1      45.003   3.420  11.660  0.00  0.00    +0.000 A 
ATOM      7  C   UNL     1      45.679   3.281  12.880  0.00  0.00    +0.000 A 
BRANCH   5   8
ATOM      8  C   UNL     1      44.177   4.809   9.716  0.00  0.00    +0.000 C 
BRANCH   8   9
ATOM      9  N   UNL     1      44.511   3.731   8.809  0.00  0.00    +0.000 N 
ATOM     10  C   UNL     1      45.607   3.820   7.970  0.00  0.00    +0.000 C 
ATOM     11  O   UNL     1      46.361   4.784   7.979  0.00  0.00    +0.000 OA
ATOM     12  H   UNL     1      43.800   3.037   8.621  0.00  0.00    +0.000 HD
BRANCH  10  13
ATOM     13  C   UNL     1      45.721   2.661   6.983  0.00  0.00    +0.000 C 
ATOM     14  C   UNL     1      46.427   1.447   7.551  0.00  0.00    +0.000 C 
ATOM     15  C   UNL     1      47.873   1.664   7.163  0.00  0.00    +0.000 C 
ATOM     16  O   UNL     1      47.874   2.435   5.961  0.00  0.00    +0.000 OA
ATOM     17  C   UNL     1      46.567   2.996   5.765  0.00  0.00    +0.000 C 
ENDBRANCH  10  13
ENDBRANCH   8   9
ENDBRANCH   5   8
ENDBRANCH   1   2
BRANCH   1  20
ATOM     18  O   UNL     1      49.091   4.497  16.632  0.00  0.00    +0.000 OA
ATOM     19  C   UNL     1      48.542   5.518  16.231  0.00  0.00    +0.000 C 
ATOM     20  N   UNL     1      47.486   5.481  15.347  0.00  0.00    +0.000 N 
ATOM     21  H   UNL     1      47.217   6.331  14.860  0.00  0.00    +0.000 HD
BRANCH  19  22
ATOM     22  C   UNL     1      48.963   6.842  16.704  0.00  0.00    +0.000 A 
ATOM     23  C   UNL     1      49.798   7.630  15.924  0.00  0.00    +0.000 A 
ATOM     24  S   UNL     1      50.159   9.144  16.627  0.00  0.00    +0.000 S 
ATOM     25  C   UNL     1      49.173   8.814  17.976  0.00  0.00    +0.000 A 
ATOM     26  N   UNL     1      48.998   9.733  18.962  0.00  0.00    +0.000 NA
ATOM     27  C   UNL     1      48.191   9.361  19.902  0.00  0.00    +0.000 A 
ATOM     28  N   UNL     1      47.560   8.147  19.951  0.00  0.00    +0.000 N 
ATOM     29  C   UNL     1      47.747   7.168  19.008  0.00  0.00    +0.000 A 
ATOM     30  O   UNL     1      47.237   6.060  19.125  0.00  0.00    +0.000 OA
ATOM     31  C   UNL     1      48.612   7.553  17.907  0.00  0.00    +0.000 A 
ATOM     32  H   UNL     1      46.964   7.906  20.728  0.00  0.00    +0.000 HD
ENDBRANCH  19  22
ENDBRANCH   1  20
TORSDOF 6
ENDMDL
MODEL 5
REMARK VINA RESULT:    -7.095      2.256      2.920
REMARK INTER + INTRA:         -10.708
REMARK INTER:                  -9.617
REMARK INTRA:                  -1.092
REMARK UNBOUND:                -1.125
REMARK  Name = 
REMARK  6 active torsions:
REMARK  status: ('A' for Active; 'I' for Inactive)
REMARK    1  A    between atoms: C_2  and  C_20
REMARK    2  A    between atoms: N_3  and  C_4
REMARK    3  A    between atoms: C_4  and  C_5
REMARK    4  A    between atoms: C_8  and  C_9
REMARK    5  A    between atoms: C_9  and  N_10
REMARK    6  A    between atoms: C_11  and  C_13
REMARK                            x       y       z     vdW  Elec       q    Type
REMARK                         _______ _______ _______ _____ _____    ______ ____
ROOT
ATOM      1  C   UNL     1      47.653   4.218  15.587  0.00  0.00    +0.000 C 
ENDROOT
BRANCH   1   2
ATOM      2  C   UNL     1      46.944   4.641  14.324  0.00  0.00    +0.000 A 
ATOM      3  C   UNL     1      46.034   3.782  13.693  0.00  0.00    +0.000 A 
ATOM      4  C   UNL     1      45.320   4.195  12.559  0.00  0.00    +0.000 A 
ATOM      5  C   UNL     1      45.521   5.470  12.012  0.00  0.00    +0.000 A 
ATOM      6  C   UNL     1      46.442   6.325  12.636  0.00  0.00    +0.000 A 
ATOM      7  C   UNL     1      47.152   5.911  13.771  0.00  0.00    +0.000 A 
BRANCH   5   8
ATOM      8  C   UNL     1      44.752   5.931  10.797  0.00  0.00    +0.000 C 
BRANCH   8   9
ATOM      9  N   UNL     1      44.562   4.856   9.845  0.00  0.00    +0.000 N 
ATOM     10  C   UNL     1      45.434   4.681   8.787  0.00  0.00    +0.000 C 
ATOM     11  O   UNL     1      46.419   5.390   8.625  0.00  0.00    +0.000 OA
ATOM     12  H   UNL     1      43.659   4.404   9.822  0.00  0.00    +0.000 HD
BRANCH  10  13
ATOM     13  C   UNL     1      44.999   3.596   7.805  0.00  0.00    +0.000 C 
ATOM     14  C   UNL     1      44.675   2.272   8.468  0.00  0.00    +0.000 C 
ATOM     15  C   UNL     1      45.986   1.520   8.416  0.00  0.00    +0.000 C 
ATOM     16  O   UNL     1      46.699   1.996   7.274  0.00  0.00    +0.000 OA
ATOM     17  C   UNL     1      46.089   3.213   6.817  0.00  0.00    +0.000 C 
ENDBRANCH  10  13
ENDBRANCH   8   9
ENDBRANCH   5   8
ENDBRANCH   1   2
BRANCH   1  20
ATOM     18  O   UNL     1      49.760   5.685  16.593  0.00  0.00    +0.000 OA
ATOM     19  C   UNL     1      48.643   5.902  17.051  0.00  0.00    +0.000 C 
ATOM     20  N   UNL     1      47.538   5.179  16.656  0.00  0.00    +0.000 N 
ATOM     21  H   UNL     1      46.611   5.535  16.869  0.00  0.00    +0.000 HD
BRANCH  19  22
ATOM     22  C   UNL     1      48.429   6.927  18.079  0.00  0.00    +0.000 A 
ATOM     23  C   UNL     1      48.463   6.585  19.424  0.00  0.00    +0.000 A 
ATOM     24  S   UNL     1      48.218   7.912  20.471  0.00  0.00    +0.000 S 
ATOM     25  C   UNL     1      48.104   8.995  19.161  0.00  0.00    +0.000 A 
ATOM     26  N   UNL     1      47.936  10.328  19.362  0.00  0.00    +0.000 NA
ATOM     27  C   UNL     1      47.908  11.032  18.278  0.00  0.00    +0.000 A 
ATOM     28  N   UNL     1      48.014  10.520  17.013  0.00  0.00    +0.000 N 
ATOM     29  C   UNL     1      48.131   9.176  16.758  0.00  0.00    +0.000 A 
ATOM     30  O   UNL     1      48.136   8.740  15.613  0.00  0.00    +0.000 OA
ATOM     31  C   UNL     1      48.211   8.345  17.946  0.00  0.00    +0.000 A 
ATOM     32  H   UNL     1      47.956  11.120  16.205  0.00  0.00    +0.000 HD
ENDBRANCH  19  22
ENDBRANCH   1  20
TORSDOF 6
ENDMDL
MODEL 6
REMARK VINA RESULT:    -6.954      2.906      4.896
REMARK INTER + INTRA:         -10.519
REMARK INTER:                  -8.950
REMARK INTRA:                  -1.568
REMARK UNBOUND:                -1.125
REMARK  Name = 
REMARK  6 active torsions:
REMARK  status: ('A' for Active; 'I' for Inactive)
REMARK    1  A    between atoms: C_2  and  C_20
REMARK    2  A    between atoms: N_3  and  C_4
REMARK    3  A    between atoms: C_4  and  C_5
REMARK    4  A    between atoms: C_8  and  C_9
REMARK    5  A    between atoms: C_9  and  N_10
REMARK    6  A    between atoms: C_11  and  C_13
REMARK                            x       y       z     vdW  Elec       q    Type
REMARK                         _______ _______ _______ _____ _____    ______ ____
ROOT
ATOM      1  C   UNL     1      49.325   8.373  13.980  0.00  0.00    +0.000 C 
ENDROOT
BRANCH   1   2
ATOM      2  C   UNL     1      48.052   8.160  13.196  0.00  0.00    +0.000 A 
ATOM      3  C   UNL     1      47.921   7.066  12.330  0.00  0.00    +0.000 A 
ATOM      4  C   UNL     1      46.717   6.825  11.652  0.00  0.00    +0.000 A 
ATOM      5  C   UNL     1      45.625   7.689  11.805  0.00  0.00    +0.000 A 
ATOM      6  C   UNL     1      45.761   8.791  12.661  0.00  0.00    +0.000 A 
ATOM      7  C   UNL     1      46.964   9.029  13.340  0.00  0.00    +0.000 A 
BRANCH   5   8
ATOM      8  C   UNL     1      44.320   7.434  11.088  0.00  0.00    +0.000 C 
BRANCH   8   9
ATOM      9  N   UNL     1      44.128   6.026  10.810  0.00  0.00    +0.000 N 
ATOM     10  C   UNL     1      43.061   5.333  11.351  0.00  0.00    +0.000 C 
ATOM     11  O   UNL     1      42.214   5.875  12.049  0.00  0.00    +0.000 OA
ATOM     12  H   UNL     1      44.911   5.511  10.431  0.00  0.00    +0.000 HD
BRANCH  10  13
ATOM     13  C   UNL     1      43.099   3.832  11.072  0.00  0.00    +0.000 C 
ATOM     14  C   UNL     1      43.584   3.008  12.247  0.00  0.00    +0.000 C 
ATOM     15  C   UNL     1      45.073   2.892  12.008  0.00  0.00    +0.000 C 
ATOM     16  O   UNL     1      45.280   2.965  10.598  0.00  0.00    +0.000 OA
ATOM     17  C   UNL     1      44.082   3.455   9.975  0.00  0.00    +0.000 C 
ENDBRANCH  10  13
ENDBRANCH   8   9
ENDBRANCH   5   8
ENDBRANCH   1   2
BRANCH   1  20
ATOM     18  O   UNL     1      48.390   8.668  16.557  0.00  0.00    +0.000 OA
ATOM     19  C   UNL     1      48.962   7.621  16.273  0.00  0.00    +0.000 C 
ATOM     20  N   UNL     1      49.517   7.404  15.031  0.00  0.00    +0.000 N 
ATOM     21  H   UNL     1      49.765   6.458  14.757  0.00  0.00    +0.000 HD
BRANCH  19  22
ATOM     22  C   UNL     1      49.120   6.549  17.263  0.00  0.00    +0.000 A 
ATOM     23  C   UNL     1      49.811   6.785  18.444  0.00  0.00    +0.000 A 
ATOM     24  S   UNL     1      49.870   5.430  19.481  0.00  0.00    +0.000 S 
ATOM     25  C   UNL     1      48.934   4.497  18.406  0.00  0.00    +0.000 A 
ATOM     26  N   UNL     1      48.570   3.224  18.712  0.00  0.00    +0.000 NA
ATOM     27  C   UNL     1      47.827   2.653  17.822  0.00  0.00    +0.000 A 
ATOM     28  N   UNL     1      47.430   3.235  16.648  0.00  0.00    +0.000 N 
ATOM     29  C   UNL     1      47.816   4.497  16.271  0.00  0.00    +0.000 A 
ATOM     30  O   UNL     1      47.518   4.958  15.176  0.00  0.00    +0.000 OA
ATOM     31  C   UNL     1      48.618   5.199  17.258  0.00  0.00    +0.000 A 
ATOM     32  H   UNL     1      46.873   2.725  15.980  0.00  0.00    +0.000 HD
ENDBRANCH  19  22
ENDBRANCH   1  20
TORSDOF 6
ENDMDL
MODEL 7
REMARK VINA RESULT:    -6.904      3.840      8.954
REMARK INTER + INTRA:         -10.451
REMARK INTER:                  -9.460
REMARK INTRA:                  -0.991
REMARK UNBOUND:                -1.125
REMARK  Name = 
REMARK  6 active torsions:
REMARK  status: ('A' for Active; 'I' for Inactive)
REMARK    1  A    between atoms: C_2  and  C_20
REMARK    2  A    between atoms: N_3  and  C_4
REMARK    3  A    between atoms: C_4  and  C_5
REMARK    4  A    between atoms: C_8  and  C_9
REMARK    5  A    between atoms: C_9  and  N_10
REMARK    6  A    between atoms: C_11  and  C_13
REMARK                            x       y       z     vdW  Elec       q    Type
REMARK                         _______ _______ _______ _____ _____    ______ ____
ROOT
ATOM      1  C   UNL     1      48.379   7.972  11.850  0.00  0.00    +0.000 C 
ENDROOT
BRANCH   1   2
ATOM      2  C   UNL     1      49.051   7.703  13.175  0.00  0.00    +0.000 A 
ATOM      3  C   UNL     1      50.373   8.112  13.403  0.00  0.00    +0.000 A 
ATOM      4  C   UNL     1      50.979   7.926  14.653  0.00  0.00    +0.000 A 
ATOM      5  C   UNL     1      50.285   7.303  15.699  0.00  0.00    +0.000 A 
ATOM      6  C   UNL     1      48.968   6.882  15.467  0.00  0.00    +0.000 A 
ATOM      7  C   UNL     1      48.362   7.070  14.217  0.00  0.00    +0.000 A 
BRANCH   5   8
ATOM      8  C   UNL     1      50.923   7.106  17.053  0.00  0.00    +0.000 C 
BRANCH   8   9
ATOM      9  N   UNL     1      50.099   6.290  17.920  0.00  0.00    +0.000 N 
ATOM     10  C   UNL     1      50.141   4.910  17.849  0.00  0.00    +0.000 C 
ATOM     11  O   UNL     1      50.896   4.316  17.090  0.00  0.00    +0.000 OA
ATOM     12  H   UNL     1      49.323   6.738  18.389  0.00  0.00    +0.000 HD
BRANCH  10  13
ATOM     13  C   UNL     1      49.103   4.218  18.730  0.00  0.00    +0.000 C 
ATOM     14  C   UNL     1      48.512   2.971  18.106  0.00  0.00    +0.000 C 
ATOM     15  C   UNL     1      47.280   3.482  17.392  0.00  0.00    +0.000 C 
ATOM     16  O   UNL     1      46.831   4.636  18.102  0.00  0.00    +0.000 OA
ATOM     17  C   UNL     1      47.874   5.074  18.987  0.00  0.00    +0.000 C 
ENDBRANCH  10  13
ENDBRANCH   8   9
ENDBRANCH   5   8
ENDBRANCH   1   2
BRANCH   1  20
ATOM     18  O   UNL     1      45.630   7.758  11.847  0.00  0.00    +0.000 OA
ATOM     19  C   UNL     1      46.275   6.850  11.332  0.00  0.00    +0.000 C 
ATOM     20  N   UNL     1      47.653   6.837  11.338  0.00  0.00    +0.000 N 
ATOM     21  H   UNL     1      48.145   6.211  10.708  0.00  0.00    +0.000 HD
BRANCH  19  22
ATOM     22  C   UNL     1      45.605   5.702  10.710  0.00  0.00    +0.000 A 
ATOM     23  C   UNL     1      45.754   5.458   9.352  0.00  0.00    +0.000 A 
ATOM     24  S   UNL     1      44.922   4.067   8.814  0.00  0.00    +0.000 S 
ATOM     25  C   UNL     1      44.374   3.719  10.390  0.00  0.00    +0.000 A 
ATOM     26  N   UNL     1      43.630   2.611  10.647  0.00  0.00    +0.000 NA
ATOM     27  C   UNL     1      43.320   2.454  11.893  0.00  0.00    +0.000 A 
ATOM     28  N   UNL     1      43.674   3.314  12.898  0.00  0.00    +0.000 N 
ATOM     29  C   UNL     1      44.378   4.472  12.679  0.00  0.00    +0.000 A 
ATOM     30  O   UNL     1      44.603   5.265  13.584  0.00  0.00    +0.000 OA
ATOM     31  C   UNL     1      44.788   4.673  11.300  0.00  0.00    +0.000 A 
ATOM     32  H   UNL     1      43.376   3.150  13.847  0.00  0.00    +0.000 HD
ENDBRANCH  19  22
ENDBRANCH   1  20
TORSDOF 6
ENDMDL
MODEL 8
REMARK VINA RESULT:    -6.826      4.320      5.994
REMARK INTER + INTRA:         -10.346
REMARK INTER:                  -9.153
REMARK INTRA:                  -1.192
REMARK UNBOUND:                -1.125
REMARK  Name = 
REMARK  6 active torsions:
REMARK  status: ('A' for Active; 'I' for Inactive)
REMARK    1  A    between atoms: C_2  and  C_20
REMARK    2  A    between atoms: N_3  and  C_4
REMARK    3  A    between atoms: C_4  and  C_5
REMARK    4  A    between atoms: C_8  and  C_9
REMARK    5  A    between atoms: C_9  and  N_10
REMARK    6  A    between atoms: C_11  and  C_13
REMARK                            x       y       z     vdW  Elec       q    Type
REMARK                         _______ _______ _______ _____ _____    ______ ____
ROOT
ATOM      1  C   UNL     1      48.524   4.944  17.253  0.00  0.00    +0.000 C 
ENDROOT
BRANCH   1   2
ATOM      2  C   UNL     1      48.103   5.385  15.872  0.00  0.00    +0.000 A 
ATOM      3  C   UNL     1      48.644   6.542  15.295  0.00  0.00    +0.000 A 
ATOM      4  C   UNL     1      48.308   6.920  13.987  0.00  0.00    +0.000 A 
ATOM      5  C   UNL     1      47.402   6.161  13.234  0.00  0.00    +0.000 A 
ATOM      6  C   UNL     1      46.851   5.011  13.816  0.00  0.00    +0.000 A 
ATOM      7  C   UNL     1      47.189   4.634  15.123  0.00  0.00    +0.000 A 
BRANCH   5   8
ATOM      8  C   UNL     1      47.041   6.551  11.820  0.00  0.00    +0.000 C 
BRANCH   8   9
ATOM      9  N   UNL     1      45.859   5.854  11.358  0.00  0.00    +0.000 N 
ATOM     10  C   UNL     1      44.628   6.484  11.324  0.00  0.00    +0.000 C 
ATOM     11  O   UNL     1      44.485   7.659  11.639  0.00  0.00    +0.000 OA
ATOM     12  H   UNL     1      45.899   4.846  11.305  0.00  0.00    +0.000 HD
BRANCH  10  13
ATOM     13  C   UNL     1      43.474   5.558  10.951  0.00  0.00    +0.000 C 
ATOM     14  C   UNL     1      42.737   4.992  12.148  0.00  0.00    +0.000 C 
ATOM     15  C   UNL     1      43.446   3.682  12.413  0.00  0.00    +0.000 C 
ATOM     16  O   UNL     1      43.964   3.224  11.164  0.00  0.00    +0.000 OA
ATOM     17  C   UNL     1      43.928   4.304  10.219  0.00  0.00    +0.000 C 
ENDBRANCH  10  13
ENDBRANCH   8   9
ENDBRANCH   5   8
ENDBRANCH   1   2
BRANCH   1  20
ATOM     18  O   UNL     1      49.955   4.661  19.593  0.00  0.00    +0.000 OA
ATOM     19  C   UNL     1      50.508   4.350  18.543  0.00  0.00    +0.000 C 
ATOM     20  N   UNL     1      49.899   4.511  17.319  0.00  0.00    +0.000 N 
ATOM     21  H   UNL     1      50.279   4.032  16.509  0.00  0.00    +0.000 HD
BRANCH  19  22
ATOM     22  C   UNL     1      51.876   3.818  18.536  0.00  0.00    +0.000 A 
ATOM     23  C   UNL     1      52.912   4.546  19.106  0.00  0.00    +0.000 A 
ATOM     24  S   UNL     1      54.425   3.757  19.023  0.00  0.00    +0.000 S 
ATOM     25  C   UNL     1      53.736   2.397  18.263  0.00  0.00    +0.000 A 
ATOM     26  N   UNL     1      54.488   1.309  17.950  0.00  0.00    +0.000 NA
ATOM     27  C   UNL     1      53.825   0.337  17.415  0.00  0.00    +0.000 A 
ATOM     28  N   UNL     1      52.481   0.363  17.152  0.00  0.00    +0.000 N 
ATOM     29  C   UNL     1      51.691   1.457  17.401  0.00  0.00    +0.000 A 
ATOM     30  O   UNL     1      50.511   1.483  17.074  0.00  0.00    +0.000 OA
ATOM     31  C   UNL     1      52.382   2.562  18.042  0.00  0.00    +0.000 A 
ATOM     32  H   UNL     1      52.027  -0.419  16.706  0.00  0.00    +0.000 HD
ENDBRANCH  19  22
ENDBRANCH   1  20
TORSDOF 6
ENDMDL
MODEL 9
REMARK VINA RESULT:    -6.516      4.313      7.902
REMARK INTER + INTRA:          -9.927
REMARK INTER:                  -8.833
REMARK INTRA:                  -1.094
REMARK UNBOUND:                -1.125
REMARK  Name = 
REMARK  6 active torsions:
REMARK  status: ('A' for Active; 'I' for Inactive)
REMARK    1  A    between atoms: C_2  and  C_20
REMARK    2  A    between atoms: N_3  and  C_4
REMARK    3  A    between atoms: C_4  and  C_5
REMARK    4  A    between atoms: C_8  and  C_9
REMARK    5  A    between atoms: C_9  and  N_10
REMARK    6  A    between atoms: C_11  and  C_13
REMARK                            x       y       z     vdW  Elec       q    Type
REMARK                         _______ _______ _______ _____ _____    ______ ____
ROOT
ATOM      1  C   UNL     1      46.304   8.315  12.639  0.00  0.00    +0.000 C 
ENDROOT
BRANCH   1   2
ATOM      2  C   UNL     1      47.728   8.587  12.218  0.00  0.00    +0.000 A 
ATOM      3  C   UNL     1      48.575   7.535  11.840  0.00  0.00    +0.000 A 
ATOM      4  C   UNL     1      49.876   7.787  11.382  0.00  0.00    +0.000 A 
ATOM      5  C   UNL     1      50.370   9.097  11.316  0.00  0.00    +0.000 A 
ATOM      6  C   UNL     1      49.527  10.147  11.706  0.00  0.00    +0.000 A 
ATOM      7  C   UNL     1      48.226   9.894  12.162  0.00  0.00    +0.000 A 
BRANCH   5   8
ATOM      8  C   UNL     1      51.765   9.382  10.815  0.00  0.00    +0.000 C 
BRANCH   8   9
ATOM      9  N   UNL     1      52.222   8.362   9.894  0.00  0.00    +0.000 N 
ATOM     10  C   UNL     1      53.572   8.135   9.696  0.00  0.00    +0.000 C 
ATOM     11  O   UNL     1      54.436   8.748  10.310  0.00  0.00    +0.000 OA
ATOM     12  H   UNL     1      51.557   8.002   9.224  0.00  0.00    +0.000 HD
BRANCH  10  13
ATOM     13  C   UNL     1      53.869   7.129   8.587  0.00  0.00    +0.000 C 
ATOM     14  C   UNL     1      54.397   7.763   7.317  0.00  0.00    +0.000 C 
ATOM     15  C   UNL     1      53.150   8.005   6.496  0.00  0.00    +0.000 C 
ATOM     16  O   UNL     1      52.197   7.013   6.877  0.00  0.00    +0.000 OA
ATOM     17  C   UNL     1      52.629   6.396   8.099  0.00  0.00    +0.000 C 
ENDBRANCH  10  13
ENDBRANCH   8   9
ENDBRANCH   5   8
ENDBRANCH   1   2
BRANCH   1  20
ATOM     18  O   UNL     1      44.055   7.559  11.234  0.00  0.00    +0.000 OA
ATOM     19  C   UNL     1      44.785   6.672  11.665  0.00  0.00    +0.000 C 
ATOM     20  N   UNL     1      45.898   6.947  12.429  0.00  0.00    +0.000 N 
ATOM     21  H   UNL     1      46.598   6.224  12.563  0.00  0.00    +0.000 HD
BRANCH  19  22
ATOM     22  C   UNL     1      44.487   5.256  11.417  0.00  0.00    +0.000 A 
ATOM     23  C   UNL     1      43.704   4.540  12.311  0.00  0.00    +0.000 A 
ATOM     24  S   UNL     1      43.446   2.918  11.844  0.00  0.00    +0.000 S 
ATOM     25  C   UNL     1      44.335   3.133  10.407  0.00  0.00    +0.000 A 
ATOM     26  N   UNL     1      44.470   2.125   9.505  0.00  0.00    +0.000 NA
ATOM     27  C   UNL     1      45.135   2.444   8.443  0.00  0.00    +0.000 A 
ATOM     28  N   UNL     1      45.690   3.674   8.212  0.00  0.00    +0.000 N 
ATOM     29  C   UNL     1      45.627   4.705   9.116  0.00  0.00    +0.000 A 
ATOM     30  O   UNL     1      46.208   5.765   8.920  0.00  0.00    +0.000 OA
ATOM     31  C   UNL     1      44.851   4.411  10.309  0.00  0.00    +0.000 A 
ATOM     32  H   UNL     1      46.223   3.852   7.375  0.00  0.00    +0.000 HD
ENDBRANCH  19  22
ENDBRANCH   1  20
TORSDOF 6
ENDMDL
