MODEL 1
REMARK VINA RESULT:    -7.957      0.000      0.000
REMARK INTER + INTRA:         -11.648
REMARK INTER:                 -10.747
REMARK INTRA:                  -0.901
REMARK UNBOUND:                -0.901
REMARK  Name = 
REMARK  6 active torsions:
REMARK  status: ('A' for Active; 'I' for Inactive)
REMARK    1  A    between atoms: C_5  and  O_6
REMARK    2  A    between atoms: O_6  and  C_7
REMARK    3  A    between atoms: C_7  and  C_8
REMARK    4  A    between atoms: C_8  and  C_11
REMARK    5  A    between atoms: C_15  and  O_16
REMARK    6  A    between atoms: O_16  and  C_17
REMARK                            x       y       z     vdW  Elec       q    Type
REMARK                         _______ _______ _______ _____ _____    ______ ____
ROOT
ATOM      1  C   UNL     1      43.909   4.197  12.187  0.00  0.00    +0.000 C 
ATOM      2  F   UNL     1      42.859   4.797  12.821  0.00  0.00    +0.000 F 
ATOM      3  F   UNL     1      43.919   2.908  12.640  0.00  0.00    +0.000 F 
ENDROOT
BRANCH   1   4
ATOM      4  C   UNL     1      45.214   4.902  12.478  0.00  0.00    +0.000 A 
ATOM      5  C   UNL     1      45.705   5.878  11.619  0.00  0.00    +0.000 A 
ATOM      6  N   UNL     1      46.844   6.576  11.839  0.00  0.00    +0.000 NA
ATOM      7  C   UNL     1      47.547   6.275  12.958  0.00  0.00    +0.000 A 
ATOM      8  C   UNL     1      47.163   5.302  13.869  0.00  0.00    +0.000 A 
ATOM      9  C   UNL     1      45.969   4.621  13.624  0.00  0.00    +0.000 A 
BRANCH   8  10
ATOM     10  O   UNL     1      47.831   4.966  15.015  0.00  0.00    +0.000 OA
BRANCH  10  11
ATOM     11  C   UNL     1      47.241   3.991  15.907  0.00  0.00    +0.000 C 
ATOM     12  C   UNL     1      47.184   4.357  17.413  0.00  0.00    +0.000 C 
ATOM     13  C   UNL     1      47.674   2.939  17.743  0.00  0.00    +0.000 C 
ATOM     14  C   UNL     1      48.191   2.831  16.301  0.00  0.00    +0.000 C 
ENDBRANCH  10  11
ENDBRANCH   8  10
ENDBRANCH   1   4
BRANCH   1  15
ATOM     15  C   UNL     1      43.626   4.183  10.675  0.00  0.00    +0.000 C 
BRANCH  15  16
ATOM     16  O   UNL     1      43.794   2.868  10.106  0.00  0.00    +0.000 OA
BRANCH  16  21
ATOM     17  F   UNL     1      47.616   2.942   6.283  0.00  0.00    +0.000 F 
ATOM     18  C   UNL     1      46.670   2.948   7.233  0.00  0.00    +0.000 A 
ATOM     19  C   UNL     1      46.385   1.776   7.913  0.00  0.00    +0.000 A 
ATOM     20  N   UNL     1      45.439   1.698   8.880  0.00  0.00    +0.000 NA
ATOM     21  C   UNL     1      44.781   2.853   9.141  0.00  0.00    +0.000 A 
ATOM     22  C   UNL     1      45.073   4.032   8.458  0.00  0.00    +0.000 A 
ATOM     23  N   UNL     1      46.023   4.105   7.487  0.00  0.00    +0.000 NA
ENDBRANCH  16  21
ENDBRANCH  15  16
ENDBRANCH   1  15
TORSDOF 6
ENDMDL
MODEL 2
REMARK VINA RESULT:    -7.276      2.305      3.489
REMARK INTER + INTRA:         -10.729
REMARK INTER:                 -10.015
REMARK INTRA:                  -0.713
REMARK UNBOUND:                -0.901
REMARK  Name = 
REMARK  6 active torsions:
REMARK  status: ('A' for Active; 'I' for Inactive)
REMARK    1  A    between atoms: C_5  and  O_6
REMARK    2  A    between atoms: O_6  and  C_7
REMARK    3  A    between atoms: C_7  and  C_8
REMARK    4  A    between atoms: C_8  and  C_11
REMARK    5  A    between atoms: C_15  and  O_16
REMARK    6  A    between atoms: O_16  and  C_17
REMARK                            x       y       z     vdW  Elec       q    Type
REMARK                         _______ _______ _______ _____ _____    ______ ____
ROOT
ATOM      1  C   UNL     1      43.705   4.219  11.038  0.00  0.00    +0.000 C 
ATOM      2  F   UNL     1      42.680   5.120  10.973  0.00  0.00    +0.000 F 
ATOM      3  F   UNL     1      43.177   3.112  11.639  0.00  0.00    +0.000 F 
ENDROOT
BRANCH   1   4
ATOM      4  C   UNL     1      44.883   4.767  11.810  0.00  0.00    +0.000 A 
ATOM      5  C   UNL     1      45.423   4.064  12.881  0.00  0.00    +0.000 A 
ATOM      6  N   UNL     1      46.500   4.477  13.591  0.00  0.00    +0.000 NA
ATOM      7  C   UNL     1      47.059   5.660  13.234  0.00  0.00    +0.000 A 
ATOM      8  C   UNL     1      46.585   6.453  12.200  0.00  0.00    +0.000 A 
ATOM      9  C   UNL     1      45.489   5.983  11.473  0.00  0.00    +0.000 A 
BRANCH   8  10
ATOM     10  O   UNL     1      47.116   7.648  11.796  0.00  0.00    +0.000 OA
BRANCH  10  11
ATOM     11  C   UNL     1      48.407   8.049  12.312  0.00  0.00    +0.000 C 
ATOM     12  C   UNL     1      48.843   9.515  12.061  0.00  0.00    +0.000 C 
ATOM     13  C   UNL     1      50.235   9.001  11.665  0.00  0.00    +0.000 C 
ATOM     14  C   UNL     1      49.607   7.619  11.428  0.00  0.00    +0.000 C 
ENDBRANCH  10  11
ENDBRANCH   8  10
ENDBRANCH   1   4
BRANCH   1  15
ATOM     15  C   UNL     1      44.121   3.847   9.605  0.00  0.00    +0.000 C 
BRANCH  15  16
ATOM     16  O   UNL     1      44.610   2.492   9.519  0.00  0.00    +0.000 OA
BRANCH  16  21
ATOM     17  F   UNL     1      48.181   2.050   5.484  0.00  0.00    +0.000 F 
ATOM     18  C   UNL     1      47.296   2.184   6.483  0.00  0.00    +0.000 A 
ATOM     19  C   UNL     1      47.052   1.108   7.320  0.00  0.00    +0.000 A 
ATOM     20  N   UNL     1      46.169   1.161   8.347  0.00  0.00    +0.000 NA
ATOM     21  C   UNL     1      45.533   2.347   8.503  0.00  0.00    +0.000 A 
ATOM     22  C   UNL     1      45.785   3.429   7.662  0.00  0.00    +0.000 A 
ATOM     23  N   UNL     1      46.671   3.370   6.633  0.00  0.00    +0.000 NA
ENDBRANCH  16  21
ENDBRANCH  15  16
ENDBRANCH   1  15
TORSDOF 6
ENDMDL
MODEL 3
REMARK VINA RESULT:    -7.260      2.783      7.526
REMARK INTER + INTRA:         -10.707
REMARK INTER:                 -10.101
REMARK INTRA:                  -0.605
REMARK UNBOUND:                -0.901
REMARK  Name = 
REMARK  6 active torsions:
REMARK  status: ('A' for Active; 'I' for Inactive)
REMARK    1  A    between atoms: C_5  and  O_6
REMARK    2  A    between atoms: O_6  and  C_7
REMARK    3  A    between atoms: C_7  and  C_8
REMARK    4  A    between atoms: C_8  and  C_11
REMARK    5  A    between atoms: C_15  and  O_16
REMARK    6  A    between atoms: O_16  and  C_17
REMARK                            x       y       z     vdW  Elec       q    Type
REMARK                         _______ _______ _______ _____ _____    ______ ____
ROOT
ATOM      1  C   UNL     1      45.824   6.343  11.791  0.00  0.00    +0.000 C 
ATOM      2  F   UNL     1      44.951   7.394  11.791  0.00  0.00    +0.000 F 
ATOM      3  F   UNL     1      46.993   6.843  11.291  0.00  0.00    +0.000 F 
ENDROOT
BRANCH   1   4
ATOM      4  C   UNL     1      45.308   5.189  10.962  0.00  0.00    +0.000 A 
ATOM      5  C   UNL     1      44.524   4.195  11.533  0.00  0.00    +0.000 A 
ATOM      6  N   UNL     1      43.997   3.156  10.842  0.00  0.00    +0.000 NA
ATOM      7  C   UNL     1      44.281   3.087   9.518  0.00  0.00    +0.000 A 
ATOM      8  C   UNL     1      45.073   4.010   8.853  0.00  0.00    +0.000 A 
ATOM      9  C   UNL     1      45.578   5.083   9.591  0.00  0.00    +0.000 A 
BRANCH   8  10
ATOM     10  O   UNL     1      45.383   3.990   7.520  0.00  0.00    +0.000 OA
BRANCH  10  11
ATOM     11  C   UNL     1      46.691   3.522   7.114  0.00  0.00    +0.000 C 
ATOM     12  C   UNL     1      46.853   3.075   5.638  0.00  0.00    +0.000 C 
ATOM     13  C   UNL     1      47.625   1.841   6.131  0.00  0.00    +0.000 C 
ATOM     14  C   UNL     1      46.995   2.055   7.514  0.00  0.00    +0.000 C 
ENDBRANCH  10  11
ENDBRANCH   8  10
ENDBRANCH   1   4
BRANCH   1  15
ATOM     15  C   UNL     1      46.061   5.903  13.245  0.00  0.00    +0.000 C 
BRANCH  15  16
ATOM     16  O   UNL     1      47.461   5.920  13.593  0.00  0.00    +0.000 OA
BRANCH  16  21
ATOM     17  F   UNL     1      48.219   3.629  18.431  0.00  0.00    +0.000 F 
ATOM     18  C   UNL     1      48.020   4.176  17.223  0.00  0.00    +0.000 A 
ATOM     19  C   UNL     1      48.751   5.294  16.858  0.00  0.00    +0.000 A 
ATOM     20  N   UNL     1      48.605   5.910  15.660  0.00  0.00    +0.000 NA
ATOM     21  C   UNL     1      47.685   5.356  14.833  0.00  0.00    +0.000 A 
ATOM     22  C   UNL     1      46.954   4.229  15.202  0.00  0.00    +0.000 A 
ATOM     23  N   UNL     1      47.105   3.615  16.406  0.00  0.00    +0.000 NA
ENDBRANCH  16  21
ENDBRANCH  15  16
ENDBRANCH   1  15
TORSDOF 6
ENDMDL
MODEL 4
REMARK VINA RESULT:    -7.115      2.358      4.088
REMARK INTER + INTRA:         -10.511
REMARK INTER:                  -9.730
REMARK INTRA:                  -0.781
REMARK UNBOUND:                -0.901
REMARK  Name = 
REMARK  6 active torsions:
REMARK  status: ('A' for Active; 'I' for Inactive)
REMARK    1  A    between atoms: C_5  and  O_6
REMARK    2  A    between atoms: O_6  and  C_7
REMARK    3  A    between atoms: C_7  and  C_8
REMARK    4  A    between atoms: C_8  and  C_11
REMARK    5  A    between atoms: C_15  and  O_16
REMARK    6  A    between atoms: O_16  and  C_17
REMARK                            x       y       z     vdW  Elec       q    Type
REMARK                         _______ _______ _______ _____ _____    ______ ____
ROOT
ATOM      1  C   UNL     1      43.521   3.850  11.883  0.00  0.00    +0.000 C 
ATOM      2  F   UNL     1      42.419   4.573  11.523  0.00  0.00    +0.000 F 
ATOM      3  F   UNL     1      43.089   2.989  12.851  0.00  0.00    +0.000 F 
ENDROOT
BRANCH   1   4
ATOM      4  C   UNL     1      44.635   4.741  12.382  0.00  0.00    +0.000 A 
ATOM      5  C   UNL     1      45.880   4.213  12.704  0.00  0.00    +0.000 A 
ATOM      6  N   UNL     1      46.933   4.957  13.119  0.00  0.00    +0.000 NA
ATOM      7  C   UNL     1      46.735   6.293  13.242  0.00  0.00    +0.000 A 
ATOM      8  C   UNL     1      45.527   6.920  12.973  0.00  0.00    +0.000 A 
ATOM      9  C   UNL     1      44.471   6.125  12.522  0.00  0.00    +0.000 A 
BRANCH   8  10
ATOM     10  O   UNL     1      45.279   8.262  13.074  0.00  0.00    +0.000 OA
BRANCH  10  11
ATOM     11  C   UNL     1      45.535   9.108  11.929  0.00  0.00    +0.000 C 
ATOM     12  C   UNL     1      46.632  10.192  12.084  0.00  0.00    +0.000 C 
ATOM     13  C   UNL     1      45.690  11.198  11.406  0.00  0.00    +0.000 C 
ATOM     14  C   UNL     1      44.519  10.267  11.754  0.00  0.00    +0.000 C 
ENDBRANCH  10  11
ENDBRANCH   8  10
ENDBRANCH   1   4
BRANCH   1  15
ATOM     15  C   UNL     1      43.985   3.029  10.669  0.00  0.00    +0.000 C 
BRANCH  15  16
ATOM     16  O   UNL     1      44.194   3.856   9.505  0.00  0.00    +0.000 OA
BRANCH  16  21
ATOM     17  F   UNL     1      48.004   1.687   6.341  0.00  0.00    +0.000 F 
ATOM     18  C   UNL     1      47.052   2.202   7.132  0.00  0.00    +0.000 A 
ATOM     19  C   UNL     1      46.696   3.532   6.984  0.00  0.00    +0.000 A 
ATOM     20  N   UNL     1      45.749   4.129   7.747  0.00  0.00    +0.000 NA
ATOM     21  C   UNL     1      45.166   3.332   8.675  0.00  0.00    +0.000 A 
ATOM     22  C   UNL     1      45.523   1.994   8.819  0.00  0.00    +0.000 A 
ATOM     23  N   UNL     1      46.475   1.399   8.050  0.00  0.00    +0.000 NA
ENDBRANCH  16  21
ENDBRANCH  15  16
ENDBRANCH   1  15
TORSDOF 6
ENDMDL
MODEL 5
REMARK VINA RESULT:    -6.969      2.000      2.549
REMARK INTER + INTRA:         -10.314
REMARK INTER:                  -9.666
REMARK INTRA:                  -0.648
REMARK UNBOUND:                -0.901
REMARK  Name = 
REMARK  6 active torsions:
REMARK  status: ('A' for Active; 'I' for Inactive)
REMARK    1  A    between atoms: C_5  and  O_6
REMARK    2  A    between atoms: O_6  and  C_7
REMARK    3  A    between atoms: C_7  and  C_8
REMARK    4  A    between atoms: C_8  and  C_11
REMARK    5  A    between atoms: C_15  and  O_16
REMARK    6  A    between atoms: O_16  and  C_17
REMARK                            x       y       z     vdW  Elec       q    Type
REMARK                         _______ _______ _______ _____ _____    ______ ____
ROOT
ATOM      1  C   UNL     1      43.488   4.063  11.793  0.00  0.00    +0.000 C 
ATOM      2  F   UNL     1      42.237   4.479  11.437  0.00  0.00    +0.000 F 
ATOM      3  F   UNL     1      43.311   3.288  12.904  0.00  0.00    +0.000 F 
ENDROOT
BRANCH   1   4
ATOM      4  C   UNL     1      44.408   5.230  12.066  0.00  0.00    +0.000 A 
ATOM      5  C   UNL     1      44.112   6.500  11.584  0.00  0.00    +0.000 A 
ATOM      6  N   UNL     1      44.870   7.596  11.824  0.00  0.00    +0.000 NA
ATOM      7  C   UNL     1      45.994   7.420  12.562  0.00  0.00    +0.000 A 
ATOM      8  C   UNL     1      46.397   6.194  13.070  0.00  0.00    +0.000 A 
ATOM      9  C   UNL     1      45.577   5.091  12.826  0.00  0.00    +0.000 A 
BRANCH   8  10
ATOM     10  O   UNL     1      47.515   5.966  13.826  0.00  0.00    +0.000 OA
BRANCH  10  11
ATOM     11  C   UNL     1      48.295   7.097  14.279  0.00  0.00    +0.000 C 
ATOM     12  C   UNL     1      49.607   7.402  13.512  0.00  0.00    +0.000 C 
ATOM     13  C   UNL     1      50.313   7.600  14.862  0.00  0.00    +0.000 C 
ATOM     14  C   UNL     1      49.176   6.806  15.522  0.00  0.00    +0.000 C 
ENDBRANCH  10  11
ENDBRANCH   8  10
ENDBRANCH   1   4
BRANCH   1  15
ATOM     15  C   UNL     1      44.050   3.181  10.666  0.00  0.00    +0.000 C 
BRANCH  15  16
ATOM     16  O   UNL     1      44.187   3.909   9.427  0.00  0.00    +0.000 OA
BRANCH  16  21
ATOM     17  F   UNL     1      48.110   1.733   6.410  0.00  0.00    +0.000 F 
ATOM     18  C   UNL     1      47.129   2.250   7.163  0.00  0.00    +0.000 A 
ATOM     19  C   UNL     1      46.817   3.593   7.040  0.00  0.00    +0.000 A 
ATOM     20  N   UNL     1      45.844   4.193   7.768  0.00  0.00    +0.000 NA
ATOM     21  C   UNL     1      45.189   3.384   8.636  0.00  0.00    +0.000 A 
ATOM     22  C   UNL     1      45.503   2.032   8.755  0.00  0.00    +0.000 A 
ATOM     23  N   UNL     1      46.481   1.435   8.022  0.00  0.00    +0.000 NA
ENDBRANCH  16  21
ENDBRANCH  15  16
ENDBRANCH   1  15
TORSDOF 6
ENDMDL
MODEL 6
REMARK VINA RESULT:    -6.766      2.943      7.138
REMARK INTER + INTRA:         -10.040
REMARK INTER:                  -9.301
REMARK INTRA:                  -0.739
REMARK UNBOUND:                -0.901
REMARK  Name = 
REMARK  6 active torsions:
REMARK  status: ('A' for Active; 'I' for Inactive)
REMARK    1  A    between atoms: C_5  and  O_6
REMARK    2  A    between atoms: O_6  and  C_7
REMARK    3  A    between atoms: C_7  and  C_8
REMARK    4  A    between atoms: C_8  and  C_11
REMARK    5  A    between atoms: C_15  and  O_16
REMARK    6  A    between atoms: O_16  and  C_17
REMARK                            x       y       z     vdW  Elec       q    Type
REMARK                         _______ _______ _______ _____ _____    ______ ____
ROOT
ATOM      1  C   UNL     1      44.798   6.116  11.873  0.00  0.00    +0.000 C 
ATOM      2  F   UNL     1      43.549   6.478  12.290  0.00  0.00    +0.000 F 
ATOM      3  F   UNL     1      45.336   7.242  11.318  0.00  0.00    +0.000 F 
ENDROOT
BRANCH   1   4
ATOM      4  C   UNL     1      44.749   4.974  10.885  0.00  0.00    +0.000 A 
ATOM      5  C   UNL     1      44.047   3.809  11.175  0.00  0.00    +0.000 A 
ATOM      6  N   UNL     1      43.928   2.765  10.322  0.00  0.00    +0.000 NA
ATOM      7  C   UNL     1      44.557   2.871   9.125  0.00  0.00    +0.000 A 
ATOM      8  C   UNL     1      45.305   3.975   8.744  0.00  0.00    +0.000 A 
ATOM      9  C   UNL     1      45.383   5.044   9.638  0.00  0.00    +0.000 A 
BRANCH   8  10
ATOM     10  O   UNL     1      45.951   4.134   7.548  0.00  0.00    +0.000 OA
BRANCH  10  11
ATOM     11  C   UNL     1      46.251   2.961   6.755  0.00  0.00    +0.000 C 
ATOM     12  C   UNL     1      47.537   2.175   7.117  0.00  0.00    +0.000 C 
ATOM     13  C   UNL     1      47.869   2.090   5.620  0.00  0.00    +0.000 C 
ATOM     14  C   UNL     1      46.915   3.270   5.388  0.00  0.00    +0.000 C 
ENDBRANCH  10  11
ENDBRANCH   8  10
ENDBRANCH   1   4
BRANCH   1  15
ATOM     15  C   UNL     1      45.633   5.731  13.106  0.00  0.00    +0.000 C 
BRANCH  15  16
ATOM     16  O   UNL     1      46.955   5.282  12.745  0.00  0.00    +0.000 OA
BRANCH  16  21
ATOM     17  F   UNL     1      50.816   8.620  14.527  0.00  0.00    +0.000 F 
ATOM     18  C   UNL     1      49.857   7.806  14.065  0.00  0.00    +0.000 A 
ATOM     19  C   UNL     1      49.220   6.945  14.942  0.00  0.00    +0.000 A 
ATOM     20  N   UNL     1      48.246   6.087  14.553  0.00  0.00    +0.000 NA
ATOM     21  C   UNL     1      47.932   6.126  13.235  0.00  0.00    +0.000 A 
ATOM     22  C   UNL     1      48.572   6.998  12.356  0.00  0.00    +0.000 A 
ATOM     23  N   UNL     1      49.549   7.856  12.752  0.00  0.00    +0.000 NA
ENDBRANCH  16  21
ENDBRANCH  15  16
ENDBRANCH   1  15
TORSDOF 6
ENDMDL
MODEL 7
REMARK VINA RESULT:    -6.391      3.372      7.574
REMARK INTER + INTRA:          -9.534
REMARK INTER:                  -9.063
REMARK INTRA:                  -0.471
REMARK UNBOUND:                -0.901
REMARK  Name = 
REMARK  6 active torsions:
REMARK  status: ('A' for Active; 'I' for Inactive)
REMARK    1  A    between atoms: C_5  and  O_6
REMARK    2  A    between atoms: O_6  and  C_7
REMARK    3  A    between atoms: C_7  and  C_8
REMARK    4  A    between atoms: C_8  and  C_11
REMARK    5  A    between atoms: C_15  and  O_16
REMARK    6  A    between atoms: O_16  and  C_17
REMARK                            x       y       z     vdW  Elec       q    Type
REMARK                         _______ _______ _______ _____ _____    ______ ____
ROOT
ATOM      1  C   UNL     1      46.803   4.502  13.394  0.00  0.00    +0.000 C 
ATOM      2  F   UNL     1      47.719   5.381  12.890  0.00  0.00    +0.000 F 
ATOM      3  F   UNL     1      47.398   3.275  13.319  0.00  0.00    +0.000 F 
ENDROOT
BRANCH   1   4
ATOM      4  C   UNL     1      45.506   4.543  12.620  0.00  0.00    +0.000 A 
ATOM      5  C   UNL     1      44.283   4.588  13.279  0.00  0.00    +0.000 A 
ATOM      6  N   UNL     1      43.086   4.667  12.650  0.00  0.00    +0.000 NA
ATOM      7  C   UNL     1      43.101   4.677  11.294  0.00  0.00    +0.000 A 
ATOM      8  C   UNL     1      44.261   4.610  10.537  0.00  0.00    +0.000 A 
ATOM      9  C   UNL     1      45.478   4.558  11.220  0.00  0.00    +0.000 A 
BRANCH   8  10
ATOM     10  O   UNL     1      44.330   4.625   9.170  0.00  0.00    +0.000 OA
BRANCH  10  11
ATOM     11  C   UNL     1      44.527   3.377   8.467  0.00  0.00    +0.000 C 
ATOM     12  C   UNL     1      44.904   2.138   9.320  0.00  0.00    +0.000 C 
ATOM     13  C   UNL     1      45.974   1.784   8.276  0.00  0.00    +0.000 C 
ATOM     14  C   UNL     1      45.915   3.239   7.789  0.00  0.00    +0.000 C 
ENDBRANCH  10  11
ENDBRANCH   8  10
ENDBRANCH   1   4
BRANCH   1  15
ATOM     15  C   UNL     1      46.563   4.840  14.875  0.00  0.00    +0.000 C 
BRANCH  15  16
ATOM     16  O   UNL     1      46.695   3.680  15.722  0.00  0.00    +0.000 OA
BRANCH  16  21
ATOM     17  F   UNL     1      50.777   4.326  19.208  0.00  0.00    +0.000 F 
ATOM     18  C   UNL     1      49.751   4.181  18.357  0.00  0.00    +0.000 A 
ATOM     19  C   UNL     1      49.751   3.116  17.472  0.00  0.00    +0.000 A 
ATOM     20  N   UNL     1      48.756   2.903  16.577  0.00  0.00    +0.000 NA
ATOM     21  C   UNL     1      47.750   3.811  16.604  0.00  0.00    +0.000 A 
ATOM     22  C   UNL     1      47.751   4.879  17.498  0.00  0.00    +0.000 A 
ATOM     23  N   UNL     1      48.753   5.088  18.394  0.00  0.00    +0.000 NA
ENDBRANCH  16  21
ENDBRANCH  15  16
ENDBRANCH   1  15
TORSDOF 6
ENDMDL
MODEL 8
REMARK VINA RESULT:    -6.276      3.104      6.554
REMARK INTER + INTRA:          -9.378
REMARK INTER:                  -8.770
REMARK INTRA:                  -0.608
REMARK UNBOUND:                -0.901
REMARK  Name = 
REMARK  6 active torsions:
REMARK  status: ('A' for Active; 'I' for Inactive)
REMARK    1  A    between atoms: C_5  and  O_6
REMARK    2  A    between atoms: O_6  and  C_7
REMARK    3  A    between atoms: C_7  and  C_8
REMARK    4  A    between atoms: C_8  and  C_11
REMARK    5  A    between atoms: C_15  and  O_16
REMARK    6  A    between atoms: O_16  and  C_17
REMARK                            x       y       z     vdW  Elec       q    Type
REMARK                         _______ _______ _______ _____ _____    ______ ____
ROOT
ATOM      1  C   UNL     1      46.544   4.567  13.791  0.00  0.00    +0.000 C 
ATOM      2  F   UNL     1      47.572   3.749  13.419  0.00  0.00    +0.000 F 
ATOM      3  F   UNL     1      46.307   4.279  15.105  0.00  0.00    +0.000 F 
ENDROOT
BRANCH   1   4
ATOM      4  C   UNL     1      45.316   4.343  12.939  0.00  0.00    +0.000 A 
ATOM      5  C   UNL     1      44.139   5.040  13.187  0.00  0.00    +0.000 A 
ATOM      6  N   UNL     1      43.016   4.918  12.440  0.00  0.00    +0.000 NA
ATOM      7  C   UNL     1      43.053   4.041  11.407  0.00  0.00    +0.000 A 
ATOM      8  C   UNL     1      44.165   3.276  11.087  0.00  0.00    +0.000 A 
ATOM      9  C   UNL     1      45.314   3.448  11.862  0.00  0.00    +0.000 A 
BRANCH   8  10
ATOM     10  O   UNL     1      44.256   2.385  10.053  0.00  0.00    +0.000 OA
BRANCH  10  11
ATOM     11  C   UNL     1      44.575   2.880   8.731  0.00  0.00    +0.000 C 
ATOM     12  C   UNL     1      45.886   2.366   8.083  0.00  0.00    +0.000 C 
ATOM     13  C   UNL     1      46.198   3.806   7.648  0.00  0.00    +0.000 C 
ATOM     14  C   UNL     1      45.210   4.295   8.716  0.00  0.00    +0.000 C 
ENDBRANCH  10  11
ENDBRANCH   8  10
ENDBRANCH   1   4
BRANCH   1  15
ATOM     15  C   UNL     1      47.017   6.026  13.687  0.00  0.00    +0.000 C 
BRANCH  15  16
ATOM     16  O   UNL     1      47.136   6.460  12.316  0.00  0.00    +0.000 OA
BRANCH  16  21
ATOM     17  F   UNL     1      45.322  11.513  11.682  0.00  0.00    +0.000 F 
ATOM     18  C   UNL     1      45.795  10.268  11.836  0.00  0.00    +0.000 A 
ATOM     19  C   UNL     1      44.929   9.195  11.713  0.00  0.00    +0.000 A 
ATOM     20  N   UNL     1      45.326   7.908  11.861  0.00  0.00    +0.000 NA
ATOM     21  C   UNL     1      46.641   7.736  12.141  0.00  0.00    +0.000 A 
ATOM     22  C   UNL     1      47.511   8.818  12.259  0.00  0.00    +0.000 A 
ATOM     23  N   UNL     1      47.106  10.108  12.111  0.00  0.00    +0.000 NA
ENDBRANCH  16  21
ENDBRANCH  15  16
ENDBRANCH   1  15
TORSDOF 6
ENDMDL
MODEL 9
REMARK VINA RESULT:    -6.207      3.352      7.298
REMARK INTER + INTRA:          -9.285
REMARK INTER:                  -8.548
REMARK INTRA:                  -0.737
REMARK UNBOUND:                -0.901
REMARK  Name = 
REMARK  6 active torsions:
REMARK  status: ('A' for Active; 'I' for Inactive)
REMARK    1  A    between atoms: C_5  and  O_6
REMARK    2  A    between atoms: O_6  and  C_7
REMARK    3  A    between atoms: C_7  and  C_8
REMARK    4  A    between atoms: C_8  and  C_11
REMARK    5  A    between atoms: C_15  and  O_16
REMARK    6  A    between atoms: O_16  and  C_17
REMARK                            x       y       z     vdW  Elec       q    Type
REMARK                         _______ _______ _______ _____ _____    ______ ____
ROOT
ATOM      1  C   UNL     1      46.522   4.420  13.684  0.00  0.00    +0.000 C 
ATOM      2  F   UNL     1      47.178   3.223  13.717  0.00  0.00    +0.000 F 
ATOM      3  F   UNL     1      46.204   4.696  14.983  0.00  0.00    +0.000 F 
ENDROOT
BRANCH   1   4
ATOM      4  C   UNL     1      45.292   4.359  12.808  0.00  0.00    +0.000 A 
ATOM      5  C   UNL     1      44.094   4.930  13.220  0.00  0.00    +0.000 A 
ATOM      6  N   UNL     1      42.967   4.947  12.469  0.00  0.00    +0.000 NA
ATOM      7  C   UNL     1      43.023   4.346  11.255  0.00  0.00    +0.000 A 
ATOM      8  C   UNL     1      44.158   3.724  10.757  0.00  0.00    +0.000 A 
ATOM      9  C   UNL     1      45.310   3.749  11.547  0.00  0.00    +0.000 A 
BRANCH   8  10
ATOM     10  O   UNL     1      44.269   3.111   9.539  0.00  0.00    +0.000 OA
BRANCH  10  11
ATOM     11  C   UNL     1      45.572   3.027   8.915  0.00  0.00    +0.000 C 
ATOM     12  C   UNL     1      45.680   3.495   7.442  0.00  0.00    +0.000 C 
ATOM     13  C   UNL     1      46.519   2.244   7.139  0.00  0.00    +0.000 C 
ATOM     14  C   UNL     1      45.948   1.608   8.414  0.00  0.00    +0.000 C 
ENDBRANCH  10  11
ENDBRANCH   8  10
ENDBRANCH   1   4
BRANCH   1  15
ATOM     15  C   UNL     1      47.496   5.498  13.178  0.00  0.00    +0.000 C 
BRANCH  15  16
ATOM     16  O   UNL     1      47.508   6.659  14.035  0.00  0.00    +0.000 OA
BRANCH  16  21
ATOM     17  F   UNL     1      52.427   7.536  16.101  0.00  0.00    +0.000 F 
ATOM     18  C   UNL     1      51.210   7.339  15.575  0.00  0.00    +0.000 A 
ATOM     19  C   UNL     1      50.327   6.483  16.212  0.00  0.00    +0.000 A 
ATOM     20  N   UNL     1      49.083   6.225  15.741  0.00  0.00    +0.000 NA
ATOM     21  C   UNL     1      48.754   6.866  14.594  0.00  0.00    +0.000 A 
ATOM     22  C   UNL     1      49.642   7.730  13.958  0.00  0.00    +0.000 A 
ATOM     23  N   UNL     1      50.890   7.985  14.434  0.00  0.00    +0.000 NA
ENDBRANCH  16  21
ENDBRANCH  15  16
ENDBRANCH   1  15
TORSDOF 6
ENDMDL
