MODEL 1
REMARK VINA RESULT:    -8.586      0.000      0.000
REMARK INTER + INTRA:         -11.152
REMARK INTER:                 -10.593
REMARK INTRA:                  -0.558
REMARK UNBOUND:                -0.558
REMARK  Name = 
REMARK  5 active torsions:
REMARK  status: ('A' for Active; 'I' for Inactive)
REMARK    1  A    between atoms: C_1  and  N_2
REMARK    2  A    between atoms: C_10  and  C_11
REMARK    3  A    between atoms: C_11  and  N_12
REMARK    4  A    between atoms: N_12  and  C_13
REMARK    5  A    between atoms: C_16  and  C_17
REMARK                            x       y       z     vdW  Elec       q    Type
REMARK                         _______ _______ _______ _____ _____    ______ ____
ROOT
ATOM      1  C   UNL     1      43.702   4.958  11.320  0.00  0.00    +0.000 C 
ENDROOT
BRANCH   1  11
ATOM      2  C   UNL     1      48.461   3.511  18.058  0.00  0.00    +0.000 C 
ATOM      3  N   UNL     1      48.544   3.994  16.681  0.00  0.00    +0.000 NA
ATOM      4  C   UNL     1      47.524   3.312  15.847  0.00  0.00    +0.000 C 
ATOM      5  C   UNL     1      47.474   3.843  14.400  0.00  0.00    +0.000 C 
ATOM      6  N   UNL     1      47.268   5.293  14.432  0.00  0.00    +0.000 N 
ATOM      7  C   UNL     1      46.638   5.864  13.355  0.00  0.00    +0.000 A 
ATOM      8  N   UNL     1      46.943   7.113  12.975  0.00  0.00    +0.000 NA
ATOM      9  C   UNL     1      46.216   7.651  11.976  0.00  0.00    +0.000 A 
ATOM     10  C   UNL     1      45.171   7.008  11.358  0.00  0.00    +0.000 A 
ATOM     11  C   UNL     1      44.896   5.743  11.824  0.00  0.00    +0.000 A 
ATOM     12  N   UNL     1      45.641   5.165  12.788  0.00  0.00    +0.000 NA
ATOM     13  C   UNL     1      48.279   6.030  15.184  0.00  0.00    +0.000 C 
ATOM     14  C   UNL     1      48.332   5.462  16.628  0.00  0.00    +0.000 C 
ENDBRANCH   1  11
BRANCH   1  15
ATOM     15  N   UNL     1      43.715   4.805   9.869  0.00  0.00    +0.000 N 
ATOM     16  H   UNL     1      42.804   4.872   9.425  0.00  0.00    +0.000 HD
BRANCH  15  17
ATOM     17  C   UNL     1      44.606   3.937   9.244  0.00  0.00    +0.000 A 
ATOM     18  C   UNL     1      45.516   4.323   8.256  0.00  0.00    +0.000 A 
ATOM     19  C   UNL     1      46.337   3.379   7.632  0.00  0.00    +0.000 A 
ATOM     20  C   UNL     1      46.204   2.048   7.994  0.00  0.00    +0.000 A 
ATOM     21  N   UNL     1      45.304   1.606   8.912  0.00  0.00    +0.000 NA
ATOM     22  C   UNL     1      44.530   2.559   9.490  0.00  0.00    +0.000 A 
BRANCH  20  23
ATOM     23  C   UNL     1      47.076   1.012   7.358  0.00  0.00    +0.000 C 
ATOM     24  N   UNL     1      46.767  -0.283   7.674  0.00  0.00    +0.000 N 
ATOM     25  O   UNL     1      48.007   1.291   6.611  0.00  0.00    +0.000 OA
ATOM     26  H   UNL     1      45.983  -0.471   8.290  0.00  0.00    +0.000 HD
ATOM     27  H   UNL     1      47.307  -1.042   7.283  0.00  0.00    +0.000 HD
ENDBRANCH  20  23
ENDBRANCH  15  17
ENDBRANCH   1  15
TORSDOF 4
ENDMDL
MODEL 2
REMARK VINA RESULT:    -8.500      1.861      3.726
REMARK INTER + INTRA:         -11.046
REMARK INTER:                 -10.521
REMARK INTRA:                  -0.526
REMARK UNBOUND:                -0.558
REMARK  Name = 
REMARK  5 active torsions:
REMARK  status: ('A' for Active; 'I' for Inactive)
REMARK    1  A    between atoms: C_1  and  N_2
REMARK    2  A    between atoms: C_10  and  C_11
REMARK    3  A    between atoms: C_11  and  N_12
REMARK    4  A    between atoms: N_12  and  C_13
REMARK    5  A    between atoms: C_16  and  C_17
REMARK                            x       y       z     vdW  Elec       q    Type
REMARK                         _______ _______ _______ _____ _____    ______ ____
ROOT
ATOM      1  C   UNL     1      43.428   4.623  11.279  0.00  0.00    +0.000 C 
ENDROOT
BRANCH   1  11
ATOM      2  C   UNL     1      48.161  11.516  11.772  0.00  0.00    +0.000 C 
ATOM      3  N   UNL     1      47.603  10.448  12.600  0.00  0.00    +0.000 NA
ATOM      4  C   UNL     1      46.302  10.006  12.041  0.00  0.00    +0.000 C 
ATOM      5  C   UNL     1      45.697   8.807  12.800  0.00  0.00    +0.000 C 
ATOM      6  N   UNL     1      46.675   7.717  12.827  0.00  0.00    +0.000 N 
ATOM      7  C   UNL     1      46.190   6.437  12.911  0.00  0.00    +0.000 A 
ATOM      8  N   UNL     1      46.890   5.487  13.550  0.00  0.00    +0.000 NA
ATOM      9  C   UNL     1      46.408   4.229  13.508  0.00  0.00    +0.000 A 
ATOM     10  C   UNL     1      45.272   3.867  12.826  0.00  0.00    +0.000 A 
ATOM     11  C   UNL     1      44.626   4.889  12.167  0.00  0.00    +0.000 A 
ATOM     12  N   UNL     1      45.062   6.163  12.236  0.00  0.00    +0.000 NA
ATOM     13  C   UNL     1      47.957   8.072  13.427  0.00  0.00    +0.000 C 
ATOM     14  C   UNL     1      48.536   9.296  12.668  0.00  0.00    +0.000 C 
ENDBRANCH   1  11
BRANCH   1  15
ATOM     15  N   UNL     1      43.745   4.778   9.863  0.00  0.00    +0.000 N 
ATOM     16  H   UNL     1      42.972   5.092   9.285  0.00  0.00    +0.000 HD
BRANCH  15  17
ATOM     17  C   UNL     1      44.638   3.920   9.228  0.00  0.00    +0.000 A 
ATOM     18  C   UNL     1      45.575   4.328   8.274  0.00  0.00    +0.000 A 
ATOM     19  C   UNL     1      46.398   3.396   7.635  0.00  0.00    +0.000 A 
ATOM     20  C   UNL     1      46.238   2.054   7.945  0.00  0.00    +0.000 A 
ATOM     21  N   UNL     1      45.312   1.593   8.827  0.00  0.00    +0.000 NA
ATOM     22  C   UNL     1      44.539   2.535   9.421  0.00  0.00    +0.000 A 
BRANCH  20  23
ATOM     23  C   UNL     1      47.111   1.030   7.292  0.00  0.00    +0.000 C 
ATOM     24  N   UNL     1      46.830  -0.269   7.619  0.00  0.00    +0.000 N 
ATOM     25  O   UNL     1      48.019   1.320   6.521  0.00  0.00    +0.000 OA
ATOM     26  H   UNL     1      46.064  -0.466   8.255  0.00  0.00    +0.000 HD
ATOM     27  H   UNL     1      47.372  -1.020   7.218  0.00  0.00    +0.000 HD
ENDBRANCH  20  23
ENDBRANCH  15  17
ENDBRANCH   1  15
TORSDOF 4
ENDMDL
MODEL 3
REMARK VINA RESULT:    -7.586      1.698      2.018
REMARK INTER + INTRA:          -9.918
REMARK INTER:                  -9.485
REMARK INTRA:                  -0.432
REMARK UNBOUND:                -0.558
REMARK  Name = 
REMARK  5 active torsions:
REMARK  status: ('A' for Active; 'I' for Inactive)
REMARK    1  A    between atoms: C_1  and  N_2
REMARK    2  A    between atoms: C_10  and  C_11
REMARK    3  A    between atoms: C_11  and  N_12
REMARK    4  A    between atoms: N_12  and  C_13
REMARK    5  A    between atoms: C_16  and  C_17
REMARK                            x       y       z     vdW  Elec       q    Type
REMARK                         _______ _______ _______ _____ _____    ______ ____
ROOT
ATOM      1  C   UNL     1      43.979   5.154  11.433  0.00  0.00    +0.000 C 
ENDROOT
BRANCH   1  11
ATOM      2  C   UNL     1      49.615   7.426  17.196  0.00  0.00    +0.000 C 
ATOM      3  N   UNL     1      49.248   7.657  15.800  0.00  0.00    +0.000 NA
ATOM      4  C   UNL     1      48.646   6.428  15.228  0.00  0.00    +0.000 C 
ATOM      5  C   UNL     1      48.134   6.622  13.786  0.00  0.00    +0.000 C 
ATOM      6  N   UNL     1      47.198   7.748  13.761  0.00  0.00    +0.000 N 
ATOM      7  C   UNL     1      46.227   7.739  12.792  0.00  0.00    +0.000 A 
ATOM      8  N   UNL     1      45.771   8.890  12.276  0.00  0.00    +0.000 NA
ATOM      9  C   UNL     1      44.747   8.816  11.404  0.00  0.00    +0.000 A 
ATOM     10  C   UNL     1      44.130   7.642  11.046  0.00  0.00    +0.000 A 
ATOM     11  C   UNL     1      44.629   6.506  11.640  0.00  0.00    +0.000 A 
ATOM     12  N   UNL     1      45.686   6.550  12.477  0.00  0.00    +0.000 NA
ATOM     13  C   UNL     1      47.753   9.006  14.251  0.00  0.00    +0.000 C 
ATOM     14  C   UNL     1      48.286   8.782  15.692  0.00  0.00    +0.000 C 
ENDBRANCH   1  11
BRANCH   1  15
ATOM     15  N   UNL     1      43.799   4.839  10.019  0.00  0.00    +0.000 N 
ATOM     16  H   UNL     1      42.833   4.782   9.714  0.00  0.00    +0.000 HD
BRANCH  15  17
ATOM     17  C   UNL     1      44.672   3.980   9.356  0.00  0.00    +0.000 A 
ATOM     18  C   UNL     1      45.580   4.388   8.375  0.00  0.00    +0.000 A 
ATOM     19  C   UNL     1      46.382   3.455   7.711  0.00  0.00    +0.000 A 
ATOM     20  C   UNL     1      46.230   2.114   8.024  0.00  0.00    +0.000 A 
ATOM     21  N   UNL     1      45.330   1.653   8.933  0.00  0.00    +0.000 NA
ATOM     22  C   UNL     1      44.576   2.596   9.552  0.00  0.00    +0.000 A 
BRANCH  20  23
ATOM     23  C   UNL     1      47.081   1.089   7.345  0.00  0.00    +0.000 C 
ATOM     24  N   UNL     1      46.795  -0.211   7.664  0.00  0.00    +0.000 N 
ATOM     25  O   UNL     1      47.977   1.379   6.560  0.00  0.00    +0.000 OA
ATOM     26  H   UNL     1      46.039  -0.408   8.312  0.00  0.00    +0.000 HD
ATOM     27  H   UNL     1      47.322  -0.963   7.245  0.00  0.00    +0.000 HD
ENDBRANCH  20  23
ENDBRANCH  15  17
ENDBRANCH   1  15
TORSDOF 4
ENDMDL
MODEL 4
REMARK VINA RESULT:    -6.368      2.837      4.775
REMARK INTER + INTRA:          -8.415
REMARK INTER:                  -7.997
REMARK INTRA:                  -0.418
REMARK UNBOUND:                -0.558
REMARK  Name = 
REMARK  5 active torsions:
REMARK  status: ('A' for Active; 'I' for Inactive)
REMARK    1  A    between atoms: C_1  and  N_2
REMARK    2  A    between atoms: C_10  and  C_11
REMARK    3  A    between atoms: C_11  and  N_12
REMARK    4  A    between atoms: N_12  and  C_13
REMARK    5  A    between atoms: C_16  and  C_17
REMARK                            x       y       z     vdW  Elec       q    Type
REMARK                         _______ _______ _______ _____ _____    ______ ____
ROOT
ATOM      1  C   UNL     1      48.262   7.513  13.210  0.00  0.00    +0.000 C 
ENDROOT
BRANCH   1  11
ATOM      2  C   UNL     1      48.703   4.586  21.045  0.00  0.00    +0.000 C 
ATOM      3  N   UNL     1      49.468   4.648  19.801  0.00  0.00    +0.000 NA
ATOM      4  C   UNL     1      48.544   4.643  18.641  0.00  0.00    +0.000 C 
ATOM      5  C   UNL     1      49.270   4.813  17.291  0.00  0.00    +0.000 C 
ATOM      6  N   UNL     1      50.079   6.033  17.336  0.00  0.00    +0.000 N 
ATOM      7  C   UNL     1      50.325   6.670  16.146  0.00  0.00    +0.000 A 
ATOM      8  N   UNL     1      51.471   7.340  15.958  0.00  0.00    +0.000 NA
ATOM      9  C   UNL     1      51.606   8.028  14.808  0.00  0.00    +0.000 A 
ATOM     10  C   UNL     1      50.630   8.108  13.845  0.00  0.00    +0.000 A 
ATOM     11  C   UNL     1      49.468   7.424  14.122  0.00  0.00    +0.000 A 
ATOM     12  N   UNL     1      49.330   6.687  15.243  0.00  0.00    +0.000 NA
ATOM     13  C   UNL     1      51.057   6.070  18.419  0.00  0.00    +0.000 C 
ATOM     14  C   UNL     1      50.310   5.870  19.765  0.00  0.00    +0.000 C 
ENDBRANCH   1  11
BRANCH   1  15
ATOM     15  N   UNL     1      47.091   6.852  13.777  0.00  0.00    +0.000 N 
ATOM     16  H   UNL     1      47.144   6.674  14.776  0.00  0.00    +0.000 HD
BRANCH  15  17
ATOM     17  C   UNL     1      46.380   5.899  13.052  0.00  0.00    +0.000 A 
ATOM     18  C   UNL     1      45.953   6.075  11.733  0.00  0.00    +0.000 A 
ATOM     19  C   UNL     1      45.191   5.094  11.092  0.00  0.00    +0.000 A 
ATOM     20  C   UNL     1      44.840   3.960  11.807  0.00  0.00    +0.000 A 
ATOM     21  N   UNL     1      45.185   3.755  13.106  0.00  0.00    +0.000 NA
ATOM     22  C   UNL     1      45.925   4.734  13.684  0.00  0.00    +0.000 A 
BRANCH  20  23
ATOM     23  C   UNL     1      44.037   2.883  11.149  0.00  0.00    +0.000 C 
ATOM     24  N   UNL     1      44.627   2.299  10.061  0.00  0.00    +0.000 N 
ATOM     25  O   UNL     1      42.928   2.542  11.543  0.00  0.00    +0.000 OA
ATOM     26  H   UNL     1      45.551   2.606   9.772  0.00  0.00    +0.000 HD
ATOM     27  H   UNL     1      44.152   1.562   9.562  0.00  0.00    +0.000 HD
ENDBRANCH  20  23
ENDBRANCH  15  17
ENDBRANCH   1  15
TORSDOF 4
ENDMDL
MODEL 5
REMARK VINA RESULT:    -6.255      3.511      7.672
REMARK INTER + INTRA:          -8.276
REMARK INTER:                  -7.752
REMARK INTRA:                  -0.524
REMARK UNBOUND:                -0.558
REMARK  Name = 
REMARK  5 active torsions:
REMARK  status: ('A' for Active; 'I' for Inactive)
REMARK    1  A    between atoms: C_1  and  N_2
REMARK    2  A    between atoms: C_10  and  C_11
REMARK    3  A    between atoms: C_11  and  N_12
REMARK    4  A    between atoms: N_12  and  C_13
REMARK    5  A    between atoms: C_16  and  C_17
REMARK                            x       y       z     vdW  Elec       q    Type
REMARK                         _______ _______ _______ _____ _____    ______ ____
ROOT
ATOM      1  C   UNL     1      48.839   7.786  15.779  0.00  0.00    +0.000 C 
ENDROOT
BRANCH   1  11
ATOM      2  C   UNL     1      43.210   3.288  11.509  0.00  0.00    +0.000 C 
ATOM      3  N   UNL     1      43.868   4.594  11.513  0.00  0.00    +0.000 NA
ATOM      4  C   UNL     1      44.170   5.001  12.907  0.00  0.00    +0.000 C 
ATOM      5  C   UNL     1      44.960   6.322  12.991  0.00  0.00    +0.000 C 
ATOM      6  N   UNL     1      46.177   6.201  12.185  0.00  0.00    +0.000 N 
ATOM      7  C   UNL     1      47.256   6.965  12.553  0.00  0.00    +0.000 A 
ATOM      8  N   UNL     1      48.115   7.417  11.629  0.00  0.00    +0.000 NA
ATOM      9  C   UNL     1      49.208   8.073  12.065  0.00  0.00    +0.000 A 
ATOM     10  C   UNL     1      49.502   8.270  13.393  0.00  0.00    +0.000 A 
ATOM     11  C   UNL     1      48.592   7.749  14.285  0.00  0.00    +0.000 A 
ATOM     12  N   UNL     1      47.466   7.133  13.870  0.00  0.00    +0.000 NA
ATOM     13  C   UNL     1      45.942   5.866  10.784  0.00  0.00    +0.000 C 
ATOM     14  C   UNL     1      45.123   4.549  10.722  0.00  0.00    +0.000 C 
ENDBRANCH   1  11
BRANCH   1  15
ATOM     15  N   UNL     1      48.308   6.607  16.455  0.00  0.00    +0.000 N 
ATOM     16  H   UNL     1      47.548   6.793  17.102  0.00  0.00    +0.000 HD
BRANCH  15  17
ATOM     17  C   UNL     1      49.138   5.551  16.820  0.00  0.00    +0.000 A 
ATOM     18  C   UNL     1      50.497   5.687  17.120  0.00  0.00    +0.000 A 
ATOM     19  C   UNL     1      51.279   4.568  17.419  0.00  0.00    +0.000 A 
ATOM     20  C   UNL     1      50.682   3.317  17.378  0.00  0.00    +0.000 A 
ATOM     21  N   UNL     1      49.379   3.117  17.046  0.00  0.00    +0.000 NA
ATOM     22  C   UNL     1      48.662   4.234  16.765  0.00  0.00    +0.000 A 
BRANCH  20  23
ATOM     23  C   UNL     1      51.484   2.098  17.707  0.00  0.00    +0.000 C 
ATOM     24  N   UNL     1      52.501   2.294  18.603  0.00  0.00    +0.000 N 
ATOM     25  O   UNL     1      51.261   0.999  17.214  0.00  0.00    +0.000 OA
ATOM     26  H   UNL     1      52.647   3.219  18.994  0.00  0.00    +0.000 HD
ATOM     27  H   UNL     1      53.088   1.521  18.880  0.00  0.00    +0.000 HD
ENDBRANCH  20  23
ENDBRANCH  15  17
ENDBRANCH   1  15
TORSDOF 4
ENDMDL
MODEL 6
REMARK VINA RESULT:    -6.249      3.422      8.237
REMARK INTER + INTRA:          -8.269
REMARK INTER:                  -7.872
REMARK INTRA:                  -0.397
REMARK UNBOUND:                -0.558
REMARK  Name = 
REMARK  5 active torsions:
REMARK  status: ('A' for Active; 'I' for Inactive)
REMARK    1  A    between atoms: C_1  and  N_2
REMARK    2  A    between atoms: C_10  and  C_11
REMARK    3  A    between atoms: C_11  and  N_12
REMARK    4  A    between atoms: N_12  and  C_13
REMARK    5  A    between atoms: C_16  and  C_17
REMARK                            x       y       z     vdW  Elec       q    Type
REMARK                         _______ _______ _______ _____ _____    ______ ____
ROOT
ATOM      1  C   UNL     1      47.590   3.711  16.281  0.00  0.00    +0.000 C 
ENDROOT
BRANCH   1  11
ATOM      2  C   UNL     1      44.338   3.601   8.564  0.00  0.00    +0.000 C 
ATOM      3  N   UNL     1      44.472   4.462   9.738  0.00  0.00    +0.000 NA
ATOM      4  C   UNL     1      44.495   3.634  10.968  0.00  0.00    +0.000 C 
ATOM      5  C   UNL     1      44.741   4.462  12.246  0.00  0.00    +0.000 C 
ATOM      6  N   UNL     1      45.977   5.231  12.085  0.00  0.00    +0.000 N 
ATOM      7  C   UNL     1      46.671   5.554  13.224  0.00  0.00    +0.000 A 
ATOM      8  N   UNL     1      47.375   6.693  13.290  0.00  0.00    +0.000 NA
ATOM      9  C   UNL     1      48.116   6.901  14.395  0.00  0.00    +0.000 A 
ATOM     10  C   UNL     1      48.214   6.003  15.431  0.00  0.00    +0.000 A 
ATOM     11  C   UNL     1      47.491   4.842  15.278  0.00  0.00    +0.000 A 
ATOM     12  N   UNL     1      46.703   4.634  14.203  0.00  0.00    +0.000 NA
ATOM     13  C   UNL     1      45.990   6.116  10.926  0.00  0.00    +0.000 C 
ATOM     14  C   UNL     1      45.714   5.269   9.654  0.00  0.00    +0.000 C 
ENDBRANCH   1  11
BRANCH   1  15
ATOM     15  N   UNL     1      48.488   4.031  17.386  0.00  0.00    +0.000 N 
ATOM     16  H   UNL     1      48.507   5.012  17.649  0.00  0.00    +0.000 HD
BRANCH  15  17
ATOM     17  C   UNL     1      49.696   3.360  17.551  0.00  0.00    +0.000 A 
ATOM     18  C   UNL     1      50.849   3.939  18.088  0.00  0.00    +0.000 A 
ATOM     19  C   UNL     1      52.043   3.216  18.166  0.00  0.00    +0.000 A 
ATOM     20  C   UNL     1      52.064   1.923  17.666  0.00  0.00    +0.000 A 
ATOM     21  N   UNL     1      50.989   1.324  17.088  0.00  0.00    +0.000 NA
ATOM     22  C   UNL     1      49.854   2.065  17.037  0.00  0.00    +0.000 A 
BRANCH  20  23
ATOM     23  C   UNL     1      53.320   1.114  17.745  0.00  0.00    +0.000 C 
ATOM     24  N   UNL     1      54.067   1.308  18.875  0.00  0.00    +0.000 N 
ATOM     25  O   UNL     1      53.668   0.334  16.867  0.00  0.00    +0.000 OA
ATOM     26  H   UNL     1      53.738   1.957  19.583  0.00  0.00    +0.000 HD
ATOM     27  H   UNL     1      54.928   0.798  19.007  0.00  0.00    +0.000 HD
ENDBRANCH  20  23
ENDBRANCH  15  17
ENDBRANCH   1  15
TORSDOF 4
ENDMDL
MODEL 7
REMARK VINA RESULT:    -6.183      1.871      3.200
REMARK INTER + INTRA:          -8.188
REMARK INTER:                  -7.742
REMARK INTRA:                  -0.446
REMARK UNBOUND:                -0.558
REMARK  Name = 
REMARK  5 active torsions:
REMARK  status: ('A' for Active; 'I' for Inactive)
REMARK    1  A    between atoms: C_1  and  N_2
REMARK    2  A    between atoms: C_10  and  C_11
REMARK    3  A    between atoms: C_11  and  N_12
REMARK    4  A    between atoms: N_12  and  C_13
REMARK    5  A    between atoms: C_16  and  C_17
REMARK                            x       y       z     vdW  Elec       q    Type
REMARK                         _______ _______ _______ _____ _____    ______ ____
ROOT
ATOM      1  C   UNL     1      45.852   7.816  12.895  0.00  0.00    +0.000 C 
ENDROOT
BRANCH   1  11
ATOM      2  C   UNL     1      48.658   4.643  20.120  0.00  0.00    +0.000 C 
ATOM      3  N   UNL     1      48.926   4.629  18.682  0.00  0.00    +0.000 NA
ATOM      4  C   UNL     1      47.655   4.788  17.933  0.00  0.00    +0.000 C 
ATOM      5  C   UNL     1      47.863   4.889  16.409  0.00  0.00    +0.000 C 
ATOM      6  N   UNL     1      48.800   5.979  16.127  0.00  0.00    +0.000 N 
ATOM      7  C   UNL     1      48.689   6.607  14.912  0.00  0.00    +0.000 A 
ATOM      8  N   UNL     1      49.775   7.111  14.307  0.00  0.00    +0.000 NA
ATOM      9  C   UNL     1      49.584   7.805  13.168  0.00  0.00    +0.000 A 
ATOM     10  C   UNL     1      48.349   8.049  12.620  0.00  0.00    +0.000 A 
ATOM     11  C   UNL     1      47.279   7.531  13.314  0.00  0.00    +0.000 A 
ATOM     12  N   UNL     1      47.450   6.791  14.428  0.00  0.00    +0.000 NA
ATOM     13  C   UNL     1      50.096   5.846  16.785  0.00  0.00    +0.000 C 
ATOM     14  C   UNL     1      49.863   5.719  18.314  0.00  0.00    +0.000 C 
ENDBRANCH   1  11
BRANCH   1  15
ATOM     15  N   UNL     1      44.989   6.649  13.044  0.00  0.00    +0.000 N 
ATOM     16  H   UNL     1      44.930   6.281  13.989  0.00  0.00    +0.000 HD
BRANCH  15  17
ATOM     17  C   UNL     1      44.892   5.692  12.038  0.00  0.00    +0.000 A 
ATOM     18  C   UNL     1      44.459   4.378  12.244  0.00  0.00    +0.000 A 
ATOM     19  C   UNL     1      44.446   3.457  11.193  0.00  0.00    +0.000 A 
ATOM     20  C   UNL     1      44.903   3.868   9.950  0.00  0.00    +0.000 A 
ATOM     21  N   UNL     1      45.381   5.117   9.702  0.00  0.00    +0.000 NA
ATOM     22  C   UNL     1      45.372   5.974  10.753  0.00  0.00    +0.000 A 
BRANCH  20  23
ATOM     23  C   UNL     1      44.890   2.914   8.799  0.00  0.00    +0.000 C 
ATOM     24  N   UNL     1      44.827   1.590   9.140  0.00  0.00    +0.000 N 
ATOM     25  O   UNL     1      44.936   3.278   7.629  0.00  0.00    +0.000 OA
ATOM     26  H   UNL     1      44.781   1.331  10.120  0.00  0.00    +0.000 HD
ATOM     27  H   UNL     1      44.811   0.882   8.420  0.00  0.00    +0.000 HD
ENDBRANCH  20  23
ENDBRANCH  15  17
ENDBRANCH   1  15
TORSDOF 4
ENDMDL
MODEL 8
REMARK VINA RESULT:    -5.926      3.272      8.330
REMARK INTER + INTRA:          -7.870
REMARK INTER:                  -7.564
REMARK INTRA:                  -0.307
REMARK UNBOUND:                -0.558
REMARK  Name = 
REMARK  5 active torsions:
REMARK  status: ('A' for Active; 'I' for Inactive)
REMARK    1  A    between atoms: C_1  and  N_2
REMARK    2  A    between atoms: C_10  and  C_11
REMARK    3  A    between atoms: C_11  and  N_12
REMARK    4  A    between atoms: N_12  and  C_13
REMARK    5  A    between atoms: C_16  and  C_17
REMARK                            x       y       z     vdW  Elec       q    Type
REMARK                         _______ _______ _______ _____ _____    ______ ____
ROOT
ATOM      1  C   UNL     1      45.543   4.281  14.268  0.00  0.00    +0.000 C 
ENDROOT
BRANCH   1  11
ATOM      2  C   UNL     1      47.043   1.459   6.526  0.00  0.00    +0.000 C 
ATOM      3  N   UNL     1      46.107   2.292   7.280  0.00  0.00    +0.000 NA
ATOM      4  C   UNL     1      45.985   1.782   8.667  0.00  0.00    +0.000 C 
ATOM      5  C   UNL     1      45.095   2.670   9.560  0.00  0.00    +0.000 C 
ATOM      6  N   UNL     1      45.608   4.041   9.529  0.00  0.00    +0.000 N 
ATOM      7  C   UNL     1      45.368   4.828  10.627  0.00  0.00    +0.000 A 
ATOM      8  N   UNL     1      45.205   6.152  10.491  0.00  0.00    +0.000 NA
ATOM      9  C   UNL     1      45.076   6.880  11.617  0.00  0.00    +0.000 A 
ATOM     10  C   UNL     1      45.136   6.349  12.882  0.00  0.00    +0.000 A 
ATOM     11  C   UNL     1      45.339   4.989  12.944  0.00  0.00    +0.000 A 
ATOM     12  N   UNL     1      45.421   4.234  11.831  0.00  0.00    +0.000 NA
ATOM     13  C   UNL     1      45.690   4.625   8.194  0.00  0.00    +0.000 C 
ATOM     14  C   UNL     1      46.567   3.703   7.305  0.00  0.00    +0.000 C 
ENDBRANCH   1  11
BRANCH   1  15
ATOM     15  N   UNL     1      46.950   4.000  14.532  0.00  0.00    +0.000 N 
ATOM     16  H   UNL     1      47.349   3.254  13.971  0.00  0.00    +0.000 HD
BRANCH  15  17
ATOM     17  C   UNL     1      47.478   4.110  15.816  0.00  0.00    +0.000 A 
ATOM     18  C   UNL     1      47.320   3.145  16.815  0.00  0.00    +0.000 A 
ATOM     19  C   UNL     1      47.830   3.356  18.099  0.00  0.00    +0.000 A 
ATOM     20  C   UNL     1      48.465   4.559  18.367  0.00  0.00    +0.000 A 
ATOM     21  N   UNL     1      48.606   5.554  17.451  0.00  0.00    +0.000 NA
ATOM     22  C   UNL     1      48.096   5.301  16.220  0.00  0.00    +0.000 A 
BRANCH  20  23
ATOM     23  C   UNL     1      49.036   4.813  19.726  0.00  0.00    +0.000 C 
ATOM     24  N   UNL     1      48.595   3.970  20.710  0.00  0.00    +0.000 N 
ATOM     25  O   UNL     1      49.837   5.711  19.957  0.00  0.00    +0.000 OA
ATOM     26  H   UNL     1      47.937   3.233  20.475  0.00  0.00    +0.000 HD
ATOM     27  H   UNL     1      48.935   4.074  21.655  0.00  0.00    +0.000 HD
ENDBRANCH  20  23
ENDBRANCH  15  17
ENDBRANCH   1  15
TORSDOF 4
ENDMDL
MODEL 9
REMARK VINA RESULT:    -5.737      2.956      4.182
REMARK INTER + INTRA:          -7.637
REMARK INTER:                  -7.105
REMARK INTRA:                  -0.532
REMARK UNBOUND:                -0.558
REMARK  Name = 
REMARK  5 active torsions:
REMARK  status: ('A' for Active; 'I' for Inactive)
REMARK    1  A    between atoms: C_1  and  N_2
REMARK    2  A    between atoms: C_10  and  C_11
REMARK    3  A    between atoms: C_11  and  N_12
REMARK    4  A    between atoms: N_12  and  C_13
REMARK    5  A    between atoms: C_16  and  C_17
REMARK                            x       y       z     vdW  Elec       q    Type
REMARK                         _______ _______ _______ _____ _____    ______ ____
ROOT
ATOM      1  C   UNL     1      46.261   8.897  12.668  0.00  0.00    +0.000 C 
ENDROOT
BRANCH   1  11
ATOM      2  C   UNL     1      50.412   6.739  19.615  0.00  0.00    +0.000 C 
ATOM      3  N   UNL     1      50.302   6.404  18.196  0.00  0.00    +0.000 NA
ATOM      4  C   UNL     1      48.911   6.630  17.733  0.00  0.00    +0.000 C 
ATOM      5  C   UNL     1      48.736   6.400  16.218  0.00  0.00    +0.000 C 
ATOM      6  N   UNL     1      49.693   7.240  15.495  0.00  0.00    +0.000 N 
ATOM      7  C   UNL     1      49.353   7.633  14.225  0.00  0.00    +0.000 A 
ATOM      8  N   UNL     1      50.301   7.819  13.295  0.00  0.00    +0.000 NA
ATOM      9  C   UNL     1      49.911   8.303  12.100  0.00  0.00    +0.000 A 
ATOM     10  C   UNL     1      48.615   8.644  11.799  0.00  0.00    +0.000 A 
ATOM     11  C   UNL     1      47.703   8.458  12.813  0.00  0.00    +0.000 A 
ATOM     12  N   UNL     1      48.062   7.928  14.000  0.00  0.00    +0.000 NA
ATOM     13  C   UNL     1      51.088   7.017  15.860  0.00  0.00    +0.000 C 
ATOM     14  C   UNL     1      51.238   7.227  17.391  0.00  0.00    +0.000 C 
ENDBRANCH   1  11
BRANCH   1  15
ATOM     15  N   UNL     1      45.329   7.923  13.228  0.00  0.00    +0.000 N 
ATOM     16  H   UNL     1      45.364   7.831  14.239  0.00  0.00    +0.000 HD
BRANCH  15  17
ATOM     17  C   UNL     1      45.019   6.749  12.547  0.00  0.00    +0.000 A 
ATOM     18  C   UNL     1      44.273   6.702  11.364  0.00  0.00    +0.000 A 
ATOM     19  C   UNL     1      43.952   5.478  10.771  0.00  0.00    +0.000 A 
ATOM     20  C   UNL     1      44.359   4.312  11.401  0.00  0.00    +0.000 A 
ATOM     21  N   UNL     1      45.044   4.294  12.576  0.00  0.00    +0.000 NA
ATOM     22  C   UNL     1      45.333   5.506  13.112  0.00  0.00    +0.000 A 
BRANCH  20  23
ATOM     23  C   UNL     1      44.045   2.985  10.788  0.00  0.00    +0.000 C 
ATOM     24  N   UNL     1      43.413   2.096  11.614  0.00  0.00    +0.000 N 
ATOM     25  O   UNL     1      44.333   2.699   9.631  0.00  0.00    +0.000 OA
ATOM     26  H   UNL     1      43.185   2.376  12.563  0.00  0.00    +0.000 HD
ATOM     27  H   UNL     1      43.163   1.179  11.275  0.00  0.00    +0.000 HD
ENDBRANCH  20  23
ENDBRANCH  15  17
ENDBRANCH   1  15
TORSDOF 4
ENDMDL
