MODEL 1
REMARK VINA RESULT:    -8.377      0.000      0.000
REMARK INTER + INTRA:         -11.932
REMARK INTER:                 -11.070
REMARK INTRA:                  -0.861
REMARK UNBOUND:                -0.861
REMARK  Name = 
REMARK  6 active torsions:
REMARK  status: ('A' for Active; 'I' for Inactive)
REMARK    1  A    between atoms: N_1  and  C_2
REMARK    2  A    between atoms: C_2  and  C_3
REMARK    3  A    between atoms: C_3  and  C_4
REMARK    4  A    between atoms: C_7  and  C_8
REMARK    5  A    between atoms: C_8  and  C_9
REMARK    6  A    between atoms: C_16  and  C_17
REMARK                            x       y       z     vdW  Elec       q    Type
REMARK                         _______ _______ _______ _____ _____    ______ ____
ROOT
ATOM      1  C   UNL     1      43.934   6.069  11.528  0.00  0.00    +0.000 A 
ATOM      2  N   UNL     1      43.914   7.310  11.010  0.00  0.00    +0.000 NA
ATOM      3  O   UNL     1      45.093   7.899  11.429  0.00  0.00    +0.000 OA
ATOM      4  C   UNL     1      45.751   7.045  12.253  0.00  0.00    +0.000 A 
ATOM      5  C   UNL     1      47.038   7.221  12.741  0.00  0.00    +0.000 A 
ATOM      6  C   UNL     1      47.514   6.213  13.579  0.00  0.00    +0.000 A 
ATOM      7  F   UNL     1      48.786   6.317  13.997  0.00  0.00    +0.000 F 
ATOM      8  C   UNL     1      46.717   5.130  13.971  0.00  0.00    +0.000 A 
ATOM      9  C   UNL     1      45.427   4.969  13.418  0.00  0.00    +0.000 A 
ATOM     10  C   UNL     1      44.974   5.931  12.499  0.00  0.00    +0.000 A 
ENDROOT
BRANCH   8  11
ATOM     11  C   UNL     1      47.195   4.118  14.957  0.00  0.00    +0.000 C 
ATOM     12  N   UNL     1      47.173   4.447  16.280  0.00  0.00    +0.000 N 
ATOM     13  O   UNL     1      47.589   3.020  14.586  0.00  0.00    +0.000 OA
ATOM     14  H   UNL     1      46.841   5.339  16.626  0.00  0.00    +0.000 HD
ATOM     15  H   UNL     1      47.462   3.751  16.952  0.00  0.00    +0.000 HD
ENDBRANCH   8  11
BRANCH   1  16
ATOM     16  C   UNL     1      43.103   4.998  10.901  0.00  0.00    +0.000 C 
BRANCH  16  20
ATOM     17  C   UNL     1      45.801   2.640   8.427  0.00  0.00    +0.000 A 
ATOM     18  C   UNL     1      45.758   4.034   8.307  0.00  0.00    +0.000 A 
ATOM     19  C   UNL     1      44.924   4.800   9.132  0.00  0.00    +0.000 A 
ATOM     20  C   UNL     1      44.116   4.188  10.102  0.00  0.00    +0.000 A 
ATOM     21  C   UNL     1      44.185   2.789  10.237  0.00  0.00    +0.000 A 
ATOM     22  C   UNL     1      45.015   2.026   9.410  0.00  0.00    +0.000 A 
BRANCH  17  23
ATOM     23  C   UNL     1      46.664   1.809   7.506  0.00  0.00    +0.000 C 
BRANCH  23  24
ATOM     24  C   UNL     1      47.776   2.627   6.841  0.00  0.00    +0.000 C 
BRANCH  24  25
ATOM     25  N   UNL     1      48.492   1.830   5.842  0.00  0.00    +0.000 NA
ATOM     26  H   UNL     1      48.058   0.910   5.773  0.00  0.00    +0.000 HD
ATOM     27  H   UNL     1      49.449   1.670   6.151  0.00  0.00    +0.000 HD
ENDBRANCH  24  25
ENDBRANCH  23  24
ENDBRANCH  17  23
ENDBRANCH  16  20
ENDBRANCH   1  16
TORSDOF 6
ENDMDL
MODEL 2
REMARK VINA RESULT:    -8.076      1.651      2.120
REMARK INTER + INTRA:         -11.535
REMARK INTER:                 -11.421
REMARK INTRA:                  -0.113
REMARK UNBOUND:                -0.861
REMARK  Name = 
REMARK  6 active torsions:
REMARK  status: ('A' for Active; 'I' for Inactive)
REMARK    1  A    between atoms: N_1  and  C_2
REMARK    2  A    between atoms: C_2  and  C_3
REMARK    3  A    between atoms: C_3  and  C_4
REMARK    4  A    between atoms: C_7  and  C_8
REMARK    5  A    between atoms: C_8  and  C_9
REMARK    6  A    between atoms: C_16  and  C_17
REMARK                            x       y       z     vdW  Elec       q    Type
REMARK                         _______ _______ _______ _____ _____    ______ ____
ROOT
ATOM      1  C   UNL     1      43.371   4.650  11.753  0.00  0.00    +0.000 A 
ATOM      2  N   UNL     1      42.330   5.386  11.324  0.00  0.00    +0.000 NA
ATOM      3  O   UNL     1      42.797   6.687  11.280  0.00  0.00    +0.000 OA
ATOM      4  C   UNL     1      44.065   6.724  11.762  0.00  0.00    +0.000 A 
ATOM      5  C   UNL     1      44.913   7.822  11.728  0.00  0.00    +0.000 A 
ATOM      6  C   UNL     1      46.176   7.632  12.285  0.00  0.00    +0.000 A 
ATOM      7  F   UNL     1      47.045   8.651  12.189  0.00  0.00    +0.000 F 
ATOM      8  C   UNL     1      46.542   6.435  12.915  0.00  0.00    +0.000 A 
ATOM      9  C   UNL     1      45.663   5.330  12.892  0.00  0.00    +0.000 A 
ATOM     10  C   UNL     1      44.423   5.482  12.248  0.00  0.00    +0.000 A 
ENDROOT
BRANCH   8  11
ATOM     11  C   UNL     1      47.853   6.282  13.610  0.00  0.00    +0.000 C 
ATOM     12  N   UNL     1      47.853   6.164  14.968  0.00  0.00    +0.000 N 
ATOM     13  O   UNL     1      48.899   6.254  12.974  0.00  0.00    +0.000 OA
ATOM     14  H   UNL     1      47.008   6.168  15.527  0.00  0.00    +0.000 HD
ATOM     15  H   UNL     1      48.737   6.024  15.437  0.00  0.00    +0.000 HD
ENDBRANCH   8  11
BRANCH   1  16
ATOM     16  C   UNL     1      43.408   3.187  11.455  0.00  0.00    +0.000 C 
BRANCH  16  20
ATOM     17  C   UNL     1      45.800   3.018   7.821  0.00  0.00    +0.000 A 
ATOM     18  C   UNL     1      45.439   1.843   8.493  0.00  0.00    +0.000 A 
ATOM     19  C   UNL     1      44.632   1.891   9.638  0.00  0.00    +0.000 A 
ATOM     20  C   UNL     1      44.162   3.116  10.134  0.00  0.00    +0.000 A 
ATOM     21  C   UNL     1      44.505   4.290   9.438  0.00  0.00    +0.000 A 
ATOM     22  C   UNL     1      45.313   4.241   8.298  0.00  0.00    +0.000 A 
BRANCH  17  23
ATOM     23  C   UNL     1      46.709   2.972   6.615  0.00  0.00    +0.000 C 
BRANCH  23  24
ATOM     24  C   UNL     1      47.908   2.038   6.814  0.00  0.00    +0.000 C 
BRANCH  24  25
ATOM     25  N   UNL     1      48.555   1.730   5.536  0.00  0.00    +0.000 NA
ATOM     26  H   UNL     1      48.392   2.497   4.884  0.00  0.00    +0.000 HD
ATOM     27  H   UNL     1      48.122   0.908   5.120  0.00  0.00    +0.000 HD
ENDBRANCH  24  25
ENDBRANCH  23  24
ENDBRANCH  17  23
ENDBRANCH  16  20
ENDBRANCH   1  16
TORSDOF 6
ENDMDL
MODEL 3
REMARK VINA RESULT:    -7.908      2.897      6.784
REMARK INTER + INTRA:         -11.312
REMARK INTER:                 -11.352
REMARK INTRA:                   0.040
REMARK UNBOUND:                -0.861
REMARK  Name = 
REMARK  6 active torsions:
REMARK  status: ('A' for Active; 'I' for Inactive)
REMARK    1  A    between atoms: N_1  and  C_2
REMARK    2  A    between atoms: C_2  and  C_3
REMARK    3  A    between atoms: C_3  and  C_4
REMARK    4  A    between atoms: C_7  and  C_8
REMARK    5  A    between atoms: C_8  and  C_9
REMARK    6  A    between atoms: C_16  and  C_17
REMARK                            x       y       z     vdW  Elec       q    Type
REMARK                         _______ _______ _______ _____ _____    ______ ____
ROOT
ATOM      1  C   UNL     1      44.620   5.089  10.258  0.00  0.00    +0.000 A 
ATOM      2  N   UNL     1      43.532   4.648  10.915  0.00  0.00    +0.000 NA
ATOM      3  O   UNL     1      43.438   3.303  10.602  0.00  0.00    +0.000 OA
ATOM      4  C   UNL     1      44.404   2.985   9.704  0.00  0.00    +0.000 A 
ATOM      5  C   UNL     1      44.722   1.703   9.278  0.00  0.00    +0.000 A 
ATOM      6  C   UNL     1      45.754   1.611   8.344  0.00  0.00    +0.000 A 
ATOM      7  F   UNL     1      46.138   0.378   7.979  0.00  0.00    +0.000 F 
ATOM      8  C   UNL     1      46.377   2.745   7.806  0.00  0.00    +0.000 A 
ATOM      9  C   UNL     1      46.050   4.028   8.298  0.00  0.00    +0.000 A 
ATOM     10  C   UNL     1      45.077   4.123   9.309  0.00  0.00    +0.000 A 
ENDROOT
BRANCH   8  11
ATOM     11  C   UNL     1      47.398   2.641   6.724  0.00  0.00    +0.000 C 
ATOM     12  N   UNL     1      47.196   3.349   5.577  0.00  0.00    +0.000 N 
ATOM     13  O   UNL     1      48.395   1.945   6.869  0.00  0.00    +0.000 OA
ATOM     14  H   UNL     1      46.392   3.947   5.427  0.00  0.00    +0.000 HD
ATOM     15  H   UNL     1      47.904   3.309   4.858  0.00  0.00    +0.000 HD
ENDBRANCH   8  11
BRANCH   1  16
ATOM     16  C   UNL     1      45.313   6.324  10.732  0.00  0.00    +0.000 C 
BRANCH  16  20
ATOM     17  C   UNL     1      47.200   5.204  14.493  0.00  0.00    +0.000 A 
ATOM     18  C   UNL     1      46.055   4.535  14.042  0.00  0.00    +0.000 A 
ATOM     19  C   UNL     1      45.471   4.863  12.812  0.00  0.00    +0.000 A 
ATOM     20  C   UNL     1      46.023   5.864  11.999  0.00  0.00    +0.000 A 
ATOM     21  C   UNL     1      47.190   6.512  12.444  0.00  0.00    +0.000 A 
ATOM     22  C   UNL     1      47.770   6.186  13.674  0.00  0.00    +0.000 A 
BRANCH  17  23
ATOM     23  C   UNL     1      47.803   4.885  15.841  0.00  0.00    +0.000 C 
BRANCH  23  24
ATOM     24  C   UNL     1      47.588   3.425  16.254  0.00  0.00    +0.000 C 
BRANCH  24  25
ATOM     25  N   UNL     1      46.727   3.332  17.436  0.00  0.00    +0.000 NA
ATOM     26  H   UNL     1      46.857   2.420  17.875  0.00  0.00    +0.000 HD
ATOM     27  H   UNL     1      45.749   3.374  17.154  0.00  0.00    +0.000 HD
ENDBRANCH  24  25
ENDBRANCH  23  24
ENDBRANCH  17  23
ENDBRANCH  16  20
ENDBRANCH   1  16
TORSDOF 6
ENDMDL
MODEL 4
REMARK VINA RESULT:    -7.896      1.774      3.303
REMARK INTER + INTRA:         -11.296
REMARK INTER:                 -10.542
REMARK INTRA:                  -0.754
REMARK UNBOUND:                -0.861
REMARK  Name = 
REMARK  6 active torsions:
REMARK  status: ('A' for Active; 'I' for Inactive)
REMARK    1  A    between atoms: N_1  and  C_2
REMARK    2  A    between atoms: C_2  and  C_3
REMARK    3  A    between atoms: C_3  and  C_4
REMARK    4  A    between atoms: C_7  and  C_8
REMARK    5  A    between atoms: C_8  and  C_9
REMARK    6  A    between atoms: C_16  and  C_17
REMARK                            x       y       z     vdW  Elec       q    Type
REMARK                         _______ _______ _______ _____ _____    ______ ____
ROOT
ATOM      1  C   UNL     1      45.654   4.335  12.502  0.00  0.00    +0.000 A 
ATOM      2  N   UNL     1      45.995   3.285  13.272  0.00  0.00    +0.000 NA
ATOM      3  O   UNL     1      46.903   3.785  14.189  0.00  0.00    +0.000 OA
ATOM      4  C   UNL     1      47.156   5.088  13.902  0.00  0.00    +0.000 A 
ATOM      5  C   UNL     1      47.890   5.961  14.691  0.00  0.00    +0.000 A 
ATOM      6  C   UNL     1      48.026   7.258  14.197  0.00  0.00    +0.000 A 
ATOM      7  F   UNL     1      48.659   8.147  14.980  0.00  0.00    +0.000 F 
ATOM      8  C   UNL     1      47.524   7.637  12.945  0.00  0.00    +0.000 A 
ATOM      9  C   UNL     1      46.748   6.726  12.193  0.00  0.00    +0.000 A 
ATOM     10  C   UNL     1      46.526   5.445  12.727  0.00  0.00    +0.000 A 
ENDROOT
BRANCH   8  11
ATOM     11  C   UNL     1      47.774   8.992  12.375  0.00  0.00    +0.000 C 
ATOM     12  N   UNL     1      46.996  10.026  12.805  0.00  0.00    +0.000 N 
ATOM     13  O   UNL     1      48.660   9.171  11.550  0.00  0.00    +0.000 OA
ATOM     14  H   UNL     1      46.264   9.921  13.497  0.00  0.00    +0.000 HD
ATOM     15  H   UNL     1      47.187  10.951  12.448  0.00  0.00    +0.000 HD
ENDBRANCH   8  11
BRANCH   1  16
ATOM     16  C   UNL     1      44.363   4.307  11.753  0.00  0.00    +0.000 C 
BRANCH  16  20
ATOM     17  C   UNL     1      45.817   3.093   7.832  0.00  0.00    +0.000 A 
ATOM     18  C   UNL     1      45.304   2.146   8.727  0.00  0.00    +0.000 A 
ATOM     19  C   UNL     1      44.794   2.539   9.972  0.00  0.00    +0.000 A 
ATOM     20  C   UNL     1      44.780   3.890  10.348  0.00  0.00    +0.000 A 
ATOM     21  C   UNL     1      45.271   4.839   9.433  0.00  0.00    +0.000 A 
ATOM     22  C   UNL     1      45.783   4.445   8.192  0.00  0.00    +0.000 A 
BRANCH  17  23
ATOM     23  C   UNL     1      46.411   2.666   6.510  0.00  0.00    +0.000 C 
BRANCH  23  24
ATOM     24  C   UNL     1      47.521   1.622   6.670  0.00  0.00    +0.000 C 
BRANCH  24  25
ATOM     25  N   UNL     1      48.601   1.848   5.706  0.00  0.00    +0.000 NA
ATOM     26  H   UNL     1      48.369   1.384   4.827  0.00  0.00    +0.000 HD
ATOM     27  H   UNL     1      49.458   1.410   6.040  0.00  0.00    +0.000 HD
ENDBRANCH  24  25
ENDBRANCH  23  24
ENDBRANCH  17  23
ENDBRANCH  16  20
ENDBRANCH   1  16
TORSDOF 6
ENDMDL
MODEL 5
REMARK VINA RESULT:    -6.722      2.662      4.503
REMARK INTER + INTRA:          -9.745
REMARK INTER:                  -9.270
REMARK INTRA:                  -0.475
REMARK UNBOUND:                -0.861
REMARK  Name = 
REMARK  6 active torsions:
REMARK  status: ('A' for Active; 'I' for Inactive)
REMARK    1  A    between atoms: N_1  and  C_2
REMARK    2  A    between atoms: C_2  and  C_3
REMARK    3  A    between atoms: C_3  and  C_4
REMARK    4  A    between atoms: C_7  and  C_8
REMARK    5  A    between atoms: C_8  and  C_9
REMARK    6  A    between atoms: C_16  and  C_17
REMARK                            x       y       z     vdW  Elec       q    Type
REMARK                         _______ _______ _______ _____ _____    ______ ____
ROOT
ATOM      1  C   UNL     1      45.074   6.020  11.820  0.00  0.00    +0.000 A 
ATOM      2  N   UNL     1      46.113   5.904  12.667  0.00  0.00    +0.000 NA
ATOM      3  O   UNL     1      46.379   7.192  13.096  0.00  0.00    +0.000 OA
ATOM      4  C   UNL     1      45.565   8.058  12.441  0.00  0.00    +0.000 A 
ATOM      5  C   UNL     1      45.432   9.411  12.718  0.00  0.00    +0.000 A 
ATOM      6  C   UNL     1      44.536  10.112  11.912  0.00  0.00    +0.000 A 
ATOM      7  F   UNL     1      44.325  11.403  12.213  0.00  0.00    +0.000 F 
ATOM      8  C   UNL     1      43.872   9.510  10.835  0.00  0.00    +0.000 A 
ATOM      9  C   UNL     1      44.006   8.121  10.613  0.00  0.00    +0.000 A 
ATOM     10  C   UNL     1      44.834   7.387  11.480  0.00  0.00    +0.000 A 
ENDROOT
BRANCH   8  11
ATOM     11  C   UNL     1      43.006  10.294   9.909  0.00  0.00    +0.000 C 
ATOM     12  N   UNL     1      43.462  10.533   8.647  0.00  0.00    +0.000 N 
ATOM     13  O   UNL     1      41.910  10.702  10.271  0.00  0.00    +0.000 OA
ATOM     14  H   UNL     1      44.356  10.199   8.306  0.00  0.00    +0.000 HD
ATOM     15  H   UNL     1      42.862  11.033   8.006  0.00  0.00    +0.000 HD
ENDBRANCH   8  11
BRANCH   1  16
ATOM     16  C   UNL     1      44.208   4.833  11.554  0.00  0.00    +0.000 C 
BRANCH  16  20
ATOM     17  C   UNL     1      45.842   2.993   7.962  0.00  0.00    +0.000 A 
ATOM     18  C   UNL     1      45.973   4.370   8.181  0.00  0.00    +0.000 A 
ATOM     19  C   UNL     1      45.488   4.958   9.357  0.00  0.00    +0.000 A 
ATOM     20  C   UNL     1      44.865   4.181  10.344  0.00  0.00    +0.000 A 
ATOM     21  C   UNL     1      44.762   2.794  10.131  0.00  0.00    +0.000 A 
ATOM     22  C   UNL     1      45.244   2.209   8.955  0.00  0.00    +0.000 A 
BRANCH  17  23
ATOM     23  C   UNL     1      46.322   2.365   6.675  0.00  0.00    +0.000 C 
BRANCH  23  24
ATOM     24  C   UNL     1      47.640   1.600   6.845  0.00  0.00    +0.000 C 
BRANCH  24  25
ATOM     25  N   UNL     1      48.524   1.810   5.696  0.00  0.00    +0.000 NA
ATOM     26  H   UNL     1      48.279   1.149   4.959  0.00  0.00    +0.000 HD
ATOM     27  H   UNL     1      49.485   1.599   5.958  0.00  0.00    +0.000 HD
ENDBRANCH  24  25
ENDBRANCH  23  24
ENDBRANCH  17  23
ENDBRANCH  16  20
ENDBRANCH   1  16
TORSDOF 6
ENDMDL
MODEL 6
REMARK VINA RESULT:    -6.671      3.879      7.454
REMARK INTER + INTRA:          -9.678
REMARK INTER:                  -9.311
REMARK INTRA:                  -0.367
REMARK UNBOUND:                -0.861
REMARK  Name = 
REMARK  6 active torsions:
REMARK  status: ('A' for Active; 'I' for Inactive)
REMARK    1  A    between atoms: N_1  and  C_2
REMARK    2  A    between atoms: C_2  and  C_3
REMARK    3  A    between atoms: C_3  and  C_4
REMARK    4  A    between atoms: C_7  and  C_8
REMARK    5  A    between atoms: C_8  and  C_9
REMARK    6  A    between atoms: C_16  and  C_17
REMARK                            x       y       z     vdW  Elec       q    Type
REMARK                         _______ _______ _______ _____ _____    ______ ____
ROOT
ATOM      1  C   UNL     1      47.455   4.683  15.127  0.00  0.00    +0.000 A 
ATOM      2  N   UNL     1      48.303   5.728  15.135  0.00  0.00    +0.000 NA
ATOM      3  O   UNL     1      48.027   6.430  13.975  0.00  0.00    +0.000 OA
ATOM      4  C   UNL     1      47.093   5.756  13.256  0.00  0.00    +0.000 A 
ATOM      5  C   UNL     1      46.454   6.226  12.118  0.00  0.00    +0.000 A 
ATOM      6  C   UNL     1      45.529   5.359  11.539  0.00  0.00    +0.000 A 
ATOM      7  F   UNL     1      44.834   5.821  10.486  0.00  0.00    +0.000 F 
ATOM      8  C   UNL     1      45.315   4.062  12.024  0.00  0.00    +0.000 A 
ATOM      9  C   UNL     1      45.958   3.639  13.209  0.00  0.00    +0.000 A 
ATOM     10  C   UNL     1      46.821   4.541  13.854  0.00  0.00    +0.000 A 
ENDROOT
BRANCH   8  11
ATOM     11  C   UNL     1      44.410   3.102  11.329  0.00  0.00    +0.000 C 
ATOM     12  N   UNL     1      44.897   2.417  10.256  0.00  0.00    +0.000 N 
ATOM     13  O   UNL     1      43.262   2.929  11.720  0.00  0.00    +0.000 OA
ATOM     14  H   UNL     1      45.844   2.522   9.912  0.00  0.00    +0.000 HD
ATOM     15  H   UNL     1      44.297   1.740   9.806  0.00  0.00    +0.000 HD
ENDBRANCH   8  11
BRANCH   1  16
ATOM     16  C   UNL     1      47.114   4.005  16.413  0.00  0.00    +0.000 C 
BRANCH  16  20
ATOM     17  C   UNL     1      51.071   2.614  17.581  0.00  0.00    +0.000 A 
ATOM     18  C   UNL     1      50.587   3.849  18.031  0.00  0.00    +0.000 A 
ATOM     19  C   UNL     1      49.297   4.279  17.694  0.00  0.00    +0.000 A 
ATOM     20  C   UNL     1      48.459   3.481  16.902  0.00  0.00    +0.000 A 
ATOM     21  C   UNL     1      48.940   2.230  16.477  0.00  0.00    +0.000 A 
ATOM     22  C   UNL     1      50.229   1.803  16.812  0.00  0.00    +0.000 A 
BRANCH  17  23
ATOM     23  C   UNL     1      52.479   2.170  17.904  0.00  0.00    +0.000 C 
BRANCH  23  24
ATOM     24  C   UNL     1      52.804   0.781  17.344  0.00  0.00    +0.000 C 
BRANCH  24  25
ATOM     25  N   UNL     1      52.800  -0.230  18.404  0.00  0.00    +0.000 NA
ATOM     26  H   UNL     1      52.626   0.224  19.301  0.00  0.00    +0.000 HD
ATOM     27  H   UNL     1      53.723  -0.656  18.476  0.00  0.00    +0.000 HD
ENDBRANCH  24  25
ENDBRANCH  23  24
ENDBRANCH  17  23
ENDBRANCH  16  20
ENDBRANCH   1  16
TORSDOF 6
ENDMDL
MODEL 7
REMARK VINA RESULT:    -6.564      2.925      6.185
REMARK INTER + INTRA:          -9.536
REMARK INTER:                  -8.756
REMARK INTRA:                  -0.780
REMARK UNBOUND:                -0.861
REMARK  Name = 
REMARK  6 active torsions:
REMARK  status: ('A' for Active; 'I' for Inactive)
REMARK    1  A    between atoms: N_1  and  C_2
REMARK    2  A    between atoms: C_2  and  C_3
REMARK    3  A    between atoms: C_3  and  C_4
REMARK    4  A    between atoms: C_7  and  C_8
REMARK    5  A    between atoms: C_8  and  C_9
REMARK    6  A    between atoms: C_16  and  C_17
REMARK                            x       y       z     vdW  Elec       q    Type
REMARK                         _______ _______ _______ _____ _____    ______ ____
ROOT
ATOM      1  C   UNL     1      43.261   4.793  10.797  0.00  0.00    +0.000 A 
ATOM      2  N   UNL     1      42.586   3.944  11.593  0.00  0.00    +0.000 NA
ATOM      3  O   UNL     1      43.091   2.690  11.302  0.00  0.00    +0.000 OA
ATOM      4  C   UNL     1      43.986   2.794  10.287  0.00  0.00    +0.000 A 
ATOM      5  C   UNL     1      44.811   1.777   9.828  0.00  0.00    +0.000 A 
ATOM      6  C   UNL     1      45.654   2.109   8.768  0.00  0.00    +0.000 A 
ATOM      7  F   UNL     1      46.523   1.169   8.361  0.00  0.00    +0.000 F 
ATOM      8  C   UNL     1      45.614   3.364   8.148  0.00  0.00    +0.000 A 
ATOM      9  C   UNL     1      44.787   4.383   8.672  0.00  0.00    +0.000 A 
ATOM     10  C   UNL     1      44.004   4.086   9.801  0.00  0.00    +0.000 A 
ENDROOT
BRANCH   8  11
ATOM     11  C   UNL     1      46.436   3.671   6.942  0.00  0.00    +0.000 C 
ATOM     12  N   UNL     1      46.378   2.811   5.886  0.00  0.00    +0.000 N 
ATOM     13  O   UNL     1      47.136   4.675   6.900  0.00  0.00    +0.000 OA
ATOM     14  H   UNL     1      45.800   1.979   5.877  0.00  0.00    +0.000 HD
ATOM     15  H   UNL     1      46.906   3.036   5.055  0.00  0.00    +0.000 HD
ENDBRANCH   8  11
BRANCH   1  16
ATOM     16  C   UNL     1      43.351   6.236  11.171  0.00  0.00    +0.000 C 
BRANCH  16  20
ATOM     17  C   UNL     1      47.367   6.348  12.848  0.00  0.00    +0.000 A 
ATOM     18  C   UNL     1      47.013   7.190  11.787  0.00  0.00    +0.000 A 
ATOM     19  C   UNL     1      45.710   7.189  11.274  0.00  0.00    +0.000 A 
ATOM     20  C   UNL     1      44.727   6.348  11.816  0.00  0.00    +0.000 A 
ATOM     21  C   UNL     1      45.080   5.524  12.900  0.00  0.00    +0.000 A 
ATOM     22  C   UNL     1      46.383   5.524  13.409  0.00  0.00    +0.000 A 
BRANCH  17  23
ATOM     23  C   UNL     1      48.784   6.314  13.371  0.00  0.00    +0.000 C 
BRANCH  23  24
ATOM     24  C   UNL     1      49.676   7.384  12.733  0.00  0.00    +0.000 C 
BRANCH  24  25
ATOM     25  N   UNL     1      50.791   7.738  13.614  0.00  0.00    +0.000 NA
ATOM     26  H   UNL     1      51.668   7.461  13.175  0.00  0.00    +0.000 HD
ATOM     27  H   UNL     1      50.727   7.205  14.481  0.00  0.00    +0.000 HD
ENDBRANCH  24  25
ENDBRANCH  23  24
ENDBRANCH  17  23
ENDBRANCH  16  20
ENDBRANCH   1  16
TORSDOF 6
ENDMDL
MODEL 8
REMARK VINA RESULT:    -6.362      2.844      6.615
REMARK INTER + INTRA:          -9.270
REMARK INTER:                  -8.587
REMARK INTRA:                  -0.682
REMARK UNBOUND:                -0.861
REMARK  Name = 
REMARK  6 active torsions:
REMARK  status: ('A' for Active; 'I' for Inactive)
REMARK    1  A    between atoms: N_1  and  C_2
REMARK    2  A    between atoms: C_2  and  C_3
REMARK    3  A    between atoms: C_3  and  C_4
REMARK    4  A    between atoms: C_7  and  C_8
REMARK    5  A    between atoms: C_8  and  C_9
REMARK    6  A    between atoms: C_16  and  C_17
REMARK                            x       y       z     vdW  Elec       q    Type
REMARK                         _______ _______ _______ _____ _____    ______ ____
ROOT
ATOM      1  C   UNL     1      46.814   7.474  11.909  0.00  0.00    +0.000 A 
ATOM      2  N   UNL     1      46.194   8.490  12.537  0.00  0.00    +0.000 NA
ATOM      3  O   UNL     1      44.853   8.153  12.539  0.00  0.00    +0.000 OA
ATOM      4  C   UNL     1      44.681   7.000  11.844  0.00  0.00    +0.000 A 
ATOM      5  C   UNL     1      43.503   6.271  11.764  0.00  0.00    +0.000 A 
ATOM      6  C   UNL     1      43.555   5.114  10.989  0.00  0.00    +0.000 A 
ATOM      7  F   UNL     1      42.454   4.346  10.963  0.00  0.00    +0.000 F 
ATOM      8  C   UNL     1      44.699   4.749  10.267  0.00  0.00    +0.000 A 
ATOM      9  C   UNL     1      45.889   5.498  10.409  0.00  0.00    +0.000 A 
ATOM     10  C   UNL     1      45.873   6.614  11.264  0.00  0.00    +0.000 A 
ENDROOT
BRANCH   8  11
ATOM     11  C   UNL     1      44.709   3.574   9.350  0.00  0.00    +0.000 C 
ATOM     12  N   UNL     1      44.826   2.331   9.897  0.00  0.00    +0.000 N 
ATOM     13  O   UNL     1      44.605   3.723   8.139  0.00  0.00    +0.000 OA
ATOM     14  H   UNL     1      44.899   2.166  10.893  0.00  0.00    +0.000 HD
ATOM     15  H   UNL     1      44.797   1.531   9.280  0.00  0.00    +0.000 HD
ENDBRANCH   8  11
BRANCH   1  16
ATOM     16  C   UNL     1      48.270   7.242  12.150  0.00  0.00    +0.000 C 
BRANCH  16  20
ATOM     17  C   UNL     1      48.132   5.385  16.085  0.00  0.00    +0.000 A 
ATOM     18  C   UNL     1      47.420   4.835  15.012  0.00  0.00    +0.000 A 
ATOM     19  C   UNL     1      47.497   5.404  13.734  0.00  0.00    +0.000 A 
ATOM     20  C   UNL     1      48.294   6.534  13.499  0.00  0.00    +0.000 A 
ATOM     21  C   UNL     1      49.030   7.064  14.575  0.00  0.00    +0.000 A 
ATOM     22  C   UNL     1      48.948   6.497  15.851  0.00  0.00    +0.000 A 
BRANCH  17  23
ATOM     23  C   UNL     1      48.012   4.801  17.474  0.00  0.00    +0.000 C 
BRANCH  23  24
ATOM     24  C   UNL     1      47.962   3.269  17.469  0.00  0.00    +0.000 C 
BRANCH  24  25
ATOM     25  N   UNL     1      46.610   2.784  17.760  0.00  0.00    +0.000 NA
ATOM     26  H   UNL     1      46.236   3.291  18.562  0.00  0.00    +0.000 HD
ATOM     27  H   UNL     1      46.648   1.804  18.036  0.00  0.00    +0.000 HD
ENDBRANCH  24  25
ENDBRANCH  23  24
ENDBRANCH  17  23
ENDBRANCH  16  20
ENDBRANCH   1  16
TORSDOF 6
ENDMDL
MODEL 9
REMARK VINA RESULT:    -5.822      3.806      7.503
REMARK INTER + INTRA:          -8.556
REMARK INTER:                  -7.670
REMARK INTRA:                  -0.885
REMARK UNBOUND:                -0.861
REMARK  Name = 
REMARK  6 active torsions:
REMARK  status: ('A' for Active; 'I' for Inactive)
REMARK    1  A    between atoms: N_1  and  C_2
REMARK    2  A    between atoms: C_2  and  C_3
REMARK    3  A    between atoms: C_3  and  C_4
REMARK    4  A    between atoms: C_7  and  C_8
REMARK    5  A    between atoms: C_8  and  C_9
REMARK    6  A    between atoms: C_16  and  C_17
REMARK                            x       y       z     vdW  Elec       q    Type
REMARK                         _______ _______ _______ _____ _____    ______ ____
ROOT
ATOM      1  C   UNL     1      48.774   8.320  12.899  0.00  0.00    +0.000 A 
ATOM      2  N   UNL     1      48.298   9.479  12.407  0.00  0.00    +0.000 NA
ATOM      3  O   UNL     1      46.945   9.263  12.215  0.00  0.00    +0.000 OA
ATOM      4  C   UNL     1      46.652   7.971  12.507  0.00  0.00    +0.000 A 
ATOM      5  C   UNL     1      45.378   7.427  12.585  0.00  0.00    +0.000 A 
ATOM      6  C   UNL     1      45.313   6.070  12.898  0.00  0.00    +0.000 A 
ATOM      7  F   UNL     1      44.091   5.539  13.063  0.00  0.00    +0.000 F 
ATOM      8  C   UNL     1      46.463   5.283  13.045  0.00  0.00    +0.000 A 
ATOM      9  C   UNL     1      47.740   5.885  12.997  0.00  0.00    +0.000 A 
ATOM     10  C   UNL     1      47.811   7.272  12.776  0.00  0.00    +0.000 A 
ENDROOT
BRANCH   8  11
ATOM     11  C   UNL     1      46.383   3.810  13.266  0.00  0.00    +0.000 C 
ATOM     12  N   UNL     1      45.471   3.098  12.545  0.00  0.00    +0.000 N 
ATOM     13  O   UNL     1      47.125   3.256  14.067  0.00  0.00    +0.000 OA
ATOM     14  H   UNL     1      44.851   3.518  11.862  0.00  0.00    +0.000 HD
ATOM     15  H   UNL     1      45.441   2.096  12.666  0.00  0.00    +0.000 HD
ENDBRANCH   8  11
BRANCH   1  16
ATOM     16  C   UNL     1      50.048   8.324  13.678  0.00  0.00    +0.000 C 
BRANCH  16  20
ATOM     17  C   UNL     1      48.471   7.751  17.696  0.00  0.00    +0.000 A 
ATOM     18  C   UNL     1      49.269   6.769  17.096  0.00  0.00    +0.000 A 
ATOM     19  C   UNL     1      49.815   6.969  15.821  0.00  0.00    +0.000 A 
ATOM     20  C   UNL     1      49.580   8.159  15.119  0.00  0.00    +0.000 A 
ATOM     21  C   UNL     1      48.801   9.154  15.739  0.00  0.00    +0.000 A 
ATOM     22  C   UNL     1      48.254   8.951  17.010  0.00  0.00    +0.000 A 
BRANCH  17  23
ATOM     23  C   UNL     1      47.843   7.517  19.050  0.00  0.00    +0.000 C 
BRANCH  23  24
ATOM     24  C   UNL     1      47.675   6.029  19.375  0.00  0.00    +0.000 C 
BRANCH  24  25
ATOM     25  N   UNL     1      46.401   5.517  18.866  0.00  0.00    +0.000 NA
ATOM     26  H   UNL     1      46.147   6.028  18.020  0.00  0.00    +0.000 HD
ATOM     27  H   UNL     1      45.660   5.702  19.541  0.00  0.00    +0.000 HD
ENDBRANCH  24  25
ENDBRANCH  23  24
ENDBRANCH  17  23
ENDBRANCH  16  20
ENDBRANCH   1  16
TORSDOF 6
ENDMDL
