MODEL 1
REMARK VINA RESULT:    -8.556      0.000      0.000
REMARK INTER + INTRA:         -12.236
REMARK INTER:                 -11.557
REMARK INTRA:                  -0.678
REMARK UNBOUND:                -0.678
REMARK  Name = 
REMARK  6 active torsions:
REMARK  status: ('A' for Active; 'I' for Inactive)
REMARK    1  A    between atoms: C_2  and  C_25
REMARK    2  A    between atoms: N_3  and  C_4
REMARK    3  A    between atoms: C_4  and  C_5
REMARK    4  A    between atoms: C_8  and  C_9
REMARK    5  A    between atoms: C_9  and  N_10
REMARK    6  A    between atoms: C_11  and  C_13
REMARK                            x       y       z     vdW  Elec       q    Type
REMARK                         _______ _______ _______ _____ _____    ______ ____
ROOT
ATOM      1  C   UNL     1      44.573   5.589  11.354  0.00  0.00    +0.000 A 
ATOM      2  C   UNL     1      45.629   5.014  12.074  0.00  0.00    +0.000 A 
ATOM      3  C   UNL     1      46.518   5.816  12.799  0.00  0.00    +0.000 A 
ATOM      4  C   UNL     1      46.355   7.208  12.837  0.00  0.00    +0.000 A 
ATOM      5  C   UNL     1      45.292   7.780  12.127  0.00  0.00    +0.000 A 
ATOM      6  C   UNL     1      44.403   6.978  11.403  0.00  0.00    +0.000 A 
ENDROOT
BRANCH   1   7
ATOM      7  C   UNL     1      43.672   4.736  10.502  0.00  0.00    +0.000 C 
BRANCH   7  10
ATOM      8  O   UNL     1      45.475   5.099   8.439  0.00  0.00    +0.000 OA
ATOM      9  C   UNL     1      45.245   3.950   8.812  0.00  0.00    +0.000 C 
ATOM     10  N   UNL     1      44.352   3.660   9.826  0.00  0.00    +0.000 N 
ATOM     11  H   UNL     1      44.206   2.695  10.104  0.00  0.00    +0.000 HD
BRANCH   9  12
ATOM     12  C   UNL     1      45.944   2.804   8.170  0.00  0.00    +0.000 A 
ATOM     13  C   UNL     1      46.802   3.021   7.099  0.00  0.00    +0.000 A 
ATOM     14  C   UNL     1      47.440   1.924   6.534  0.00  0.00    +0.000 A 
ATOM     15  C   UNL     1      47.179   0.677   7.066  0.00  0.00    +0.000 A 
ATOM     16  N   UNL     1      46.338   0.491   8.109  0.00  0.00    +0.000 NA
ATOM     17  N   UNL     1      45.711   1.569   8.672  0.00  0.00    +0.000 NA
ENDBRANCH   9  12
ENDBRANCH   7  10
ENDBRANCH   1   7
BRANCH   4  18
ATOM     18  C   UNL     1      47.323   8.082  13.592  0.00  0.00    +0.000 C 
BRANCH  18  19
ATOM     19  N   UNL     1      47.728   7.475  14.837  0.00  0.00    +0.000 N 
ATOM     20  C   UNL     1      48.989   6.957  14.992  0.00  0.00    +0.000 C 
ATOM     21  O   UNL     1      49.830   7.020  14.098  0.00  0.00    +0.000 OA
ATOM     22  H   UNL     1      46.994   7.216  15.491  0.00  0.00    +0.000 HD
BRANCH  20  23
ATOM     23  C   UNL     1      49.313   6.375  16.302  0.00  0.00    +0.000 A 
ATOM     24  C   UNL     1      50.267   6.988  17.105  0.00  0.00    +0.000 A 
ATOM     25  S   UNL     1      50.486   6.225  18.614  0.00  0.00    +0.000 S 
ATOM     26  C   UNL     1      49.353   5.016  18.227  0.00  0.00    +0.000 A 
ATOM     27  N   UNL     1      49.080   4.009  19.100  0.00  0.00    +0.000 NA
ATOM     28  C   UNL     1      48.233   3.139  18.662  0.00  0.00    +0.000 A 
ATOM     29  N   UNL     1      47.627   3.189  17.434  0.00  0.00    +0.000 N 
ATOM     30  C   UNL     1      47.844   4.206  16.534  0.00  0.00    +0.000 A 
ATOM     31  O   UNL     1      47.250   4.246  15.461  0.00  0.00    +0.000 OA
ATOM     32  C   UNL     1      48.803   5.202  16.971  0.00  0.00    +0.000 A 
ATOM     33  H   UNL     1      46.965   2.480  17.154  0.00  0.00    +0.000 HD
ENDBRANCH  20  23
ENDBRANCH  18  19
ENDBRANCH   4  18
TORSDOF 6
ENDMDL
MODEL 2
REMARK VINA RESULT:    -8.001      1.628      2.123
REMARK INTER + INTRA:         -11.486
REMARK INTER:                 -10.458
REMARK INTRA:                  -1.028
REMARK UNBOUND:                -0.678
REMARK  Name = 
REMARK  6 active torsions:
REMARK  status: ('A' for Active; 'I' for Inactive)
REMARK    1  A    between atoms: C_2  and  C_25
REMARK    2  A    between atoms: N_3  and  C_4
REMARK    3  A    between atoms: C_4  and  C_5
REMARK    4  A    between atoms: C_8  and  C_9
REMARK    5  A    between atoms: C_9  and  N_10
REMARK    6  A    between atoms: C_11  and  C_13
REMARK                            x       y       z     vdW  Elec       q    Type
REMARK                         _______ _______ _______ _____ _____    ______ ____
ROOT
ATOM      1  C   UNL     1      44.796   5.313  11.755  0.00  0.00    +0.000 A 
ATOM      2  C   UNL     1      44.417   6.596  11.337  0.00  0.00    +0.000 A 
ATOM      3  C   UNL     1      45.040   7.732  11.864  0.00  0.00    +0.000 A 
ATOM      4  C   UNL     1      46.073   7.609  12.803  0.00  0.00    +0.000 A 
ATOM      5  C   UNL     1      46.460   6.326  13.212  0.00  0.00    +0.000 A 
ATOM      6  C   UNL     1      45.836   5.190  12.685  0.00  0.00    +0.000 A 
ENDROOT
BRANCH   1   7
ATOM      7  C   UNL     1      44.065   4.096  11.257  0.00  0.00    +0.000 C 
BRANCH   7  10
ATOM      8  O   UNL     1      44.203   4.384   8.512  0.00  0.00    +0.000 OA
ATOM      9  C   UNL     1      44.862   3.487   9.034  0.00  0.00    +0.000 C 
ATOM     10  N   UNL     1      44.854   3.251  10.395  0.00  0.00    +0.000 N 
ATOM     11  H   UNL     1      45.425   2.505  10.778  0.00  0.00    +0.000 HD
BRANCH   9  12
ATOM     12  C   UNL     1      45.720   2.607   8.194  0.00  0.00    +0.000 A 
ATOM     13  C   UNL     1      46.334   3.111   7.055  0.00  0.00    +0.000 A 
ATOM     14  C   UNL     1      47.130   2.257   6.303  0.00  0.00    +0.000 A 
ATOM     15  C   UNL     1      47.262   0.950   6.729  0.00  0.00    +0.000 A 
ATOM     16  N   UNL     1      46.653   0.482   7.843  0.00  0.00    +0.000 NA
ATOM     17  N   UNL     1      45.871   1.321   8.588  0.00  0.00    +0.000 NA
ENDBRANCH   9  12
ENDBRANCH   7  10
ENDBRANCH   1   7
BRANCH   4  18
ATOM     18  C   UNL     1      46.732   8.827  13.397  0.00  0.00    +0.000 C 
BRANCH  18  19
ATOM     19  N   UNL     1      47.232   8.567  14.725  0.00  0.00    +0.000 N 
ATOM     20  C   UNL     1      48.283   9.288  15.236  0.00  0.00    +0.000 C 
ATOM     21  O   UNL     1      48.811  10.200  14.604  0.00  0.00    +0.000 OA
ATOM     22  H   UNL     1      46.966   7.689  15.161  0.00  0.00    +0.000 HD
BRANCH  20  23
ATOM     23  C   UNL     1      48.711   8.961  16.603  0.00  0.00    +0.000 A 
ATOM     24  C   UNL     1      48.756   9.964  17.564  0.00  0.00    +0.000 A 
ATOM     25  S   UNL     1      49.215   9.413  19.110  0.00  0.00    +0.000 S 
ATOM     26  C   UNL     1      49.424   7.824  18.540  0.00  0.00    +0.000 A 
ATOM     27  N   UNL     1      49.844   6.833  19.372  0.00  0.00    +0.000 NA
ATOM     28  C   UNL     1      50.000   5.687  18.800  0.00  0.00    +0.000 A 
ATOM     29  N   UNL     1      49.765   5.439  17.473  0.00  0.00    +0.000 N 
ATOM     30  C   UNL     1      49.305   6.399  16.602  0.00  0.00    +0.000 A 
ATOM     31  O   UNL     1      49.060   6.133  15.430  0.00  0.00    +0.000 OA
ATOM     32  C   UNL     1      49.131   7.713  17.192  0.00  0.00    +0.000 A 
ATOM     33  H   UNL     1      49.898   4.515  17.087  0.00  0.00    +0.000 HD
ENDBRANCH  20  23
ENDBRANCH  18  19
ENDBRANCH   4  18
TORSDOF 6
ENDMDL
MODEL 3
REMARK VINA RESULT:    -7.450      4.704      9.937
REMARK INTER + INTRA:         -10.741
REMARK INTER:                  -9.909
REMARK INTRA:                  -0.833
REMARK UNBOUND:                -0.678
REMARK  Name = 
REMARK  6 active torsions:
REMARK  status: ('A' for Active; 'I' for Inactive)
REMARK    1  A    between atoms: C_2  and  C_25
REMARK    2  A    between atoms: N_3  and  C_4
REMARK    3  A    between atoms: C_4  and  C_5
REMARK    4  A    between atoms: C_8  and  C_9
REMARK    5  A    between atoms: C_9  and  N_10
REMARK    6  A    between atoms: C_11  and  C_13
REMARK                            x       y       z     vdW  Elec       q    Type
REMARK                         _______ _______ _______ _____ _____    ______ ____
ROOT
ATOM      1  C   UNL     1      51.333   3.275  17.816  0.00  0.00    +0.000 A 
ATOM      2  C   UNL     1      50.573   4.414  18.117  0.00  0.00    +0.000 A 
ATOM      3  C   UNL     1      49.205   4.457  17.823  0.00  0.00    +0.000 A 
ATOM      4  C   UNL     1      48.565   3.353  17.245  0.00  0.00    +0.000 A 
ATOM      5  C   UNL     1      49.322   2.211  16.956  0.00  0.00    +0.000 A 
ATOM      6  C   UNL     1      50.690   2.168  17.249  0.00  0.00    +0.000 A 
ENDROOT
BRANCH   1   7
ATOM      7  C   UNL     1      52.820   3.262  18.047  0.00  0.00    +0.000 C 
BRANCH   7  10
ATOM      8  O   UNL     1      54.505   1.317  17.041  0.00  0.00    +0.000 OA
ATOM      9  C   UNL     1      54.136   1.215  18.209  0.00  0.00    +0.000 C 
ATOM     10  N   UNL     1      53.285   2.126  18.804  0.00  0.00    +0.000 N 
ATOM     11  H   UNL     1      53.018   2.003  19.775  0.00  0.00    +0.000 HD
BRANCH   9  12
ATOM     12  C   UNL     1      54.612   0.080  19.045  0.00  0.00    +0.000 A 
ATOM     13  C   UNL     1      54.684  -1.200  18.509  0.00  0.00    +0.000 A 
ATOM     14  C   UNL     1      55.139  -2.230  19.322  0.00  0.00    +0.000 A 
ATOM     15  C   UNL     1      55.490  -1.923  20.622  0.00  0.00    +0.000 A 
ATOM     16  N   UNL     1      55.410  -0.669  21.121  0.00  0.00    +0.000 NA
ATOM     17  N   UNL     1      54.966   0.350  20.323  0.00  0.00    +0.000 NA
ENDBRANCH   9  12
ENDBRANCH   7  10
ENDBRANCH   1   7
BRANCH   4  18
ATOM     18  C   UNL     1      47.098   3.400  16.900  0.00  0.00    +0.000 C 
BRANCH  18  19
ATOM     19  N   UNL     1      46.817   4.412  15.911  0.00  0.00    +0.000 N 
ATOM     20  C   UNL     1      46.930   4.137  14.570  0.00  0.00    +0.000 C 
ATOM     21  O   UNL     1      47.237   3.020  14.161  0.00  0.00    +0.000 OA
ATOM     22  H   UNL     1      46.785   5.377  16.225  0.00  0.00    +0.000 HD
BRANCH  20  23
ATOM     23  C   UNL     1      46.606   5.227  13.639  0.00  0.00    +0.000 A 
ATOM     24  C   UNL     1      47.564   6.192  13.356  0.00  0.00    +0.000 A 
ATOM     25  S   UNL     1      47.054   7.353  12.216  0.00  0.00    +0.000 S 
ATOM     26  C   UNL     1      45.514   6.639  12.100  0.00  0.00    +0.000 A 
ATOM     27  N   UNL     1      44.556   7.170  11.293  0.00  0.00    +0.000 NA
ATOM     28  C   UNL     1      43.423   6.554  11.333  0.00  0.00    +0.000 A 
ATOM     29  N   UNL     1      43.162   5.448  12.100  0.00  0.00    +0.000 N 
ATOM     30  C   UNL     1      44.108   4.855  12.902  0.00  0.00    +0.000 A 
ATOM     31  O   UNL     1      43.857   3.838  13.541  0.00  0.00    +0.000 OA
ATOM     32  C   UNL     1      45.397   5.521  12.908  0.00  0.00    +0.000 A 
ATOM     33  H   UNL     1      42.255   5.006  12.079  0.00  0.00    +0.000 HD
ENDBRANCH  20  23
ENDBRANCH  18  19
ENDBRANCH   4  18
TORSDOF 6
ENDMDL
MODEL 4
REMARK VINA RESULT:    -7.031      4.956      9.350
REMARK INTER + INTRA:         -10.176
REMARK INTER:                  -9.093
REMARK INTRA:                  -1.083
REMARK UNBOUND:                -0.678
REMARK  Name = 
REMARK  6 active torsions:
REMARK  status: ('A' for Active; 'I' for Inactive)
REMARK    1  A    between atoms: C_2  and  C_25
REMARK    2  A    between atoms: N_3  and  C_4
REMARK    3  A    between atoms: C_4  and  C_5
REMARK    4  A    between atoms: C_8  and  C_9
REMARK    5  A    between atoms: C_9  and  N_10
REMARK    6  A    between atoms: C_11  and  C_13
REMARK                            x       y       z     vdW  Elec       q    Type
REMARK                         _______ _______ _______ _____ _____    ______ ____
ROOT
ATOM      1  C   UNL     1      51.331   2.797  17.740  0.00  0.00    +0.000 A 
ATOM      2  C   UNL     1      50.770   4.027  18.111  0.00  0.00    +0.000 A 
ATOM      3  C   UNL     1      49.433   4.319  17.819  0.00  0.00    +0.000 A 
ATOM      4  C   UNL     1      48.622   3.377  17.171  0.00  0.00    +0.000 A 
ATOM      5  C   UNL     1      49.180   2.143  16.811  0.00  0.00    +0.000 A 
ATOM      6  C   UNL     1      50.517   1.852  17.103  0.00  0.00    +0.000 A 
ENDROOT
BRANCH   1   7
ATOM      7  C   UNL     1      52.791   2.519  17.972  0.00  0.00    +0.000 C 
BRANCH   7  10
ATOM      8  O   UNL     1      54.952   1.349  16.706  0.00  0.00    +0.000 OA
ATOM      9  C   UNL     1      54.225   0.633  17.391  0.00  0.00    +0.000 C 
ATOM     10  N   UNL     1      53.114   1.116  18.055  0.00  0.00    +0.000 N 
ATOM     11  H   UNL     1      52.553   0.485  18.618  0.00  0.00    +0.000 HD
BRANCH   9  12
ATOM     12  C   UNL     1      54.531  -0.816  17.538  0.00  0.00    +0.000 A 
ATOM     13  C   UNL     1      55.026  -1.538  16.459  0.00  0.00    +0.000 A 
ATOM     14  C   UNL     1      55.304  -2.887  16.641  0.00  0.00    +0.000 A 
ATOM     15  C   UNL     1      55.067  -3.435  17.886  0.00  0.00    +0.000 A 
ATOM     16  N   UNL     1      54.584  -2.711  18.921  0.00  0.00    +0.000 NA
ATOM     17  N   UNL     1      54.312  -1.381  18.748  0.00  0.00    +0.000 NA
ENDBRANCH   9  12
ENDBRANCH   7  10
ENDBRANCH   1   7
BRANCH   4  18
ATOM     18  C   UNL     1      47.189   3.692  16.828  0.00  0.00    +0.000 C 
BRANCH  18  19
ATOM     19  N   UNL     1      47.098   4.692  15.792  0.00  0.00    +0.000 N 
ATOM     20  C   UNL     1      47.126   4.339  14.466  0.00  0.00    +0.000 C 
ATOM     21  O   UNL     1      47.192   3.164  14.110  0.00  0.00    +0.000 OA
ATOM     22  H   UNL     1      47.269   5.658  16.059  0.00  0.00    +0.000 HD
BRANCH  20  23
ATOM     23  C   UNL     1      47.010   5.427  13.485  0.00  0.00    +0.000 A 
ATOM     24  C   UNL     1      45.996   5.387  12.537  0.00  0.00    +0.000 A 
ATOM     25  S   UNL     1      45.961   6.748  11.511  0.00  0.00    +0.000 S 
ATOM     26  C   UNL     1      47.335   7.415  12.262  0.00  0.00    +0.000 A 
ATOM     27  N   UNL     1      47.861   8.595  11.836  0.00  0.00    +0.000 NA
ATOM     28  C   UNL     1      48.926   8.963  12.466  0.00  0.00    +0.000 A 
ATOM     29  N   UNL     1      49.507   8.262  13.491  0.00  0.00    +0.000 N 
ATOM     30  C   UNL     1      48.991   7.085  13.980  0.00  0.00    +0.000 A 
ATOM     31  O   UNL     1      49.509   6.507  14.930  0.00  0.00    +0.000 OA
ATOM     32  C   UNL     1      47.802   6.617  13.292  0.00  0.00    +0.000 A 
ATOM     33  H   UNL     1      50.336   8.610  13.951  0.00  0.00    +0.000 HD
ENDBRANCH  20  23
ENDBRANCH  18  19
ENDBRANCH   4  18
TORSDOF 6
ENDMDL
MODEL 5
REMARK VINA RESULT:    -6.888      2.984      4.067
REMARK INTER + INTRA:          -9.982
REMARK INTER:                  -9.049
REMARK INTRA:                  -0.933
REMARK UNBOUND:                -0.678
REMARK  Name = 
REMARK  6 active torsions:
REMARK  status: ('A' for Active; 'I' for Inactive)
REMARK    1  A    between atoms: C_2  and  C_25
REMARK    2  A    between atoms: N_3  and  C_4
REMARK    3  A    between atoms: C_4  and  C_5
REMARK    4  A    between atoms: C_8  and  C_9
REMARK    5  A    between atoms: C_9  and  N_10
REMARK    6  A    between atoms: C_11  and  C_13
REMARK                            x       y       z     vdW  Elec       q    Type
REMARK                         _______ _______ _______ _____ _____    ______ ____
ROOT
ATOM      1  C   UNL     1      47.828   7.364  13.227  0.00  0.00    +0.000 A 
ATOM      2  C   UNL     1      48.921   8.141  12.820  0.00  0.00    +0.000 A 
ATOM      3  C   UNL     1      50.062   8.245  13.624  0.00  0.00    +0.000 A 
ATOM      4  C   UNL     1      50.143   7.553  14.840  0.00  0.00    +0.000 A 
ATOM      5  C   UNL     1      49.055   6.767  15.240  0.00  0.00    +0.000 A 
ATOM      6  C   UNL     1      47.914   6.664  14.436  0.00  0.00    +0.000 A 
ENDROOT
BRANCH   1   7
ATOM      7  C   UNL     1      46.567   7.326  12.407  0.00  0.00    +0.000 C 
BRANCH   7  10
ATOM      8  O   UNL     1      44.273   6.353  11.210  0.00  0.00    +0.000 OA
ATOM      9  C   UNL     1      45.354   5.890  10.852  0.00  0.00    +0.000 C 
ATOM     10  N   UNL     1      46.557   6.298  11.396  0.00  0.00    +0.000 N 
ATOM     11  H   UNL     1      47.423   5.892  11.057  0.00  0.00    +0.000 HD
BRANCH   9  12
ATOM     12  C   UNL     1      45.404   4.850   9.788  0.00  0.00    +0.000 A 
ATOM     13  C   UNL     1      44.844   3.598  10.008  0.00  0.00    +0.000 A 
ATOM     14  C   UNL     1      44.907   2.660   8.986  0.00  0.00    +0.000 A 
ATOM     15  C   UNL     1      45.530   3.024   7.809  0.00  0.00    +0.000 A 
ATOM     16  N   UNL     1      46.070   4.250   7.619  0.00  0.00    +0.000 NA
ATOM     17  N   UNL     1      46.006   5.179   8.621  0.00  0.00    +0.000 NA
ENDBRANCH   9  12
ENDBRANCH   7  10
ENDBRANCH   1   7
BRANCH   4  18
ATOM     18  C   UNL     1      51.356   7.680  15.726  0.00  0.00    +0.000 C 
BRANCH  18  19
ATOM     19  N   UNL     1      51.885   6.388  16.091  0.00  0.00    +0.000 N 
ATOM     20  C   UNL     1      52.380   6.160  17.350  0.00  0.00    +0.000 C 
ATOM     21  O   UNL     1      52.359   7.026  18.222  0.00  0.00    +0.000 OA
ATOM     22  H   UNL     1      52.114   5.747  15.336  0.00  0.00    +0.000 HD
BRANCH  20  23
ATOM     23  C   UNL     1      52.881   4.807  17.632  0.00  0.00    +0.000 A 
ATOM     24  C   UNL     1      54.226   4.625  17.928  0.00  0.00    +0.000 A 
ATOM     25  S   UNL     1      54.638   3.009  18.287  0.00  0.00    +0.000 S 
ATOM     26  C   UNL     1      53.043   2.486  18.007  0.00  0.00    +0.000 A 
ATOM     27  N   UNL     1      52.709   1.172  18.119  0.00  0.00    +0.000 NA
ATOM     28  C   UNL     1      51.477   0.909  17.838  0.00  0.00    +0.000 A 
ATOM     29  N   UNL     1      50.546   1.842  17.464  0.00  0.00    +0.000 N 
ATOM     30  C   UNL     1      50.827   3.185  17.373  0.00  0.00    +0.000 A 
ATOM     31  O   UNL     1      49.959   4.001  17.080  0.00  0.00    +0.000 OA
ATOM     32  C   UNL     1      52.206   3.532  17.661  0.00  0.00    +0.000 A 
ATOM     33  H   UNL     1      49.593   1.572  17.267  0.00  0.00    +0.000 HD
ENDBRANCH  20  23
ENDBRANCH  18  19
ENDBRANCH   4  18
TORSDOF 6
ENDMDL
MODEL 6
REMARK VINA RESULT:    -6.823      2.996      3.288
REMARK INTER + INTRA:          -9.894
REMARK INTER:                  -9.226
REMARK INTRA:                  -0.668
REMARK UNBOUND:                -0.678
REMARK  Name = 
REMARK  6 active torsions:
REMARK  status: ('A' for Active; 'I' for Inactive)
REMARK    1  A    between atoms: C_2  and  C_25
REMARK    2  A    between atoms: N_3  and  C_4
REMARK    3  A    between atoms: C_4  and  C_5
REMARK    4  A    between atoms: C_8  and  C_9
REMARK    5  A    between atoms: C_9  and  N_10
REMARK    6  A    between atoms: C_11  and  C_13
REMARK                            x       y       z     vdW  Elec       q    Type
REMARK                         _______ _______ _______ _____ _____    ______ ____
ROOT
ATOM      1  C   UNL     1      44.838   4.783  11.891  0.00  0.00    +0.000 A 
ATOM      2  C   UNL     1      43.912   5.619  12.530  0.00  0.00    +0.000 A 
ATOM      3  C   UNL     1      44.273   6.911  12.931  0.00  0.00    +0.000 A 
ATOM      4  C   UNL     1      45.562   7.401  12.680  0.00  0.00    +0.000 A 
ATOM      5  C   UNL     1      46.483   6.569  12.030  0.00  0.00    +0.000 A 
ATOM      6  C   UNL     1      46.121   5.278  11.630  0.00  0.00    +0.000 A 
ENDROOT
BRANCH   1   7
ATOM      7  C   UNL     1      44.477   3.365  11.542  0.00  0.00    +0.000 C 
BRANCH   7  10
ATOM      8  O   UNL     1      44.127   3.872   8.848  0.00  0.00    +0.000 OA
ATOM      9  C   UNL     1      45.041   3.121   9.182  0.00  0.00    +0.000 C 
ATOM     10  N   UNL     1      45.293   2.793  10.500  0.00  0.00    +0.000 N 
ATOM     11  H   UNL     1      46.068   2.177  10.723  0.00  0.00    +0.000 HD
BRANCH   9  12
ATOM     12  C   UNL     1      45.934   2.529   8.149  0.00  0.00    +0.000 A 
ATOM     13  C   UNL     1      46.414   3.315   7.109  0.00  0.00    +0.000 A 
ATOM     14  C   UNL     1      47.250   2.725   6.169  0.00  0.00    +0.000 A 
ATOM     15  C   UNL     1      47.552   1.386   6.320  0.00  0.00    +0.000 A 
ATOM     16  N   UNL     1      47.071   0.641   7.342  0.00  0.00    +0.000 NA
ATOM     17  N   UNL     1      46.250   1.219   8.272  0.00  0.00    +0.000 NA
ENDBRANCH   9  12
ENDBRANCH   7  10
ENDBRANCH   1   7
BRANCH   4  18
ATOM     18  C   UNL     1      45.970   8.780  13.132  0.00  0.00    +0.000 C 
BRANCH  18  19
ATOM     19  N   UNL     1      46.949   8.724  14.190  0.00  0.00    +0.000 N 
ATOM     20  C   UNL     1      48.147   9.384  14.077  0.00  0.00    +0.000 C 
ATOM     21  O   UNL     1      48.418  10.072  13.095  0.00  0.00    +0.000 OA
ATOM     22  H   UNL     1      46.840   7.995  14.889  0.00  0.00    +0.000 HD
BRANCH  20  23
ATOM     23  C   UNL     1      49.072   9.282  15.214  0.00  0.00    +0.000 A 
ATOM     24  C   UNL     1      48.707   9.818  16.443  0.00  0.00    +0.000 A 
ATOM     25  S   UNL     1      49.862   9.567  17.672  0.00  0.00    +0.000 S 
ATOM     26  C   UNL     1      50.917   8.781  16.593  0.00  0.00    +0.000 A 
ATOM     27  N   UNL     1      52.129   8.326  17.009  0.00  0.00    +0.000 NA
ATOM     28  C   UNL     1      52.844   7.787  16.078  0.00  0.00    +0.000 A 
ATOM     29  N   UNL     1      52.453   7.655  14.772  0.00  0.00    +0.000 N 
ATOM     30  C   UNL     1      51.224   8.067  14.314  0.00  0.00    +0.000 A 
ATOM     31  O   UNL     1      50.886   7.892  13.147  0.00  0.00    +0.000 OA
ATOM     32  C   UNL     1      50.387   8.697  15.317  0.00  0.00    +0.000 A 
ATOM     33  H   UNL     1      53.057   7.215  14.093  0.00  0.00    +0.000 HD
ENDBRANCH  20  23
ENDBRANCH  18  19
ENDBRANCH   4  18
TORSDOF 6
ENDMDL
MODEL 7
REMARK VINA RESULT:    -6.734      5.008      7.712
REMARK INTER + INTRA:          -9.775
REMARK INTER:                  -8.927
REMARK INTRA:                  -0.848
REMARK UNBOUND:                -0.678
REMARK  Name = 
REMARK  6 active torsions:
REMARK  status: ('A' for Active; 'I' for Inactive)
REMARK    1  A    between atoms: C_2  and  C_25
REMARK    2  A    between atoms: N_3  and  C_4
REMARK    3  A    between atoms: C_4  and  C_5
REMARK    4  A    between atoms: C_8  and  C_9
REMARK    5  A    between atoms: C_9  and  N_10
REMARK    6  A    between atoms: C_11  and  C_13
REMARK                            x       y       z     vdW  Elec       q    Type
REMARK                         _______ _______ _______ _____ _____    ______ ____
ROOT
ATOM      1  C   UNL     1      50.843   8.360  12.294  0.00  0.00    +0.000 A 
ATOM      2  C   UNL     1      50.305   9.008  13.413  0.00  0.00    +0.000 A 
ATOM      3  C   UNL     1      48.939   8.912  13.706  0.00  0.00    +0.000 A 
ATOM      4  C   UNL     1      48.089   8.145  12.898  0.00  0.00    +0.000 A 
ATOM      5  C   UNL     1      48.630   7.487  11.786  0.00  0.00    +0.000 A 
ATOM      6  C   UNL     1      49.995   7.584  11.494  0.00  0.00    +0.000 A 
ENDROOT
BRANCH   1   7
ATOM      7  C   UNL     1      52.291   8.538  11.927  0.00  0.00    +0.000 C 
BRANCH   7  10
ATOM      8  O   UNL     1      52.591   9.377   9.311  0.00  0.00    +0.000 OA
ATOM      9  C   UNL     1      52.859   8.207   9.578  0.00  0.00    +0.000 C 
ATOM     10  N   UNL     1      52.732   7.685  10.851  0.00  0.00    +0.000 N 
ATOM     11  H   UNL     1      52.977   6.715  11.021  0.00  0.00    +0.000 HD
BRANCH   9  12
ATOM     12  C   UNL     1      53.349   7.293   8.511  0.00  0.00    +0.000 A 
ATOM     13  C   UNL     1      54.713   7.105   8.325  0.00  0.00    +0.000 A 
ATOM     14  C   UNL     1      55.128   6.239   7.322  0.00  0.00    +0.000 A 
ATOM     15  C   UNL     1      54.158   5.615   6.561  0.00  0.00    +0.000 A 
ATOM     16  N   UNL     1      52.835   5.815   6.762  0.00  0.00    +0.000 NA
ATOM     17  N   UNL     1      52.422   6.665   7.751  0.00  0.00    +0.000 NA
ENDBRANCH   9  12
ENDBRANCH   7  10
ENDBRANCH   1   7
BRANCH   4  18
ATOM     18  C   UNL     1      46.613   8.057  13.189  0.00  0.00    +0.000 C 
BRANCH  18  19
ATOM     19  N   UNL     1      46.078   6.763  12.841  0.00  0.00    +0.000 N 
ATOM     20  C   UNL     1      45.078   6.641  11.908  0.00  0.00    +0.000 C 
ATOM     21  O   UNL     1      44.627   7.616  11.311  0.00  0.00    +0.000 OA
ATOM     22  H   UNL     1      46.273   5.991  13.472  0.00  0.00    +0.000 HD
BRANCH  20  23
ATOM     23  C   UNL     1      44.611   5.280  11.608  0.00  0.00    +0.000 A 
ATOM     24  C   UNL     1      43.859   4.592  12.552  0.00  0.00    +0.000 A 
ATOM     25  S   UNL     1      43.346   3.052  12.031  0.00  0.00    +0.000 S 
ATOM     26  C   UNL     1      44.156   3.227  10.545  0.00  0.00    +0.000 A 
ATOM     27  N   UNL     1      44.141   2.230   9.619  0.00  0.00    +0.000 NA
ATOM     28  C   UNL     1      44.830   2.479   8.556  0.00  0.00    +0.000 A 
ATOM     29  N   UNL     1      45.525   3.639   8.331  0.00  0.00    +0.000 N 
ATOM     30  C   UNL     1      45.540   4.687   9.220  0.00  0.00    +0.000 A 
ATOM     31  O   UNL     1      46.135   5.730   8.967  0.00  0.00    +0.000 OA
ATOM     32  C   UNL     1      44.795   4.451  10.442  0.00  0.00    +0.000 A 
ATOM     33  H   UNL     1      46.039   3.776   7.472  0.00  0.00    +0.000 HD
ENDBRANCH  20  23
ENDBRANCH  18  19
ENDBRANCH   4  18
TORSDOF 6
ENDMDL
MODEL 8
REMARK VINA RESULT:    -6.662      1.989      2.761
REMARK INTER + INTRA:          -9.677
REMARK INTER:                  -9.480
REMARK INTRA:                  -0.198
REMARK UNBOUND:                -0.678
REMARK  Name = 
REMARK  6 active torsions:
REMARK  status: ('A' for Active; 'I' for Inactive)
REMARK    1  A    between atoms: C_2  and  C_25
REMARK    2  A    between atoms: N_3  and  C_4
REMARK    3  A    between atoms: C_4  and  C_5
REMARK    4  A    between atoms: C_8  and  C_9
REMARK    5  A    between atoms: C_9  and  N_10
REMARK    6  A    between atoms: C_11  and  C_13
REMARK                            x       y       z     vdW  Elec       q    Type
REMARK                         _______ _______ _______ _____ _____    ______ ____
ROOT
ATOM      1  C   UNL     1      45.222   6.044  11.381  0.00  0.00    +0.000 A 
ATOM      2  C   UNL     1      45.271   7.445  11.369  0.00  0.00    +0.000 A 
ATOM      3  C   UNL     1      46.041   8.140  12.309  0.00  0.00    +0.000 A 
ATOM      4  C   UNL     1      46.797   7.447  13.265  0.00  0.00    +0.000 A 
ATOM      5  C   UNL     1      46.756   6.047  13.268  0.00  0.00    +0.000 A 
ATOM      6  C   UNL     1      45.986   5.353  12.329  0.00  0.00    +0.000 A 
ENDROOT
BRANCH   1   7
ATOM      7  C   UNL     1      44.323   5.300  10.431  0.00  0.00    +0.000 C 
BRANCH   7  10
ATOM      8  O   UNL     1      44.996   2.630  10.186  0.00  0.00    +0.000 OA
ATOM      9  C   UNL     1      45.290   3.389   9.264  0.00  0.00    +0.000 C 
ATOM     10  N   UNL     1      45.010   4.741   9.293  0.00  0.00    +0.000 N 
ATOM     11  H   UNL     1      45.264   5.322   8.500  0.00  0.00    +0.000 HD
BRANCH   9  12
ATOM     12  C   UNL     1      45.971   2.858   8.051  0.00  0.00    +0.000 A 
ATOM     13  C   UNL     1      46.432   1.548   8.027  0.00  0.00    +0.000 A 
ATOM     14  C   UNL     1      47.056   1.091   6.873  0.00  0.00    +0.000 A 
ATOM     15  C   UNL     1      47.187   1.969   5.815  0.00  0.00    +0.000 A 
ATOM     16  N   UNL     1      46.729   3.242   5.864  0.00  0.00    +0.000 NA
ATOM     17  N   UNL     1      46.111   3.695   6.997  0.00  0.00    +0.000 NA
ENDBRANCH   9  12
ENDBRANCH   7  10
ENDBRANCH   1   7
BRANCH   4  18
ATOM     18  C   UNL     1      47.608   8.187  14.298  0.00  0.00    +0.000 C 
BRANCH  18  19
ATOM     19  N   UNL     1      48.109   7.297  15.317  0.00  0.00    +0.000 N 
ATOM     20  C   UNL     1      49.457   7.090  15.471  0.00  0.00    +0.000 C 
ATOM     21  O   UNL     1      50.286   7.676  14.779  0.00  0.00    +0.000 OA
ATOM     22  H   UNL     1      47.450   6.647  15.735  0.00  0.00    +0.000 HD
BRANCH  20  23
ATOM     23  C   UNL     1      49.872   6.180  16.548  0.00  0.00    +0.000 A 
ATOM     24  C   UNL     1      48.904   5.554  17.324  0.00  0.00    +0.000 A 
ATOM     25  S   UNL     1      49.544   4.487  18.490  0.00  0.00    +0.000 S 
ATOM     26  C   UNL     1      51.140   4.864  18.036  0.00  0.00    +0.000 A 
ATOM     27  N   UNL     1      52.200   4.298  18.675  0.00  0.00    +0.000 NA
ATOM     28  C   UNL     1      53.352   4.705  18.257  0.00  0.00    +0.000 A 
ATOM     29  N   UNL     1      53.541   5.618  17.253  0.00  0.00    +0.000 N 
ATOM     30  C   UNL     1      52.502   6.188  16.555  0.00  0.00    +0.000 A 
ATOM     31  O   UNL     1      52.706   6.967  15.630  0.00  0.00    +0.000 OA
ATOM     32  C   UNL     1      51.183   5.778  16.998  0.00  0.00    +0.000 A 
ATOM     33  H   UNL     1      54.471   5.887  16.967  0.00  0.00    +0.000 HD
ENDBRANCH  20  23
ENDBRANCH  18  19
ENDBRANCH   4  18
TORSDOF 6
ENDMDL
MODEL 9
REMARK VINA RESULT:    -6.231      5.152      7.197
REMARK INTER + INTRA:          -9.095
REMARK INTER:                  -9.094
REMARK INTRA:                  -0.002
REMARK UNBOUND:                -0.678
REMARK  Name = 
REMARK  6 active torsions:
REMARK  status: ('A' for Active; 'I' for Inactive)
REMARK    1  A    between atoms: C_2  and  C_25
REMARK    2  A    between atoms: N_3  and  C_4
REMARK    3  A    between atoms: C_4  and  C_5
REMARK    4  A    between atoms: C_8  and  C_9
REMARK    5  A    between atoms: C_9  and  N_10
REMARK    6  A    between atoms: C_11  and  C_13
REMARK                            x       y       z     vdW  Elec       q    Type
REMARK                         _______ _______ _______ _____ _____    ______ ____
ROOT
ATOM      1  C   UNL     1      51.990   8.412  11.670  0.00  0.00    +0.000 A 
ATOM      2  C   UNL     1      52.196   8.546  13.050  0.00  0.00    +0.000 A 
ATOM      3  C   UNL     1      51.142   8.359  13.951  0.00  0.00    +0.000 A 
ATOM      4  C   UNL     1      49.865   8.010  13.492  0.00  0.00    +0.000 A 
ATOM      5  C   UNL     1      49.662   7.864  12.114  0.00  0.00    +0.000 A 
ATOM      6  C   UNL     1      50.716   8.051  11.213  0.00  0.00    +0.000 A 
ENDROOT
BRANCH   1   7
ATOM      7  C   UNL     1      53.099   8.702  10.696  0.00  0.00    +0.000 C 
BRANCH   7  10
ATOM      8  O   UNL     1      55.002   6.719  10.396  0.00  0.00    +0.000 OA
ATOM      9  C   UNL     1      54.137   6.828   9.529  0.00  0.00    +0.000 C 
ATOM     10  N   UNL     1      53.149   7.792   9.578  0.00  0.00    +0.000 N 
ATOM     11  H   UNL     1      52.451   7.832   8.842  0.00  0.00    +0.000 HD
BRANCH   9  12
ATOM     12  C   UNL     1      54.123   5.894   8.370  0.00  0.00    +0.000 A 
ATOM     13  C   UNL     1      54.958   4.785   8.357  0.00  0.00    +0.000 A 
ATOM     14  C   UNL     1      54.909   3.935   7.259  0.00  0.00    +0.000 A 
ATOM     15  C   UNL     1      54.033   4.247   6.238  0.00  0.00    +0.000 A 
ATOM     16  N   UNL     1      53.230   5.335   6.273  0.00  0.00    +0.000 NA
ATOM     17  N   UNL     1      53.272   6.172   7.355  0.00  0.00    +0.000 NA
ENDBRANCH   9  12
ENDBRANCH   7  10
ENDBRANCH   1   7
BRANCH   4  18
ATOM     18  C   UNL     1      48.717   7.833  14.453  0.00  0.00    +0.000 C 
BRANCH  18  19
ATOM     19  N   UNL     1      47.488   7.527  13.762  0.00  0.00    +0.000 N 
ATOM     20  C   UNL     1      47.167   6.233  13.434  0.00  0.00    +0.000 C 
ATOM     21  O   UNL     1      47.889   5.288  13.744  0.00  0.00    +0.000 OA
ATOM     22  H   UNL     1      47.003   8.296  13.308  0.00  0.00    +0.000 HD
BRANCH  20  23
ATOM     23  C   UNL     1      45.886   6.020  12.746  0.00  0.00    +0.000 A 
ATOM     24  C   UNL     1      45.179   7.114  12.263  0.00  0.00    +0.000 A 
ATOM     25  S   UNL     1      43.744   6.696  11.441  0.00  0.00    +0.000 S 
ATOM     26  C   UNL     1      43.989   5.040  11.749  0.00  0.00    +0.000 A 
ATOM     27  N   UNL     1      43.088   4.112  11.327  0.00  0.00    +0.000 NA
ATOM     28  C   UNL     1      43.376   2.899  11.664  0.00  0.00    +0.000 A 
ATOM     29  N   UNL     1      44.487   2.530  12.376  0.00  0.00    +0.000 N 
ATOM     30  C   UNL     1      45.442   3.428  12.791  0.00  0.00    +0.000 A 
ATOM     31  O   UNL     1      46.449   3.059  13.386  0.00  0.00    +0.000 OA
ATOM     32  C   UNL     1      45.157   4.809  12.454  0.00  0.00    +0.000 A 
ATOM     33  H   UNL     1      44.660   1.560  12.599  0.00  0.00    +0.000 HD
ENDBRANCH  20  23
ENDBRANCH  18  19
ENDBRANCH   4  18
TORSDOF 6
ENDMDL
