MODEL 1
REMARK VINA RESULT:    -6.552      0.000      0.000
REMARK INTER + INTRA:         -10.258
REMARK INTER:                  -9.041
REMARK INTRA:                  -1.217
REMARK UNBOUND:                -1.217
REMARK  Name = 
REMARK  7 active torsions:
REMARK  status: ('A' for Active; 'I' for Inactive)
REMARK    1  A    between atoms: N_1  and  C_2
REMARK    2  A    between atoms: C_2  and  C_3
REMARK    3  A    between atoms: C_6  and  C_7
REMARK    4  A    between atoms: C_7  and  C_8
REMARK    5  A    between atoms: C_11  and  C_12
REMARK    6  A    between atoms: C_12  and  N_13
REMARK    7  A    between atoms: C_14  and  C_16
REMARK                            x       y       z     vdW  Elec       q    Type
REMARK                         _______ _______ _______ _____ _____    ______ ____
ROOT
ATOM      1  C   UNL     1      49.227   8.267  15.889  0.00  0.00    +0.000 A 
ATOM      2  C   UNL     1      48.307   9.203  15.404  0.00  0.00    +0.000 A 
ATOM      3  C   UNL     1      47.828   9.113  14.092  0.00  0.00    +0.000 A 
ATOM      4  C   UNL     1      48.269   8.092  13.240  0.00  0.00    +0.000 A 
ATOM      5  C   UNL     1      49.265   7.219  13.696  0.00  0.00    +0.000 A 
ATOM      6  C   UNL     1      49.733   7.303  15.009  0.00  0.00    +0.000 A 
ENDROOT
BRANCH   1   7
ATOM      7  C   UNL     1      49.672   8.279  17.334  0.00  0.00    +0.000 C 
BRANCH   7  11
ATOM      8  C   UNL     1      49.732   5.464  19.661  0.00  0.00    +0.000 C 
ATOM      9  C   UNL     1      50.215   6.878  20.006  0.00  0.00    +0.000 C 
ATOM     10  C   UNL     1      49.120   7.915  19.790  0.00  0.00    +0.000 C 
ATOM     11  C   UNL     1      48.586   7.842  18.355  0.00  0.00    +0.000 C 
ATOM     12  C   UNL     1      48.079   6.411  18.131  0.00  0.00    +0.000 C 
ATOM     13  O   UNL     1      49.073   5.419  18.386  0.00  0.00    +0.000 OA
BRANCH   8  14
ATOM     14  C   UNL     1      48.914   4.805  20.800  0.00  0.00    +0.000 C 
BRANCH  14  15
ATOM     15  N   UNL     1      48.349   3.507  20.405  0.00  0.00    +0.000 NA
ATOM     16  H   UNL     1      47.500   3.649  19.859  0.00  0.00    +0.000 HD
ATOM     17  H   UNL     1      48.068   2.978  21.229  0.00  0.00    +0.000 HD
ENDBRANCH  14  15
ENDBRANCH   8  14
ENDBRANCH   7  11
ENDBRANCH   1   7
BRANCH   4  18
ATOM     18  C   UNL     1      47.707   7.947  11.850  0.00  0.00    +0.000 C 
BRANCH  18  19
ATOM     19  N   UNL     1      47.005   6.701  11.706  0.00  0.00    +0.000 N 
ATOM     20  C   UNL     1      45.643   6.621  11.837  0.00  0.00    +0.000 C 
ATOM     21  O   UNL     1      44.942   7.610  12.028  0.00  0.00    +0.000 OA
ATOM     22  H   UNL     1      47.563   5.860  11.791  0.00  0.00    +0.000 HD
BRANCH  20  23
ATOM     23  C   UNL     1      45.059   5.286  11.654  0.00  0.00    +0.000 A 
ATOM     24  C   UNL     1      44.429   4.655  12.718  0.00  0.00    +0.000 A 
ATOM     25  S   UNL     1      43.723   3.157  12.304  0.00  0.00    +0.000 S 
ATOM     26  C   UNL     1      44.292   3.272  10.704  0.00  0.00    +0.000 A 
ATOM     27  N   UNL     1      44.040   2.283   9.803  0.00  0.00    +0.000 NA
ATOM     28  C   UNL     1      44.554   2.487   8.632  0.00  0.00    +0.000 A 
ATOM     29  N   UNL     1      45.296   3.586   8.287  0.00  0.00    +0.000 N 
ATOM     30  C   UNL     1      45.564   4.613   9.160  0.00  0.00    +0.000 A 
ATOM     31  O   UNL     1      46.218   5.586   8.813  0.00  0.00    +0.000 OA
ATOM     32  C   UNL     1      44.999   4.436  10.486  0.00  0.00    +0.000 A 
ATOM     33  H   UNL     1      45.675   3.683   7.356  0.00  0.00    +0.000 HD
ENDBRANCH  20  23
ENDBRANCH  18  19
ENDBRANCH   4  18
TORSDOF 7
ENDMDL
MODEL 2
REMARK VINA RESULT:    -6.437      3.412      8.306
REMARK INTER + INTRA:         -10.100
REMARK INTER:                  -8.832
REMARK INTRA:                  -1.269
REMARK UNBOUND:                -1.217
REMARK  Name = 
REMARK  7 active torsions:
REMARK  status: ('A' for Active; 'I' for Inactive)
REMARK    1  A    between atoms: N_1  and  C_2
REMARK    2  A    between atoms: C_2  and  C_3
REMARK    3  A    between atoms: C_6  and  C_7
REMARK    4  A    between atoms: C_7  and  C_8
REMARK    5  A    between atoms: C_11  and  C_12
REMARK    6  A    between atoms: C_12  and  N_13
REMARK    7  A    between atoms: C_14  and  C_16
REMARK                            x       y       z     vdW  Elec       q    Type
REMARK                         _______ _______ _______ _____ _____    ______ ____
ROOT
ATOM      1  C   UNL     1      47.442   7.414  12.934  0.00  0.00    +0.000 A 
ATOM      2  C   UNL     1      48.583   6.661  13.233  0.00  0.00    +0.000 A 
ATOM      3  C   UNL     1      49.367   6.973  14.348  0.00  0.00    +0.000 A 
ATOM      4  C   UNL     1      49.031   8.051  15.178  0.00  0.00    +0.000 A 
ATOM      5  C   UNL     1      47.949   8.864  14.818  0.00  0.00    +0.000 A 
ATOM      6  C   UNL     1      47.160   8.545  13.711  0.00  0.00    +0.000 A 
ENDROOT
BRANCH   1   7
ATOM      7  C   UNL     1      46.519   7.027  11.801  0.00  0.00    +0.000 C 
BRANCH   7  11
ATOM      8  C   UNL     1      44.721   3.901  11.221  0.00  0.00    +0.000 C 
ATOM      9  C   UNL     1      45.569   4.189  12.466  0.00  0.00    +0.000 C 
ATOM     10  C   UNL     1      45.095   5.442  13.191  0.00  0.00    +0.000 C 
ATOM     11  C   UNL     1      45.079   6.642  12.236  0.00  0.00    +0.000 C 
ATOM     12  C   UNL     1      44.164   6.274  11.061  0.00  0.00    +0.000 C 
ATOM     13  O   UNL     1      44.556   5.070  10.403  0.00  0.00    +0.000 OA
BRANCH   8  14
ATOM     14  C   UNL     1      43.388   3.181  11.544  0.00  0.00    +0.000 C 
BRANCH  14  15
ATOM     15  N   UNL     1      43.550   2.132  12.560  0.00  0.00    +0.000 NA
ATOM     16  H   UNL     1      43.071   1.283  12.263  0.00  0.00    +0.000 HD
ATOM     17  H   UNL     1      43.106   2.414  13.433  0.00  0.00    +0.000 HD
ENDBRANCH  14  15
ENDBRANCH   8  14
ENDBRANCH   7  11
ENDBRANCH   1   7
BRANCH   4  18
ATOM     18  C   UNL     1      49.831   8.352  16.418  0.00  0.00    +0.000 C 
BRANCH  18  19
ATOM     19  N   UNL     1      50.705   7.258  16.745  0.00  0.00    +0.000 N 
ATOM     20  C   UNL     1      50.373   6.328  17.695  0.00  0.00    +0.000 C 
ATOM     21  O   UNL     1      49.294   6.343  18.280  0.00  0.00    +0.000 OA
ATOM     22  H   UNL     1      51.673   7.359  16.465  0.00  0.00    +0.000 HD
BRANCH  20  23
ATOM     23  C   UNL     1      51.355   5.260  17.918  0.00  0.00    +0.000 A 
ATOM     24  C   UNL     1      52.598   5.565  18.456  0.00  0.00    +0.000 A 
ATOM     25  S   UNL     1      53.576   4.195  18.740  0.00  0.00    +0.000 S 
ATOM     26  C   UNL     1      52.395   3.154  18.092  0.00  0.00    +0.000 A 
ATOM     27  N   UNL     1      52.613   1.812  18.022  0.00  0.00    +0.000 NA
ATOM     28  C   UNL     1      51.644   1.144  17.484  0.00  0.00    +0.000 A 
ATOM     29  N   UNL     1      50.484   1.697  17.009  0.00  0.00    +0.000 N 
ATOM     30  C   UNL     1      50.217   3.044  17.070  0.00  0.00    +0.000 A 
ATOM     31  O   UNL     1      49.164   3.502  16.649  0.00  0.00    +0.000 OA
ATOM     32  C   UNL     1      51.271   3.838  17.677  0.00  0.00    +0.000 A 
ATOM     33  H   UNL     1      49.766   1.120  16.594  0.00  0.00    +0.000 HD
ENDBRANCH  20  23
ENDBRANCH  18  19
ENDBRANCH   4  18
TORSDOF 7
ENDMDL
MODEL 3
REMARK VINA RESULT:    -6.300      2.844      7.916
REMARK INTER + INTRA:          -9.910
REMARK INTER:                  -8.489
REMARK INTRA:                  -1.421
REMARK UNBOUND:                -1.217
REMARK  Name = 
REMARK  7 active torsions:
REMARK  status: ('A' for Active; 'I' for Inactive)
REMARK    1  A    between atoms: N_1  and  C_2
REMARK    2  A    between atoms: C_2  and  C_3
REMARK    3  A    between atoms: C_6  and  C_7
REMARK    4  A    between atoms: C_7  and  C_8
REMARK    5  A    between atoms: C_11  and  C_12
REMARK    6  A    between atoms: C_12  and  N_13
REMARK    7  A    between atoms: C_14  and  C_16
REMARK                            x       y       z     vdW  Elec       q    Type
REMARK                         _______ _______ _______ _____ _____    ______ ____
ROOT
ATOM      1  C   UNL     1      46.352   7.565  11.866  0.00  0.00    +0.000 A 
ATOM      2  C   UNL     1      47.639   7.018  11.808  0.00  0.00    +0.000 A 
ATOM      3  C   UNL     1      48.650   7.492  12.651  0.00  0.00    +0.000 A 
ATOM      4  C   UNL     1      48.395   8.529  13.558  0.00  0.00    +0.000 A 
ATOM      5  C   UNL     1      47.136   9.142  13.541  0.00  0.00    +0.000 A 
ATOM      6  C   UNL     1      46.124   8.661  12.708  0.00  0.00    +0.000 A 
ENDROOT
BRANCH   1   7
ATOM      7  C   UNL     1      45.218   6.994  11.045  0.00  0.00    +0.000 C 
BRANCH   7  11
ATOM      8  C   UNL     1      44.357   3.471  11.480  0.00  0.00    +0.000 C 
ATOM      9  C   UNL     1      45.291   4.252  12.413  0.00  0.00    +0.000 C 
ATOM     10  C   UNL     1      44.605   5.481  12.996  0.00  0.00    +0.000 C 
ATOM     11  C   UNL     1      44.061   6.374  11.875  0.00  0.00    +0.000 C 
ATOM     12  C   UNL     1      43.100   5.519  11.039  0.00  0.00    +0.000 C 
ATOM     13  O   UNL     1      43.706   4.331  10.531  0.00  0.00    +0.000 OA
BRANCH   8  14
ATOM     14  C   UNL     1      43.379   2.538  12.237  0.00  0.00    +0.000 C 
BRANCH  14  15
ATOM     15  N   UNL     1      42.946   1.397  11.419  0.00  0.00    +0.000 NA
ATOM     16  H   UNL     1      43.334   0.533  11.794  0.00  0.00    +0.000 HD
ATOM     17  H   UNL     1      43.313   1.483  10.472  0.00  0.00    +0.000 HD
ENDBRANCH  14  15
ENDBRANCH   8  14
ENDBRANCH   7  11
ENDBRANCH   1   7
BRANCH   4  18
ATOM     18  C   UNL     1      49.458   8.998  14.516  0.00  0.00    +0.000 C 
BRANCH  18  19
ATOM     19  N   UNL     1      49.542   8.128  15.658  0.00  0.00    +0.000 N 
ATOM     20  C   UNL     1      48.805   8.353  16.791  0.00  0.00    +0.000 C 
ATOM     21  O   UNL     1      47.996   9.271  16.877  0.00  0.00    +0.000 OA
ATOM     22  H   UNL     1      50.357   7.528  15.705  0.00  0.00    +0.000 HD
BRANCH  20  23
ATOM     23  C   UNL     1      48.983   7.378  17.875  0.00  0.00    +0.000 A 
ATOM     24  C   UNL     1      49.374   7.809  19.135  0.00  0.00    +0.000 A 
ATOM     25  S   UNL     1      49.436   6.560  20.297  0.00  0.00    +0.000 S 
ATOM     26  C   UNL     1      49.005   5.391  19.138  0.00  0.00    +0.000 A 
ATOM     27  N   UNL     1      48.894   4.077  19.481  0.00  0.00    +0.000 NA
ATOM     28  C   UNL     1      48.587   3.295  18.497  0.00  0.00    +0.000 A 
ATOM     29  N   UNL     1      48.385   3.707  17.206  0.00  0.00    +0.000 N 
ATOM     30  C   UNL     1      48.475   5.022  16.817  0.00  0.00    +0.000 A 
ATOM     31  O   UNL     1      48.274   5.356  15.658  0.00  0.00    +0.000 OA
ATOM     32  C   UNL     1      48.807   5.944  17.890  0.00  0.00    +0.000 A 
ATOM     33  H   UNL     1      48.153   3.044  16.480  0.00  0.00    +0.000 HD
ENDBRANCH  20  23
ENDBRANCH  18  19
ENDBRANCH   4  18
TORSDOF 7
ENDMDL
MODEL 4
REMARK VINA RESULT:    -6.213      4.319      6.266
REMARK INTER + INTRA:          -9.791
REMARK INTER:                  -8.563
REMARK INTRA:                  -1.228
REMARK UNBOUND:                -1.217
REMARK  Name = 
REMARK  7 active torsions:
REMARK  status: ('A' for Active; 'I' for Inactive)
REMARK    1  A    between atoms: N_1  and  C_2
REMARK    2  A    between atoms: C_2  and  C_3
REMARK    3  A    between atoms: C_6  and  C_7
REMARK    4  A    between atoms: C_7  and  C_8
REMARK    5  A    between atoms: C_11  and  C_12
REMARK    6  A    between atoms: C_12  and  N_13
REMARK    7  A    between atoms: C_14  and  C_16
REMARK                            x       y       z     vdW  Elec       q    Type
REMARK                         _______ _______ _______ _____ _____    ______ ____
ROOT
ATOM      1  C   UNL     1      50.797   8.500  11.822  0.00  0.00    +0.000 A 
ATOM      2  C   UNL     1      50.200   7.413  12.469  0.00  0.00    +0.000 A 
ATOM      3  C   UNL     1      48.808   7.335  12.588  0.00  0.00    +0.000 A 
ATOM      4  C   UNL     1      47.990   8.349  12.072  0.00  0.00    +0.000 A 
ATOM      5  C   UNL     1      48.595   9.483  11.516  0.00  0.00    +0.000 A 
ATOM      6  C   UNL     1      49.984   9.555  11.388  0.00  0.00    +0.000 A 
ENDROOT
BRANCH   1   7
ATOM      7  C   UNL     1      52.289   8.551  11.584  0.00  0.00    +0.000 C 
BRANCH   7  11
ATOM      8  C   UNL     1      54.523   6.153   9.970  0.00  0.00    +0.000 C 
ATOM      9  C   UNL     1      53.003   5.979  10.075  0.00  0.00    +0.000 C 
ATOM     10  C   UNL     1      52.258   7.156   9.457  0.00  0.00    +0.000 C 
ATOM     11  C   UNL     1      52.715   8.474  10.092  0.00  0.00    +0.000 C 
ATOM     12  C   UNL     1      54.231   8.577   9.884  0.00  0.00    +0.000 C 
ATOM     13  O   UNL     1      54.945   7.456  10.403  0.00  0.00    +0.000 OA
BRANCH   8  14
ATOM     14  C   UNL     1      55.087   5.753   8.583  0.00  0.00    +0.000 C 
BRANCH  14  15
ATOM     15  N   UNL     1      54.422   4.566   8.029  0.00  0.00    +0.000 NA
ATOM     16  H   UNL     1      53.967   4.801   7.148  0.00  0.00    +0.000 HD
ATOM     17  H   UNL     1      53.680   4.253   8.654  0.00  0.00    +0.000 HD
ENDBRANCH  14  15
ENDBRANCH   8  14
ENDBRANCH   7  11
ENDBRANCH   1   7
BRANCH   4  18
ATOM     18  C   UNL     1      46.489   8.240  12.135  0.00  0.00    +0.000 C 
BRANCH  18  19
ATOM     19  N   UNL     1      46.061   6.889  11.890  0.00  0.00    +0.000 N 
ATOM     20  C   UNL     1      44.768   6.593  11.545  0.00  0.00    +0.000 C 
ATOM     21  O   UNL     1      43.920   7.463  11.371  0.00  0.00    +0.000 OA
ATOM     22  H   UNL     1      46.658   6.157  12.256  0.00  0.00    +0.000 HD
BRANCH  20  23
ATOM     23  C   UNL     1      44.475   5.173  11.315  0.00  0.00    +0.000 A 
ATOM     24  C   UNL     1      43.736   4.460  12.250  0.00  0.00    +0.000 A 
ATOM     25  S   UNL     1      43.405   2.853  11.779  0.00  0.00    +0.000 S 
ATOM     26  C   UNL     1      44.293   3.038  10.338  0.00  0.00    +0.000 A 
ATOM     27  N   UNL     1      44.423   2.004   9.462  0.00  0.00    +0.000 NA
ATOM     28  C   UNL     1      45.146   2.275   8.423  0.00  0.00    +0.000 A 
ATOM     29  N   UNL     1      45.749   3.481   8.186  0.00  0.00    +0.000 N 
ATOM     30  C   UNL     1      45.636   4.555   9.035  0.00  0.00    +0.000 A 
ATOM     31  O   UNL     1      46.177   5.623   8.785  0.00  0.00    +0.000 OA
ATOM     32  C   UNL     1      44.824   4.305  10.214  0.00  0.00    +0.000 A 
ATOM     33  H   UNL     1      46.307   3.628   7.357  0.00  0.00    +0.000 HD
ENDBRANCH  20  23
ENDBRANCH  18  19
ENDBRANCH   4  18
TORSDOF 7
ENDMDL
MODEL 5
REMARK VINA RESULT:    -5.958      3.007      8.406
REMARK INTER + INTRA:          -9.439
REMARK INTER:                  -8.282
REMARK INTRA:                  -1.157
REMARK UNBOUND:                -1.217
REMARK  Name = 
REMARK  7 active torsions:
REMARK  status: ('A' for Active; 'I' for Inactive)
REMARK    1  A    between atoms: N_1  and  C_2
REMARK    2  A    between atoms: C_2  and  C_3
REMARK    3  A    between atoms: C_6  and  C_7
REMARK    4  A    between atoms: C_7  and  C_8
REMARK    5  A    between atoms: C_11  and  C_12
REMARK    6  A    between atoms: C_12  and  N_13
REMARK    7  A    between atoms: C_14  and  C_16
REMARK                            x       y       z     vdW  Elec       q    Type
REMARK                         _______ _______ _______ _____ _____    ______ ____
ROOT
ATOM      1  C   UNL     1      46.858   7.650  12.106  0.00  0.00    +0.000 A 
ATOM      2  C   UNL     1      48.065   7.023  11.779  0.00  0.00    +0.000 A 
ATOM      3  C   UNL     1      49.239   7.337  12.473  0.00  0.00    +0.000 A 
ATOM      4  C   UNL     1      49.228   8.292  13.498  0.00  0.00    +0.000 A 
ATOM      5  C   UNL     1      48.041   8.991  13.753  0.00  0.00    +0.000 A 
ATOM      6  C   UNL     1      46.868   8.668  13.069  0.00  0.00    +0.000 A 
ENDROOT
BRANCH   1   7
ATOM      7  C   UNL     1      45.559   7.246  11.448  0.00  0.00    +0.000 C 
BRANCH   7  11
ATOM      8  C   UNL     1      44.372   3.792  11.469  0.00  0.00    +0.000 C 
ATOM      9  C   UNL     1      45.564   4.298  12.289  0.00  0.00    +0.000 C 
ATOM     10  C   UNL     1      45.169   5.449  13.205  0.00  0.00    +0.000 C 
ATOM     11  C   UNL     1      44.525   6.582  12.397  0.00  0.00    +0.000 C 
ATOM     12  C   UNL     1      43.316   5.986  11.664  0.00  0.00    +0.000 C 
ATOM     13  O   UNL     1      43.655   4.868  10.844  0.00  0.00    +0.000 OA
BRANCH   8  14
ATOM     14  C   UNL     1      43.458   2.820  12.257  0.00  0.00    +0.000 C 
BRANCH  14  15
ATOM     15  N   UNL     1      43.102   1.627  11.476  0.00  0.00    +0.000 NA
ATOM     16  H   UNL     1      43.820   1.443  10.776  0.00  0.00    +0.000 HD
ATOM     17  H   UNL     1      42.240   1.789  10.958  0.00  0.00    +0.000 HD
ENDBRANCH  14  15
ENDBRANCH   8  14
ENDBRANCH   7  11
ENDBRANCH   1   7
BRANCH   4  18
ATOM     18  C   UNL     1      50.472   8.586  14.295  0.00  0.00    +0.000 C 
BRANCH  18  19
ATOM     19  N   UNL     1      50.197   8.560  15.706  0.00  0.00    +0.000 N 
ATOM     20  C   UNL     1      50.216   7.392  16.423  0.00  0.00    +0.000 C 
ATOM     21  O   UNL     1      50.520   6.316  15.917  0.00  0.00    +0.000 OA
ATOM     22  H   UNL     1      49.718   9.368  16.085  0.00  0.00    +0.000 HD
BRANCH  20  23
ATOM     23  C   UNL     1      49.926   7.515  17.857  0.00  0.00    +0.000 A 
ATOM     24  C   UNL     1      50.665   8.393  18.639  0.00  0.00    +0.000 A 
ATOM     25  S   UNL     1      50.132   8.482  20.258  0.00  0.00    +0.000 S 
ATOM     26  C   UNL     1      48.936   7.302  19.983  0.00  0.00    +0.000 A 
ATOM     27  N   UNL     1      48.115   6.895  20.990  0.00  0.00    +0.000 NA
ATOM     28  C   UNL     1      47.272   5.974  20.649  0.00  0.00    +0.000 A 
ATOM     29  N   UNL     1      47.180   5.426  19.397  0.00  0.00    +0.000 N 
ATOM     30  C   UNL     1      47.978   5.815  18.349  0.00  0.00    +0.000 A 
ATOM     31  O   UNL     1      47.859   5.313  17.240  0.00  0.00    +0.000 OA
ATOM     32  C   UNL     1      48.937   6.856  18.678  0.00  0.00    +0.000 A 
ATOM     33  H   UNL     1      46.502   4.705  19.196  0.00  0.00    +0.000 HD
ENDBRANCH  20  23
ENDBRANCH  18  19
ENDBRANCH   4  18
TORSDOF 7
ENDMDL
MODEL 6
REMARK VINA RESULT:    -5.838      4.123      7.016
REMARK INTER + INTRA:          -9.274
REMARK INTER:                  -9.020
REMARK INTRA:                  -0.254
REMARK UNBOUND:                -1.217
REMARK  Name = 
REMARK  7 active torsions:
REMARK  status: ('A' for Active; 'I' for Inactive)
REMARK    1  A    between atoms: N_1  and  C_2
REMARK    2  A    between atoms: C_2  and  C_3
REMARK    3  A    between atoms: C_6  and  C_7
REMARK    4  A    between atoms: C_7  and  C_8
REMARK    5  A    between atoms: C_11  and  C_12
REMARK    6  A    between atoms: C_12  and  N_13
REMARK    7  A    between atoms: C_14  and  C_16
REMARK                            x       y       z     vdW  Elec       q    Type
REMARK                         _______ _______ _______ _____ _____    ______ ____
ROOT
ATOM      1  C   UNL     1      51.295   9.244  11.409  0.00  0.00    +0.000 A 
ATOM      2  C   UNL     1      51.707   8.810  12.674  0.00  0.00    +0.000 A 
ATOM      3  C   UNL     1      50.765   8.434  13.637  0.00  0.00    +0.000 A 
ATOM      4  C   UNL     1      49.394   8.496  13.356  0.00  0.00    +0.000 A 
ATOM      5  C   UNL     1      48.983   9.028  12.127  0.00  0.00    +0.000 A 
ATOM      6  C   UNL     1      49.924   9.392  11.162  0.00  0.00    +0.000 A 
ENDROOT
BRANCH   1   7
ATOM      7  C   UNL     1      52.296   9.548  10.318  0.00  0.00    +0.000 C 
BRANCH   7  11
ATOM      8  C   UNL     1      52.505   6.928   7.781  0.00  0.00    +0.000 C 
ATOM      9  C   UNL     1      53.124   8.322   7.632  0.00  0.00    +0.000 C 
ATOM     10  C   UNL     1      54.092   8.632   8.767  0.00  0.00    +0.000 C 
ATOM     11  C   UNL     1      53.398   8.471  10.125  0.00  0.00    +0.000 C 
ATOM     12  C   UNL     1      52.866   7.034  10.195  0.00  0.00    +0.000 C 
ATOM     13  O   UNL     1      52.003   6.703   9.108  0.00  0.00    +0.000 OA
BRANCH   8  14
ATOM     14  C   UNL     1      53.428   5.793   7.272  0.00  0.00    +0.000 C 
BRANCH  14  15
ATOM     15  N   UNL     1      52.704   4.799   6.468  0.00  0.00    +0.000 NA
ATOM     16  H   UNL     1      52.460   3.995   7.045  0.00  0.00    +0.000 HD
ATOM     17  H   UNL     1      53.303   4.440   5.726  0.00  0.00    +0.000 HD
ENDBRANCH  14  15
ENDBRANCH   8  14
ENDBRANCH   7  11
ENDBRANCH   1   7
BRANCH   4  18
ATOM     18  C   UNL     1      48.375   8.029  14.363  0.00  0.00    +0.000 C 
BRANCH  18  19
ATOM     19  N   UNL     1      47.162   7.614  13.712  0.00  0.00    +0.000 N 
ATOM     20  C   UNL     1      47.027   6.366  13.164  0.00  0.00    +0.000 C 
ATOM     21  O   UNL     1      47.909   5.515  13.244  0.00  0.00    +0.000 OA
ATOM     22  H   UNL     1      46.532   8.354  13.426  0.00  0.00    +0.000 HD
BRANCH  20  23
ATOM     23  C   UNL     1      45.729   6.076  12.541  0.00  0.00    +0.000 A 
ATOM     24  C   UNL     1      44.964   7.111  12.024  0.00  0.00    +0.000 A 
ATOM     25  S   UNL     1      43.536   6.586  11.251  0.00  0.00    +0.000 S 
ATOM     26  C   UNL     1      43.862   4.961  11.639  0.00  0.00    +0.000 A 
ATOM     27  N   UNL     1      43.001   3.971  11.272  0.00  0.00    +0.000 NA
ATOM     28  C   UNL     1      43.359   2.787  11.655  0.00  0.00    +0.000 A 
ATOM     29  N   UNL     1      44.492   2.509  12.371  0.00  0.00    +0.000 N 
ATOM     30  C   UNL     1      45.394   3.473  12.752  0.00  0.00    +0.000 A 
ATOM     31  O   UNL     1      46.404   3.187  13.380  0.00  0.00    +0.000 OA
ATOM     32  C   UNL     1      45.043   4.821  12.336  0.00  0.00    +0.000 A 
ATOM     33  H   UNL     1      44.713   1.562  12.646  0.00  0.00    +0.000 HD
ENDBRANCH  20  23
ENDBRANCH  18  19
ENDBRANCH   4  18
TORSDOF 7
ENDMDL
MODEL 7
REMARK VINA RESULT:    -5.494      2.882      9.057
REMARK INTER + INTRA:          -8.798
REMARK INTER:                  -8.059
REMARK INTRA:                  -0.739
REMARK UNBOUND:                -1.217
REMARK  Name = 
REMARK  7 active torsions:
REMARK  status: ('A' for Active; 'I' for Inactive)
REMARK    1  A    between atoms: N_1  and  C_2
REMARK    2  A    between atoms: C_2  and  C_3
REMARK    3  A    between atoms: C_6  and  C_7
REMARK    4  A    between atoms: C_7  and  C_8
REMARK    5  A    between atoms: C_11  and  C_12
REMARK    6  A    between atoms: C_12  and  N_13
REMARK    7  A    between atoms: C_14  and  C_16
REMARK                            x       y       z     vdW  Elec       q    Type
REMARK                         _______ _______ _______ _____ _____    ______ ____
ROOT
ATOM      1  C   UNL     1      45.408   6.014  13.111  0.00  0.00    +0.000 A 
ATOM      2  C   UNL     1      46.240   5.066  13.716  0.00  0.00    +0.000 A 
ATOM      3  C   UNL     1      47.537   5.410  14.114  0.00  0.00    +0.000 A 
ATOM      4  C   UNL     1      48.028   6.706  13.903  0.00  0.00    +0.000 A 
ATOM      5  C   UNL     1      47.230   7.621  13.205  0.00  0.00    +0.000 A 
ATOM      6  C   UNL     1      45.932   7.280  12.819  0.00  0.00    +0.000 A 
ENDROOT
BRANCH   1   7
ATOM      7  C   UNL     1      43.969   5.697  12.775  0.00  0.00    +0.000 C 
BRANCH   7  11
ATOM      8  C   UNL     1      44.725   2.816  10.660  0.00  0.00    +0.000 C 
ATOM      9  C   UNL     1      43.402   3.011  11.411  0.00  0.00    +0.000 C 
ATOM     10  C   UNL     1      42.727   4.323  11.032  0.00  0.00    +0.000 C 
ATOM     11  C   UNL     1      43.679   5.503  11.262  0.00  0.00    +0.000 C 
ATOM     12  C   UNL     1      44.939   5.239  10.428  0.00  0.00    +0.000 C 
ATOM     13  O   UNL     1      45.555   3.987  10.726  0.00  0.00    +0.000 OA
BRANCH   8  14
ATOM     14  C   UNL     1      44.535   2.276   9.221  0.00  0.00    +0.000 C 
BRANCH  14  15
ATOM     15  N   UNL     1      45.778   1.730   8.659  0.00  0.00    +0.000 NA
ATOM     16  H   UNL     1      46.154   2.369   7.960  0.00  0.00    +0.000 HD
ATOM     17  H   UNL     1      45.590   0.856   8.169  0.00  0.00    +0.000 HD
ENDBRANCH  14  15
ENDBRANCH   8  14
ENDBRANCH   7  11
ENDBRANCH   1   7
BRANCH   4  18
ATOM     18  C   UNL     1      49.396   7.104  14.389  0.00  0.00    +0.000 C 
BRANCH  18  19
ATOM     19  N   UNL     1      49.497   6.962  15.816  0.00  0.00    +0.000 N 
ATOM     20  C   UNL     1      50.706   6.811  16.443  0.00  0.00    +0.000 C 
ATOM     21  O   UNL     1      51.771   6.842  15.833  0.00  0.00    +0.000 OA
ATOM     22  H   UNL     1      48.648   6.694  16.300  0.00  0.00    +0.000 HD
BRANCH  20  23
ATOM     23  C   UNL     1      50.659   6.688  17.906  0.00  0.00    +0.000 A 
ATOM     24  C   UNL     1      51.438   7.523  18.695  0.00  0.00    +0.000 A 
ATOM     25  S   UNL     1      51.187   7.311  20.370  0.00  0.00    +0.000 S 
ATOM     26  C   UNL     1      50.076   6.050  20.096  0.00  0.00    +0.000 A 
ATOM     27  N   UNL     1      49.483   5.405  21.139  0.00  0.00    +0.000 NA
ATOM     28  C   UNL     1      48.682   4.451  20.788  0.00  0.00    +0.000 A 
ATOM     29  N   UNL     1      48.425   4.086  19.493  0.00  0.00    +0.000 N 
ATOM     30  C   UNL     1      48.991   4.715  18.410  0.00  0.00    +0.000 A 
ATOM     31  O   UNL     1      48.728   4.371  17.267  0.00  0.00    +0.000 OA
ATOM     32  C   UNL     1      49.892   5.803  18.752  0.00  0.00    +0.000 A 
ATOM     33  H   UNL     1      47.792   3.326  19.284  0.00  0.00    +0.000 HD
ENDBRANCH  20  23
ENDBRANCH  18  19
ENDBRANCH   4  18
TORSDOF 7
ENDMDL
MODEL 8
REMARK VINA RESULT:    -5.482      4.570      9.114
REMARK INTER + INTRA:          -8.782
REMARK INTER:                  -8.378
REMARK INTRA:                  -0.405
REMARK UNBOUND:                -1.217
REMARK  Name = 
REMARK  7 active torsions:
REMARK  status: ('A' for Active; 'I' for Inactive)
REMARK    1  A    between atoms: N_1  and  C_2
REMARK    2  A    between atoms: C_2  and  C_3
REMARK    3  A    between atoms: C_6  and  C_7
REMARK    4  A    between atoms: C_7  and  C_8
REMARK    5  A    between atoms: C_11  and  C_12
REMARK    6  A    between atoms: C_12  and  N_13
REMARK    7  A    between atoms: C_14  and  C_16
REMARK                            x       y       z     vdW  Elec       q    Type
REMARK                         _______ _______ _______ _____ _____    ______ ____
ROOT
ATOM      1  C   UNL     1      45.356   4.655  11.299  0.00  0.00    +0.000 A 
ATOM      2  C   UNL     1      45.934   4.737  12.570  0.00  0.00    +0.000 A 
ATOM      3  C   UNL     1      46.128   5.980  13.182  0.00  0.00    +0.000 A 
ATOM      4  C   UNL     1      45.758   7.163  12.529  0.00  0.00    +0.000 A 
ATOM      5  C   UNL     1      45.275   7.083  11.217  0.00  0.00    +0.000 A 
ATOM      6  C   UNL     1      45.070   5.842  10.611  0.00  0.00    +0.000 A 
ENDROOT
BRANCH   1   7
ATOM      7  C   UNL     1      45.034   3.320  10.666  0.00  0.00    +0.000 C 
BRANCH   7  11
ATOM      8  C   UNL     1      46.839   2.577   7.579  0.00  0.00    +0.000 C 
ATOM      9  C   UNL     1      46.002   1.553   8.356  0.00  0.00    +0.000 C 
ATOM     10  C   UNL     1      44.563   2.020   8.531  0.00  0.00    +0.000 C 
ATOM     11  C   UNL     1      44.523   3.398   9.202  0.00  0.00    +0.000 C 
ATOM     12  C   UNL     1      45.336   4.355   8.321  0.00  0.00    +0.000 C 
ATOM     13  O   UNL     1      46.672   3.907   8.095  0.00  0.00    +0.000 OA
BRANCH   8  14
ATOM     14  C   UNL     1      46.645   2.484   6.044  0.00  0.00    +0.000 C 
BRANCH  14  15
ATOM     15  N   UNL     1      47.874   2.800   5.304  0.00  0.00    +0.000 NA
ATOM     16  H   UNL     1      48.502   1.997   5.313  0.00  0.00    +0.000 HD
ATOM     17  H   UNL     1      48.379   3.556   5.764  0.00  0.00    +0.000 HD
ENDBRANCH  14  15
ENDBRANCH   8  14
ENDBRANCH   7  11
ENDBRANCH   1   7
BRANCH   4  18
ATOM     18  C   UNL     1      45.900   8.500  13.208  0.00  0.00    +0.000 C 
BRANCH  18  19
ATOM     19  N   UNL     1      47.208   9.055  12.983  0.00  0.00    +0.000 N 
ATOM     20  C   UNL     1      48.160   9.081  13.968  0.00  0.00    +0.000 C 
ATOM     21  O   UNL     1      47.972   8.586  15.076  0.00  0.00    +0.000 OA
ATOM     22  H   UNL     1      47.301   9.670  12.184  0.00  0.00    +0.000 HD
BRANCH  20  23
ATOM     23  C   UNL     1      49.453   9.668  13.594  0.00  0.00    +0.000 A 
ATOM     24  C   UNL     1      49.929  10.781  14.273  0.00  0.00    +0.000 A 
ATOM     25  S   UNL     1      51.487  11.270  13.777  0.00  0.00    +0.000 S 
ATOM     26  C   UNL     1      51.550  10.048  12.594  0.00  0.00    +0.000 A 
ATOM     27  N   UNL     1      52.638   9.917  11.784  0.00  0.00    +0.000 NA
ATOM     28  C   UNL     1      52.541   8.965  10.913  0.00  0.00    +0.000 A 
ATOM     29  N   UNL     1      51.457   8.138  10.779  0.00  0.00    +0.000 N 
ATOM     30  C   UNL     1      50.345   8.226  11.581  0.00  0.00    +0.000 A 
ATOM     31  O   UNL     1      49.400   7.461  11.442  0.00  0.00    +0.000 OA
ATOM     32  C   UNL     1      50.408   9.275  12.584  0.00  0.00    +0.000 A 
ATOM     33  H   UNL     1      51.441   7.416  10.074  0.00  0.00    +0.000 HD
ENDBRANCH  20  23
ENDBRANCH  18  19
ENDBRANCH   4  18
TORSDOF 7
ENDMDL
MODEL 9
REMARK VINA RESULT:    -5.365      2.452      3.244
REMARK INTER + INTRA:          -8.620
REMARK INTER:                  -7.448
REMARK INTRA:                  -1.172
REMARK UNBOUND:                -1.217
REMARK  Name = 
REMARK  7 active torsions:
REMARK  status: ('A' for Active; 'I' for Inactive)
REMARK    1  A    between atoms: N_1  and  C_2
REMARK    2  A    between atoms: C_2  and  C_3
REMARK    3  A    between atoms: C_6  and  C_7
REMARK    4  A    between atoms: C_7  and  C_8
REMARK    5  A    between atoms: C_11  and  C_12
REMARK    6  A    between atoms: C_12  and  N_13
REMARK    7  A    between atoms: C_14  and  C_16
REMARK                            x       y       z     vdW  Elec       q    Type
REMARK                         _______ _______ _______ _____ _____    ______ ____
ROOT
ATOM      1  C   UNL     1      50.784   7.513  17.191  0.00  0.00    +0.000 A 
ATOM      2  C   UNL     1      49.622   8.293  17.203  0.00  0.00    +0.000 A 
ATOM      3  C   UNL     1      49.076   8.771  16.008  0.00  0.00    +0.000 A 
ATOM      4  C   UNL     1      49.688   8.488  14.779  0.00  0.00    +0.000 A 
ATOM      5  C   UNL     1      50.906   7.795  14.780  0.00  0.00    +0.000 A 
ATOM      6  C   UNL     1      51.444   7.308  15.973  0.00  0.00    +0.000 A 
ENDROOT
BRANCH   1   7
ATOM      7  C   UNL     1      51.328   6.894  18.458  0.00  0.00    +0.000 C 
BRANCH   7  11
ATOM      8  C   UNL     1      51.270   3.415  17.346  0.00  0.00    +0.000 C 
ATOM      9  C   UNL     1      52.192   3.952  18.448  0.00  0.00    +0.000 C 
ATOM     10  C   UNL     1      51.401   4.608  19.572  0.00  0.00    +0.000 C 
ATOM     11  C   UNL     1      50.492   5.711  19.018  0.00  0.00    +0.000 C 
ATOM     12  C   UNL     1      49.577   5.062  17.971  0.00  0.00    +0.000 C 
ATOM     13  O   UNL     1      50.297   4.390  16.939  0.00  0.00    +0.000 OA
BRANCH   8  14
ATOM     14  C   UNL     1      50.653   2.035  17.687  0.00  0.00    +0.000 C 
BRANCH  14  15
ATOM     15  N   UNL     1      51.672   1.043  18.059  0.00  0.00    +0.000 NA
ATOM     16  H   UNL     1      51.306   0.101  17.925  0.00  0.00    +0.000 HD
ATOM     17  H   UNL     1      51.894   1.120  19.050  0.00  0.00    +0.000 HD
ENDBRANCH  14  15
ENDBRANCH   8  14
ENDBRANCH   7  11
ENDBRANCH   1   7
BRANCH   4  18
ATOM     18  C   UNL     1      49.069   8.940  13.483  0.00  0.00    +0.000 C 
BRANCH  18  19
ATOM     19  N   UNL     1      48.129   7.968  12.994  0.00  0.00    +0.000 N 
ATOM     20  C   UNL     1      46.780   8.111  13.184  0.00  0.00    +0.000 C 
ATOM     21  O   UNL     1      46.294   9.098  13.729  0.00  0.00    +0.000 OA
ATOM     22  H   UNL     1      48.506   7.056  12.767  0.00  0.00    +0.000 HD
BRANCH  20  23
ATOM     23  C   UNL     1      45.937   7.047  12.622  0.00  0.00    +0.000 A 
ATOM     24  C   UNL     1      44.896   7.371  11.763  0.00  0.00    +0.000 A 
ATOM     25  S   UNL     1      44.085   6.010  11.128  0.00  0.00    +0.000 S 
ATOM     26  C   UNL     1      45.058   4.945  12.031  0.00  0.00    +0.000 A 
ATOM     27  N   UNL     1      44.871   3.598  11.956  0.00  0.00    +0.000 NA
ATOM     28  C   UNL     1      45.662   2.908  12.714  0.00  0.00    +0.000 A 
ATOM     29  N   UNL     1      46.616   3.444  13.538  0.00  0.00    +0.000 N 
ATOM     30  C   UNL     1      46.848   4.795  13.635  0.00  0.00    +0.000 A 
ATOM     31  O   UNL     1      47.719   5.238  14.371  0.00  0.00    +0.000 OA
ATOM     32  C   UNL     1      45.992   5.614  12.794  0.00  0.00    +0.000 A 
ATOM     33  H   UNL     1      47.199   2.851  14.110  0.00  0.00    +0.000 HD
ENDBRANCH  20  23
ENDBRANCH  18  19
ENDBRANCH   4  18
TORSDOF 7
ENDMDL
