MODEL 1
REMARK VINA RESULT:    -8.688      0.000      0.000
REMARK INTER + INTRA:         -13.736
REMARK INTER:                 -12.497
REMARK INTRA:                  -1.238
REMARK UNBOUND:                -1.238
REMARK  Name = 
REMARK  8 active torsions:
REMARK  status: ('A' for Active; 'I' for Inactive)
REMARK    1  A    between atoms: C_2  and  C_21
REMARK    2  A    between atoms: N_3  and  C_4
REMARK    3  A    between atoms: C_4  and  C_5
REMARK    4  A    between atoms: C_8  and  C_9
REMARK    5  A    between atoms: C_9  and  C_10
REMARK    6  A    between atoms: C_10  and  O_11
REMARK    7  A    between atoms: C_10  and  C_12
REMARK    8  A    between atoms: C_12  and  C_13
REMARK                            x       y       z     vdW  Elec       q    Type
REMARK                         _______ _______ _______ _____ _____    ______ ____
ROOT
ATOM      1  C   UNL     1      46.112   7.104  12.444  0.00  0.00    +0.000 A 
ATOM      2  C   UNL     1      46.665   6.632  11.259  0.00  0.00    +0.000 A 
ATOM      3  C   UNL     1      45.924   5.749  10.477  0.00  0.00    +0.000 A 
ATOM      4  C   UNL     1      44.643   5.364  10.884  0.00  0.00    +0.000 A 
ATOM      5  C   UNL     1      44.160   5.919  12.063  0.00  0.00    +0.000 A 
ATOM      6  N   UNL     1      44.862   6.763  12.850  0.00  0.00    +0.000 NA
ENDROOT
BRANCH   1   7
ATOM      7  C   UNL     1      46.894   8.058  13.316  0.00  0.00    +0.000 C 
BRANCH   7  10
ATOM      8  O   UNL     1      49.351   6.712  13.539  0.00  0.00    +0.000 OA
ATOM      9  C   UNL     1      48.643   6.822  14.538  0.00  0.00    +0.000 C 
ATOM     10  N   UNL     1      47.406   7.409  14.499  0.00  0.00    +0.000 N 
ATOM     11  H   UNL     1      46.975   7.711  15.366  0.00  0.00    +0.000 HD
BRANCH   9  12
ATOM     12  C   UNL     1      49.052   6.273  15.835  0.00  0.00    +0.000 A 
ATOM     13  C   UNL     1      50.073   6.871  16.557  0.00  0.00    +0.000 A 
ATOM     14  S   UNL     1      50.421   6.076  18.027  0.00  0.00    +0.000 S 
ATOM     15  C   UNL     1      49.195   4.928  17.760  0.00  0.00    +0.000 A 
ATOM     16  N   UNL     1      48.940   3.945  18.668  0.00  0.00    +0.000 NA
ATOM     17  C   UNL     1      47.955   3.171  18.351  0.00  0.00    +0.000 A 
ATOM     18  N   UNL     1      47.208   3.283  17.208  0.00  0.00    +0.000 N 
ATOM     19  C   UNL     1      47.466   4.216  16.238  0.00  0.00    +0.000 A 
ATOM     20  O   UNL     1      46.850   4.218  15.177  0.00  0.00    +0.000 OA
ATOM     21  C   UNL     1      48.542   5.136  16.560  0.00  0.00    +0.000 A 
ATOM     22  H   UNL     1      46.468   2.629  17.001  0.00  0.00    +0.000 HD
ENDBRANCH   9  12
ENDBRANCH   7  10
ENDBRANCH   1   7
BRANCH   4  23
ATOM     23  C   UNL     1      43.840   4.353  10.102  0.00  0.00    +0.000 C 
BRANCH  23  24
ATOM     24  C   UNL     1      44.280   2.887  10.315  0.00  0.00    +0.000 C 
BRANCH  24  25
ATOM     25  O   UNL     1      43.469   2.306  11.345  0.00  0.00    +0.000 OA
ATOM     26  H   UNL     1      42.610   2.079  10.949  0.00  0.00    +0.000 HD
ENDBRANCH  24  25
BRANCH  24  27
ATOM     27  C   UNL     1      44.245   2.038   9.033  0.00  0.00    +0.000 C 
BRANCH  27  28
ATOM     28  C   UNL     1      45.526   2.134   8.238  0.00  0.00    +0.000 A 
ATOM     29  C   UNL     1      45.890   3.339   7.638  0.00  0.00    +0.000 A 
ATOM     30  C   UNL     1      47.074   3.402   6.909  0.00  0.00    +0.000 A 
ATOM     31  C   UNL     1      47.861   2.265   6.797  0.00  0.00    +0.000 A 
ATOM     32  C   UNL     1      47.428   1.108   7.422  0.00  0.00    +0.000 A 
ATOM     33  N   UNL     1      46.284   1.014   8.139  0.00  0.00    +0.000 NA
ENDBRANCH  27  28
ENDBRANCH  24  27
ENDBRANCH  23  24
ENDBRANCH   4  23
TORSDOF 8
ENDMDL
MODEL 2
REMARK VINA RESULT:    -8.145      1.614      1.811
REMARK INTER + INTRA:         -12.954
REMARK INTER:                 -11.867
REMARK INTRA:                  -1.087
REMARK UNBOUND:                -1.238
REMARK  Name = 
REMARK  8 active torsions:
REMARK  status: ('A' for Active; 'I' for Inactive)
REMARK    1  A    between atoms: C_2  and  C_21
REMARK    2  A    between atoms: N_3  and  C_4
REMARK    3  A    between atoms: C_4  and  C_5
REMARK    4  A    between atoms: C_8  and  C_9
REMARK    5  A    between atoms: C_9  and  C_10
REMARK    6  A    between atoms: C_10  and  O_11
REMARK    7  A    between atoms: C_10  and  C_12
REMARK    8  A    between atoms: C_12  and  C_13
REMARK                            x       y       z     vdW  Elec       q    Type
REMARK                         _______ _______ _______ _____ _____    ______ ____
ROOT
ATOM      1  C   UNL     1      47.081   6.506  13.013  0.00  0.00    +0.000 A 
ATOM      2  C   UNL     1      46.642   6.868  11.744  0.00  0.00    +0.000 A 
ATOM      3  C   UNL     1      45.608   6.142  11.159  0.00  0.00    +0.000 A 
ATOM      4  C   UNL     1      45.023   5.078  11.852  0.00  0.00    +0.000 A 
ATOM      5  C   UNL     1      45.501   4.817  13.131  0.00  0.00    +0.000 A 
ATOM      6  N   UNL     1      46.514   5.492  13.716  0.00  0.00    +0.000 NA
ENDROOT
BRANCH   1   7
ATOM      7  C   UNL     1      48.204   7.271  13.672  0.00  0.00    +0.000 C 
BRANCH   7  10
ATOM      8  O   UNL     1      50.329   6.709  15.424  0.00  0.00    +0.000 OA
ATOM      9  C   UNL     1      49.227   6.979  15.897  0.00  0.00    +0.000 C 
ATOM     10  N   UNL     1      48.128   7.206  15.112  0.00  0.00    +0.000 N 
ATOM     11  H   UNL     1      47.322   7.672  15.513  0.00  0.00    +0.000 HD
BRANCH   9  12
ATOM     12  C   UNL     1      49.000   7.019  17.345  0.00  0.00    +0.000 A 
ATOM     13  C   UNL     1      48.747   8.225  17.981  0.00  0.00    +0.000 A 
ATOM     14  S   UNL     1      48.533   8.071  19.667  0.00  0.00    +0.000 S 
ATOM     15  C   UNL     1      48.739   6.385  19.595  0.00  0.00    +0.000 A 
ATOM     16  N   UNL     1      48.655   5.617  20.717  0.00  0.00    +0.000 NA
ATOM     17  C   UNL     1      48.792   4.349  20.505  0.00  0.00    +0.000 A 
ATOM     18  N   UNL     1      49.013   3.780  19.279  0.00  0.00    +0.000 N 
ATOM     19  C   UNL     1      49.165   4.517  18.132  0.00  0.00    +0.000 A 
ATOM     20  O   UNL     1      49.471   3.984  17.070  0.00  0.00    +0.000 OA
ATOM     21  C   UNL     1      48.985   5.947  18.308  0.00  0.00    +0.000 A 
ATOM     22  H   UNL     1      49.140   2.785  19.179  0.00  0.00    +0.000 HD
ENDBRANCH   9  12
ENDBRANCH   7  10
ENDBRANCH   1   7
BRANCH   4  23
ATOM     23  C   UNL     1      43.951   4.222  11.222  0.00  0.00    +0.000 C 
BRANCH  23  24
ATOM     24  C   UNL     1      44.488   3.115  10.287  0.00  0.00    +0.000 C 
BRANCH  24  25
ATOM     25  O   UNL     1      43.711   1.926  10.486  0.00  0.00    +0.000 OA
ATOM     26  H   UNL     1      44.331   1.187  10.611  0.00  0.00    +0.000 HD
ENDBRANCH  24  25
BRANCH  24  27
ATOM     27  C   UNL     1      44.517   3.519   8.804  0.00  0.00    +0.000 C 
BRANCH  27  28
ATOM     28  C   UNL     1      45.598   2.803   8.029  0.00  0.00    +0.000 A 
ATOM     29  C   UNL     1      46.243   3.442   6.970  0.00  0.00    +0.000 A 
ATOM     30  C   UNL     1      47.233   2.760   6.270  0.00  0.00    +0.000 A 
ATOM     31  C   UNL     1      47.554   1.463   6.641  0.00  0.00    +0.000 A 
ATOM     32  C   UNL     1      46.866   0.899   7.702  0.00  0.00    +0.000 A 
ATOM     33  N   UNL     1      45.900   1.536   8.405  0.00  0.00    +0.000 NA
ENDBRANCH  27  28
ENDBRANCH  24  27
ENDBRANCH  23  24
ENDBRANCH   4  23
TORSDOF 8
ENDMDL
MODEL 3
REMARK VINA RESULT:    -7.990      2.528      3.023
REMARK INTER + INTRA:         -12.732
REMARK INTER:                 -11.523
REMARK INTRA:                  -1.208
REMARK UNBOUND:                -1.238
REMARK  Name = 
REMARK  8 active torsions:
REMARK  status: ('A' for Active; 'I' for Inactive)
REMARK    1  A    between atoms: C_2  and  C_21
REMARK    2  A    between atoms: N_3  and  C_4
REMARK    3  A    between atoms: C_4  and  C_5
REMARK    4  A    between atoms: C_8  and  C_9
REMARK    5  A    between atoms: C_9  and  C_10
REMARK    6  A    between atoms: C_10  and  O_11
REMARK    7  A    between atoms: C_10  and  C_12
REMARK    8  A    between atoms: C_12  and  C_13
REMARK                            x       y       z     vdW  Elec       q    Type
REMARK                         _______ _______ _______ _____ _____    ______ ____
ROOT
ATOM      1  C   UNL     1      47.383   6.164  13.405  0.00  0.00    +0.000 A 
ATOM      2  C   UNL     1      47.089   6.748  12.178  0.00  0.00    +0.000 A 
ATOM      3  C   UNL     1      46.025   6.246  11.433  0.00  0.00    +0.000 A 
ATOM      4  C   UNL     1      45.266   5.183  11.930  0.00  0.00    +0.000 A 
ATOM      5  C   UNL     1      45.610   4.691  13.183  0.00  0.00    +0.000 A 
ATOM      6  N   UNL     1      46.648   5.145  13.920  0.00  0.00    +0.000 NA
ENDROOT
BRANCH   1   7
ATOM      7  C   UNL     1      48.535   6.681  14.234  0.00  0.00    +0.000 C 
BRANCH   7  10
ATOM      8  O   UNL     1      50.229   5.863  16.322  0.00  0.00    +0.000 OA
ATOM      9  C   UNL     1      49.128   6.331  16.602  0.00  0.00    +0.000 C 
ATOM     10  N   UNL     1      48.221   6.697  15.642  0.00  0.00    +0.000 N 
ATOM     11  H   UNL     1      47.451   7.306  15.896  0.00  0.00    +0.000 HD
BRANCH   9  12
ATOM     12  C   UNL     1      48.683   6.475  17.992  0.00  0.00    +0.000 A 
ATOM     13  C   UNL     1      48.751   5.399  18.863  0.00  0.00    +0.000 A 
ATOM     14  S   UNL     1      48.166   5.754  20.427  0.00  0.00    +0.000 S 
ATOM     15  C   UNL     1      47.837   7.366  19.998  0.00  0.00    +0.000 A 
ATOM     16  N   UNL     1      47.326   8.246  20.904  0.00  0.00    +0.000 NA
ATOM     17  C   UNL     1      47.165   9.445  20.448  0.00  0.00    +0.000 A 
ATOM     18  N   UNL     1      47.460   9.843  19.171  0.00  0.00    +0.000 N 
ATOM     19  C   UNL     1      47.918   8.980  18.209  0.00  0.00    +0.000 A 
ATOM     20  O   UNL     1      48.067   9.344  17.046  0.00  0.00    +0.000 OA
ATOM     21  C   UNL     1      48.151   7.626  18.677  0.00  0.00    +0.000 A 
ATOM     22  H   UNL     1      47.285  10.788  18.864  0.00  0.00    +0.000 HD
ENDBRANCH   9  12
ENDBRANCH   7  10
ENDBRANCH   1   7
BRANCH   4  23
ATOM     23  C   UNL     1      44.152   4.565  11.119  0.00  0.00    +0.000 C 
BRANCH  23  24
ATOM     24  C   UNL     1      44.589   3.367  10.246  0.00  0.00    +0.000 C 
BRANCH  24  25
ATOM     25  O   UNL     1      43.749   2.244  10.549  0.00  0.00    +0.000 OA
ATOM     26  H   UNL     1      43.103   2.532  11.216  0.00  0.00    +0.000 HD
ENDBRANCH  24  25
BRANCH  24  27
ATOM     27  C   UNL     1      44.591   3.670   8.738  0.00  0.00    +0.000 C 
BRANCH  27  28
ATOM     28  C   UNL     1      45.654   2.897   7.993  0.00  0.00    +0.000 A 
ATOM     29  C   UNL     1      46.343   3.493   6.937  0.00  0.00    +0.000 A 
ATOM     30  C   UNL     1      47.316   2.760   6.265  0.00  0.00    +0.000 A 
ATOM     31  C   UNL     1      47.575   1.455   6.660  0.00  0.00    +0.000 A 
ATOM     32  C   UNL     1      46.845   0.937   7.716  0.00  0.00    +0.000 A 
ATOM     33  N   UNL     1      45.894   1.624   8.392  0.00  0.00    +0.000 NA
ENDBRANCH  27  28
ENDBRANCH  24  27
ENDBRANCH  23  24
ENDBRANCH   4  23
TORSDOF 8
ENDMDL
MODEL 4
REMARK VINA RESULT:    -7.416      2.219      3.659
REMARK INTER + INTRA:         -11.905
REMARK INTER:                 -10.936
REMARK INTRA:                  -0.969
REMARK UNBOUND:                -1.238
REMARK  Name = 
REMARK  8 active torsions:
REMARK  status: ('A' for Active; 'I' for Inactive)
REMARK    1  A    between atoms: C_2  and  C_21
REMARK    2  A    between atoms: N_3  and  C_4
REMARK    3  A    between atoms: C_4  and  C_5
REMARK    4  A    between atoms: C_8  and  C_9
REMARK    5  A    between atoms: C_9  and  C_10
REMARK    6  A    between atoms: C_10  and  O_11
REMARK    7  A    between atoms: C_10  and  C_12
REMARK    8  A    between atoms: C_12  and  C_13
REMARK                            x       y       z     vdW  Elec       q    Type
REMARK                         _______ _______ _______ _____ _____    ______ ____
ROOT
ATOM      1  C   UNL     1      46.269   4.381  13.909  0.00  0.00    +0.000 A 
ATOM      2  C   UNL     1      46.065   3.258  13.116  0.00  0.00    +0.000 A 
ATOM      3  C   UNL     1      45.247   3.368  11.993  0.00  0.00    +0.000 A 
ATOM      4  C   UNL     1      44.660   4.596  11.675  0.00  0.00    +0.000 A 
ATOM      5  C   UNL     1      44.955   5.671  12.504  0.00  0.00    +0.000 A 
ATOM      6  N   UNL     1      45.728   5.591  13.609  0.00  0.00    +0.000 NA
ENDROOT
BRANCH   1   7
ATOM      7  C   UNL     1      47.145   4.293  15.136  0.00  0.00    +0.000 C 
BRANCH   7  10
ATOM      8  O   UNL     1      49.335   4.733  16.842  0.00  0.00    +0.000 OA
ATOM      9  C   UNL     1      48.813   5.697  16.288  0.00  0.00    +0.000 C 
ATOM     10  N   UNL     1      47.706   5.574  15.491  0.00  0.00    +0.000 N 
ATOM     11  H   UNL     1      47.467   6.329  14.857  0.00  0.00    +0.000 HD
BRANCH   9  12
ATOM     12  C   UNL     1      49.307   7.063  16.493  0.00  0.00    +0.000 A 
ATOM     13  C   UNL     1      49.382   7.596  17.771  0.00  0.00    +0.000 A 
ATOM     14  S   UNL     1      49.957   9.202  17.803  0.00  0.00    +0.000 S 
ATOM     15  C   UNL     1      50.157   9.223  16.115  0.00  0.00    +0.000 A 
ATOM     16  N   UNL     1      50.646  10.323  15.477  0.00  0.00    +0.000 NA
ATOM     17  C   UNL     1      50.781  10.181  14.199  0.00  0.00    +0.000 A 
ATOM     18  N   UNL     1      50.466   9.046  13.501  0.00  0.00    +0.000 N 
ATOM     19  C   UNL     1      49.915   7.937  14.090  0.00  0.00    +0.000 A 
ATOM     20  O   UNL     1      49.541   6.980  13.419  0.00  0.00    +0.000 OA
ATOM     21  C   UNL     1      49.773   8.030  15.532  0.00  0.00    +0.000 A 
ATOM     22  H   UNL     1      50.566   9.004  12.498  0.00  0.00    +0.000 HD
ENDBRANCH   9  12
ENDBRANCH   7  10
ENDBRANCH   1   7
BRANCH   4  23
ATOM     23  C   UNL     1      43.711   4.736  10.510  0.00  0.00    +0.000 C 
BRANCH  23  24
ATOM     24  C   UNL     1      44.343   4.430   9.133  0.00  0.00    +0.000 C 
BRANCH  24  25
ATOM     25  O   UNL     1      45.574   5.157   9.018  0.00  0.00    +0.000 OA
ATOM     26  H   UNL     1      45.701   5.653   9.845  0.00  0.00    +0.000 HD
ENDBRANCH  24  25
BRANCH  24  27
ATOM     27  C   UNL     1      44.557   2.929   8.872  0.00  0.00    +0.000 C 
BRANCH  27  28
ATOM     28  C   UNL     1      45.672   2.665   7.888  0.00  0.00    +0.000 A 
ATOM     29  C   UNL     1      46.487   1.543   8.036  0.00  0.00    +0.000 A 
ATOM     30  C   UNL     1      47.509   1.322   7.119  0.00  0.00    +0.000 A 
ATOM     31  C   UNL     1      47.693   2.224   6.080  0.00  0.00    +0.000 A 
ATOM     32  C   UNL     1      46.843   3.314   6.005  0.00  0.00    +0.000 A 
ATOM     33  N   UNL     1      45.838   3.555   6.879  0.00  0.00    +0.000 NA
ENDBRANCH  27  28
ENDBRANCH  24  27
ENDBRANCH  23  24
ENDBRANCH   4  23
TORSDOF 8
ENDMDL
MODEL 5
REMARK VINA RESULT:    -7.379      2.604      3.251
REMARK INTER + INTRA:         -11.853
REMARK INTER:                 -11.359
REMARK INTRA:                  -0.494
REMARK UNBOUND:                -1.238
REMARK  Name = 
REMARK  8 active torsions:
REMARK  status: ('A' for Active; 'I' for Inactive)
REMARK    1  A    between atoms: C_2  and  C_21
REMARK    2  A    between atoms: N_3  and  C_4
REMARK    3  A    between atoms: C_4  and  C_5
REMARK    4  A    between atoms: C_8  and  C_9
REMARK    5  A    between atoms: C_9  and  C_10
REMARK    6  A    between atoms: C_10  and  O_11
REMARK    7  A    between atoms: C_10  and  C_12
REMARK    8  A    between atoms: C_12  and  C_13
REMARK                            x       y       z     vdW  Elec       q    Type
REMARK                         _______ _______ _______ _____ _____    ______ ____
ROOT
ATOM      1  C   UNL     1      48.129   6.658  14.621  0.00  0.00    +0.000 A 
ATOM      2  C   UNL     1      47.464   7.339  13.607  0.00  0.00    +0.000 A 
ATOM      3  C   UNL     1      46.584   6.633  12.790  0.00  0.00    +0.000 A 
ATOM      4  C   UNL     1      46.373   5.268  13.006  0.00  0.00    +0.000 A 
ATOM      5  C   UNL     1      47.052   4.684  14.069  0.00  0.00    +0.000 A 
ATOM      6  N   UNL     1      47.925   5.338  14.866  0.00  0.00    +0.000 NA
ENDROOT
BRANCH   1   7
ATOM      7  C   UNL     1      49.093   7.395  15.520  0.00  0.00    +0.000 C 
BRANCH   7  10
ATOM      8  O   UNL     1      49.269   6.260  18.086  0.00  0.00    +0.000 OA
ATOM      9  C   UNL     1      50.126   5.975  17.253  0.00  0.00    +0.000 C 
ATOM     10  N   UNL     1      50.146   6.532  16.001  0.00  0.00    +0.000 N 
ATOM     11  H   UNL     1      50.695   6.090  15.272  0.00  0.00    +0.000 HD
BRANCH   9  12
ATOM     12  C   UNL     1      51.229   5.060  17.565  0.00  0.00    +0.000 A 
ATOM     13  C   UNL     1      52.462   5.557  17.956  0.00  0.00    +0.000 A 
ATOM     14  S   UNL     1      53.622   4.341  18.251  0.00  0.00    +0.000 S 
ATOM     15  C   UNL     1      52.502   3.110  17.898  0.00  0.00    +0.000 A 
ATOM     16  N   UNL     1      52.851   1.796  17.979  0.00  0.00    +0.000 NA
ATOM     17  C   UNL     1      51.887   0.973  17.722  0.00  0.00    +0.000 A 
ATOM     18  N   UNL     1      50.612   1.343  17.385  0.00  0.00    +0.000 N 
ATOM     19  C   UNL     1      50.232   2.651  17.231  0.00  0.00    +0.000 A 
ATOM     20  O   UNL     1      49.113   2.944  16.820  0.00  0.00    +0.000 OA
ATOM     21  C   UNL     1      51.267   3.619  17.543  0.00  0.00    +0.000 A 
ATOM     22  H   UNL     1      49.909   0.654  17.167  0.00  0.00    +0.000 HD
ENDBRANCH   9  12
ENDBRANCH   7  10
ENDBRANCH   1   7
BRANCH   4  23
ATOM     23  C   UNL     1      45.484   4.455  12.097  0.00  0.00    +0.000 C 
BRANCH  23  24
ATOM     24  C   UNL     1      44.961   5.225  10.863  0.00  0.00    +0.000 C 
BRANCH  24  25
ATOM     25  O   UNL     1      46.069   5.862  10.213  0.00  0.00    +0.000 OA
ATOM     26  H   UNL     1      45.716   6.380   9.470  0.00  0.00    +0.000 HD
ENDBRANCH  24  25
BRANCH  24  27
ATOM     27  C   UNL     1      44.167   4.349   9.879  0.00  0.00    +0.000 C 
BRANCH  27  28
ATOM     28  C   UNL     1      45.062   3.571   8.943  0.00  0.00    +0.000 A 
ATOM     29  C   UNL     1      45.245   2.201   9.126  0.00  0.00    +0.000 A 
ATOM     30  C   UNL     1      46.076   1.506   8.253  0.00  0.00    +0.000 A 
ATOM     31  C   UNL     1      46.702   2.193   7.222  0.00  0.00    +0.000 A 
ATOM     32  C   UNL     1      46.469   3.554   7.111  0.00  0.00    +0.000 A 
ATOM     33  N   UNL     1      45.665   4.258   7.942  0.00  0.00    +0.000 NA
ENDBRANCH  27  28
ENDBRANCH  24  27
ENDBRANCH  23  24
ENDBRANCH   4  23
TORSDOF 8
ENDMDL
MODEL 6
REMARK VINA RESULT:    -7.130      2.824      8.260
REMARK INTER + INTRA:         -11.495
REMARK INTER:                 -10.077
REMARK INTRA:                  -1.418
REMARK UNBOUND:                -1.238
REMARK  Name = 
REMARK  8 active torsions:
REMARK  status: ('A' for Active; 'I' for Inactive)
REMARK    1  A    between atoms: C_2  and  C_21
REMARK    2  A    between atoms: N_3  and  C_4
REMARK    3  A    between atoms: C_4  and  C_5
REMARK    4  A    between atoms: C_8  and  C_9
REMARK    5  A    between atoms: C_9  and  C_10
REMARK    6  A    between atoms: C_10  and  O_11
REMARK    7  A    between atoms: C_10  and  C_12
REMARK    8  A    between atoms: C_12  and  C_13
REMARK                            x       y       z     vdW  Elec       q    Type
REMARK                         _______ _______ _______ _____ _____    ______ ____
ROOT
ATOM      1  C   UNL     1      48.345   7.599  14.071  0.00  0.00    +0.000 A 
ATOM      2  C   UNL     1      48.143   8.754  14.819  0.00  0.00    +0.000 A 
ATOM      3  C   UNL     1      48.539   8.767  16.154  0.00  0.00    +0.000 A 
ATOM      4  C   UNL     1      49.139   7.636  16.716  0.00  0.00    +0.000 A 
ATOM      5  C   UNL     1      49.336   6.544  15.880  0.00  0.00    +0.000 A 
ATOM      6  N   UNL     1      48.946   6.496  14.587  0.00  0.00    +0.000 NA
ENDROOT
BRANCH   1   7
ATOM      7  C   UNL     1      47.922   7.551  12.623  0.00  0.00    +0.000 C 
BRANCH   7  10
ATOM      8  O   UNL     1      45.115   7.409  12.665  0.00  0.00    +0.000 OA
ATOM      9  C   UNL     1      45.753   6.416  12.323  0.00  0.00    +0.000 C 
ATOM     10  N   UNL     1      47.123   6.385  12.333  0.00  0.00    +0.000 N 
ATOM     11  H   UNL     1      47.605   5.663  11.809  0.00  0.00    +0.000 HD
BRANCH   9  12
ATOM     12  C   UNL     1      45.086   5.169  11.934  0.00  0.00    +0.000 A 
ATOM     13  C   UNL     1      44.370   4.438  12.869  0.00  0.00    +0.000 A 
ATOM     14  S   UNL     1      43.688   3.008  12.235  0.00  0.00    +0.000 S 
ATOM     15  C   UNL     1      44.301   3.338  10.683  0.00  0.00    +0.000 A 
ATOM     16  N   UNL     1      44.060   2.499   9.637  0.00  0.00    +0.000 NA
ATOM     17  C   UNL     1      44.553   2.899   8.511  0.00  0.00    +0.000 A 
ATOM     18  N   UNL     1      45.271   4.052   8.336  0.00  0.00    +0.000 N 
ATOM     19  C   UNL     1      45.590   4.895   9.369  0.00  0.00    +0.000 A 
ATOM     20  O   UNL     1      46.328   5.861   9.198  0.00  0.00    +0.000 OA
ATOM     21  C   UNL     1      45.030   4.512  10.653  0.00  0.00    +0.000 A 
ATOM     22  H   UNL     1      45.656   4.297   7.437  0.00  0.00    +0.000 HD
ENDBRANCH   9  12
ENDBRANCH   7  10
ENDBRANCH   1   7
BRANCH   4  23
ATOM     23  C   UNL     1      49.514   7.588  18.177  0.00  0.00    +0.000 C 
BRANCH  23  24
ATOM     24  C   UNL     1      48.358   7.178  19.118  0.00  0.00    +0.000 C 
BRANCH  24  25
ATOM     25  O   UNL     1      47.115   7.341  18.420  0.00  0.00    +0.000 OA
ATOM     26  H   UNL     1      47.192   6.876  17.570  0.00  0.00    +0.000 HD
ENDBRANCH  24  25
BRANCH  24  27
ATOM     27  C   UNL     1      48.496   5.755  19.684  0.00  0.00    +0.000 C 
BRANCH  27  28
ATOM     28  C   UNL     1      48.401   4.693  18.613  0.00  0.00    +0.000 A 
ATOM     29  C   UNL     1      49.497   3.876  18.337  0.00  0.00    +0.000 A 
ATOM     30  C   UNL     1      49.385   2.907  17.345  0.00  0.00    +0.000 A 
ATOM     31  C   UNL     1      48.188   2.779  16.655  0.00  0.00    +0.000 A 
ATOM     32  C   UNL     1      47.149   3.630  16.989  0.00  0.00    +0.000 A 
ATOM     33  N   UNL     1      47.225   4.581  17.950  0.00  0.00    +0.000 NA
ENDBRANCH  27  28
ENDBRANCH  24  27
ENDBRANCH  23  24
ENDBRANCH   4  23
TORSDOF 8
ENDMDL
MODEL 7
REMARK VINA RESULT:    -7.092      3.067      4.263
REMARK INTER + INTRA:         -11.439
REMARK INTER:                 -10.273
REMARK INTRA:                  -1.166
REMARK UNBOUND:                -1.238
REMARK  Name = 
REMARK  8 active torsions:
REMARK  status: ('A' for Active; 'I' for Inactive)
REMARK    1  A    between atoms: C_2  and  C_21
REMARK    2  A    between atoms: N_3  and  C_4
REMARK    3  A    between atoms: C_4  and  C_5
REMARK    4  A    between atoms: C_8  and  C_9
REMARK    5  A    between atoms: C_9  and  C_10
REMARK    6  A    between atoms: C_10  and  O_11
REMARK    7  A    between atoms: C_10  and  C_12
REMARK    8  A    between atoms: C_12  and  C_13
REMARK                            x       y       z     vdW  Elec       q    Type
REMARK                         _______ _______ _______ _____ _____    ______ ____
ROOT
ATOM      1  C   UNL     1      48.264   5.654  16.010  0.00  0.00    +0.000 A 
ATOM      2  C   UNL     1      47.491   4.511  16.182  0.00  0.00    +0.000 A 
ATOM      3  C   UNL     1      46.736   4.044  15.109  0.00  0.00    +0.000 A 
ATOM      4  C   UNL     1      46.775   4.714  13.883  0.00  0.00    +0.000 A 
ATOM      5  C   UNL     1      47.608   5.823  13.795  0.00  0.00    +0.000 A 
ATOM      6  N   UNL     1      48.337   6.310  14.823  0.00  0.00    +0.000 NA
ENDROOT
BRANCH   1   7
ATOM      7  C   UNL     1      49.089   6.189  17.156  0.00  0.00    +0.000 C 
BRANCH   7  10
ATOM      8  O   UNL     1      51.806   6.220  16.432  0.00  0.00    +0.000 OA
ATOM      9  C   UNL     1      51.413   5.366  17.224  0.00  0.00    +0.000 C 
ATOM     10  N   UNL     1      50.096   5.246  17.581  0.00  0.00    +0.000 N 
ATOM     11  H   UNL     1      49.855   4.719  18.413  0.00  0.00    +0.000 HD
BRANCH   9  12
ATOM     12  C   UNL     1      52.326   4.373  17.800  0.00  0.00    +0.000 A 
ATOM     13  C   UNL     1      53.484   4.778  18.445  0.00  0.00    +0.000 A 
ATOM     14  S   UNL     1      54.428   3.480  19.025  0.00  0.00    +0.000 S 
ATOM     15  C   UNL     1      53.301   2.337  18.462  0.00  0.00    +0.000 A 
ATOM     16  N   UNL     1      53.495   1.003  18.654  0.00  0.00    +0.000 NA
ATOM     17  C   UNL     1      52.538   0.256  18.208  0.00  0.00    +0.000 A 
ATOM     18  N   UNL     1      51.411   0.720  17.583  0.00  0.00    +0.000 N 
ATOM     19  C   UNL     1      51.201   2.048  17.314  0.00  0.00    +0.000 A 
ATOM     20  O   UNL     1      50.234   2.418  16.654  0.00  0.00    +0.000 OA
ATOM     21  C   UNL     1      52.230   2.935  17.825  0.00  0.00    +0.000 A 
ATOM     22  H   UNL     1      50.710   0.086  17.231  0.00  0.00    +0.000 HD
ENDBRANCH   9  12
ENDBRANCH   7  10
ENDBRANCH   1   7
BRANCH   4  23
ATOM     23  C   UNL     1      45.915   4.280  12.721  0.00  0.00    +0.000 C 
BRANCH  23  24
ATOM     24  C   UNL     1      44.405   4.545  12.912  0.00  0.00    +0.000 C 
BRANCH  24  25
ATOM     25  O   UNL     1      44.163   5.953  12.782  0.00  0.00    +0.000 OA
ATOM     26  H   UNL     1      44.291   6.188  11.848  0.00  0.00    +0.000 HD
ENDBRANCH  24  25
BRANCH  24  27
ATOM     27  C   UNL     1      43.510   3.736  11.959  0.00  0.00    +0.000 C 
BRANCH  27  28
ATOM     28  C   UNL     1      44.149   3.519  10.607  0.00  0.00    +0.000 A 
ATOM     29  C   UNL     1      44.420   2.226  10.160  0.00  0.00    +0.000 A 
ATOM     30  C   UNL     1      45.012   2.051   8.913  0.00  0.00    +0.000 A 
ATOM     31  C   UNL     1      45.319   3.167   8.147  0.00  0.00    +0.000 A 
ATOM     32  C   UNL     1      45.019   4.416   8.664  0.00  0.00    +0.000 A 
ATOM     33  N   UNL     1      44.442   4.619   9.872  0.00  0.00    +0.000 NA
ENDBRANCH  27  28
ENDBRANCH  24  27
ENDBRANCH  23  24
ENDBRANCH   4  23
TORSDOF 8
ENDMDL
MODEL 8
REMARK VINA RESULT:    -6.880      3.014      3.580
REMARK INTER + INTRA:         -11.135
REMARK INTER:                 -10.058
REMARK INTRA:                  -1.077
REMARK UNBOUND:                -1.238
REMARK  Name = 
REMARK  8 active torsions:
REMARK  status: ('A' for Active; 'I' for Inactive)
REMARK    1  A    between atoms: C_2  and  C_21
REMARK    2  A    between atoms: N_3  and  C_4
REMARK    3  A    between atoms: C_4  and  C_5
REMARK    4  A    between atoms: C_8  and  C_9
REMARK    5  A    between atoms: C_9  and  C_10
REMARK    6  A    between atoms: C_10  and  O_11
REMARK    7  A    between atoms: C_10  and  C_12
REMARK    8  A    between atoms: C_12  and  C_13
REMARK                            x       y       z     vdW  Elec       q    Type
REMARK                         _______ _______ _______ _____ _____    ______ ____
ROOT
ATOM      1  C   UNL     1      47.434   5.337  14.439  0.00  0.00    +0.000 A 
ATOM      2  C   UNL     1      46.700   4.207  14.094  0.00  0.00    +0.000 A 
ATOM      3  C   UNL     1      45.917   4.240  12.943  0.00  0.00    +0.000 A 
ATOM      4  C   UNL     1      45.890   5.392  12.150  0.00  0.00    +0.000 A 
ATOM      5  C   UNL     1      46.687   6.456  12.553  0.00  0.00    +0.000 A 
ATOM      6  N   UNL     1      47.442   6.459  13.674  0.00  0.00    +0.000 NA
ENDROOT
BRANCH   1   7
ATOM      7  C   UNL     1      48.287   5.334  15.684  0.00  0.00    +0.000 C 
BRANCH   7  10
ATOM      8  O   UNL     1      50.080   7.475  16.006  0.00  0.00    +0.000 OA
ATOM      9  C   UNL     1      48.978   7.540  16.546  0.00  0.00    +0.000 C 
ATOM     10  N   UNL     1      48.072   6.514  16.488  0.00  0.00    +0.000 N 
ATOM     11  H   UNL     1      47.101   6.699  16.712  0.00  0.00    +0.000 HD
BRANCH   9  12
ATOM     12  C   UNL     1      48.579   8.703  17.345  0.00  0.00    +0.000 A 
ATOM     13  C   UNL     1      48.635   9.977  16.801  0.00  0.00    +0.000 A 
ATOM     14  S   UNL     1      48.155  11.201  17.890  0.00  0.00    +0.000 S 
ATOM     15  C   UNL     1      47.825  10.063  19.110  0.00  0.00    +0.000 A 
ATOM     16  N   UNL     1      47.351  10.451  20.326  0.00  0.00    +0.000 NA
ATOM     17  C   UNL     1      47.107   9.475  21.139  0.00  0.00    +0.000 A 
ATOM     18  N   UNL     1      47.303   8.151  20.851  0.00  0.00    +0.000 N 
ATOM     19  C   UNL     1      47.835   7.717  19.664  0.00  0.00    +0.000 A 
ATOM     20  O   UNL     1      48.100   6.532  19.482  0.00  0.00    +0.000 OA
ATOM     21  C   UNL     1      48.094   8.770  18.700  0.00  0.00    +0.000 A 
ATOM     22  H   UNL     1      47.122   7.435  21.538  0.00  0.00    +0.000 HD
ENDBRANCH   9  12
ENDBRANCH   7  10
ENDBRANCH   1   7
BRANCH   4  23
ATOM     23  C   UNL     1      44.998   5.491  10.936  0.00  0.00    +0.000 C 
BRANCH  23  24
ATOM     24  C   UNL     1      44.843   4.169  10.150  0.00  0.00    +0.000 C 
BRANCH  24  25
ATOM     25  O   UNL     1      43.573   3.586  10.471  0.00  0.00    +0.000 OA
ATOM     26  H   UNL     1      43.712   2.964  11.206  0.00  0.00    +0.000 HD
ENDBRANCH  24  25
BRANCH  24  27
ATOM     27  C   UNL     1      45.013   4.331   8.630  0.00  0.00    +0.000 C 
BRANCH  27  28
ATOM     28  C   UNL     1      45.836   3.222   8.017  0.00  0.00    +0.000 A 
ATOM     29  C   UNL     1      46.667   3.486   6.929  0.00  0.00    +0.000 A 
ATOM     30  C   UNL     1      47.413   2.447   6.380  0.00  0.00    +0.000 A 
ATOM     31  C   UNL     1      47.310   1.176   6.927  0.00  0.00    +0.000 A 
ATOM     32  C   UNL     1      46.460   0.998   8.006  0.00  0.00    +0.000 A 
ATOM     33  N   UNL     1      45.724   1.987   8.564  0.00  0.00    +0.000 NA
ENDBRANCH  27  28
ENDBRANCH  24  27
ENDBRANCH  23  24
ENDBRANCH   4  23
TORSDOF 8
ENDMDL
MODEL 9
REMARK VINA RESULT:    -6.869      3.756      9.188
REMARK INTER + INTRA:         -11.118
REMARK INTER:                  -9.858
REMARK INTRA:                  -1.260
REMARK UNBOUND:                -1.238
REMARK  Name = 
REMARK  8 active torsions:
REMARK  status: ('A' for Active; 'I' for Inactive)
REMARK    1  A    between atoms: C_2  and  C_21
REMARK    2  A    between atoms: N_3  and  C_4
REMARK    3  A    between atoms: C_4  and  C_5
REMARK    4  A    between atoms: C_8  and  C_9
REMARK    5  A    between atoms: C_9  and  C_10
REMARK    6  A    between atoms: C_10  and  O_11
REMARK    7  A    between atoms: C_10  and  C_12
REMARK    8  A    between atoms: C_12  and  C_13
REMARK                            x       y       z     vdW  Elec       q    Type
REMARK                         _______ _______ _______ _____ _____    ______ ____
ROOT
ATOM      1  C   UNL     1      48.494   4.241  17.353  0.00  0.00    +0.000 A 
ATOM      2  C   UNL     1      48.622   3.906  18.696  0.00  0.00    +0.000 A 
ATOM      3  C   UNL     1      49.657   4.475  19.435  0.00  0.00    +0.000 A 
ATOM      4  C   UNL     1      50.535   5.376  18.826  0.00  0.00    +0.000 A 
ATOM      5  C   UNL     1      50.303   5.680  17.490  0.00  0.00    +0.000 A 
ATOM      6  N   UNL     1      49.320   5.130  16.744  0.00  0.00    +0.000 NA
ENDROOT
BRANCH   1   7
ATOM      7  C   UNL     1      47.387   3.636  16.524  0.00  0.00    +0.000 C 
BRANCH   7  10
ATOM      8  O   UNL     1      47.172   3.220  13.752  0.00  0.00    +0.000 OA
ATOM      9  C   UNL     1      46.742   4.268  14.229  0.00  0.00    +0.000 C 
ATOM     10  N   UNL     1      46.863   4.573  15.559  0.00  0.00    +0.000 N 
ATOM     11  H   UNL     1      46.281   5.303  15.954  0.00  0.00    +0.000 HD
BRANCH   9  12
ATOM     12  C   UNL     1      46.120   5.297  13.389  0.00  0.00    +0.000 A 
ATOM     13  C   UNL     1      46.813   6.456  13.074  0.00  0.00    +0.000 A 
ATOM     14  S   UNL     1      45.916   7.542  12.110  0.00  0.00    +0.000 S 
ATOM     15  C   UNL     1      44.587   6.482  12.055  0.00  0.00    +0.000 A 
ATOM     16  N   UNL     1      43.460   6.801  11.360  0.00  0.00    +0.000 NA
ATOM     17  C   UNL     1      42.549   5.883  11.374  0.00  0.00    +0.000 A 
ATOM     18  N   UNL     1      42.657   4.683  12.025  0.00  0.00    +0.000 N 
ATOM     19  C   UNL     1      43.746   4.344  12.787  0.00  0.00    +0.000 A 
ATOM     20  O   UNL     1      43.764   3.309  13.446  0.00  0.00    +0.000 OA
ATOM     21  C   UNL     1      44.816   5.325  12.777  0.00  0.00    +0.000 A 
ATOM     22  H   UNL     1      41.900   4.017  12.024  0.00  0.00    +0.000 HD
ENDBRANCH   9  12
ENDBRANCH   7  10
ENDBRANCH   1   7
BRANCH   4  23
ATOM     23  C   UNL     1      51.711   5.956  19.574  0.00  0.00    +0.000 C 
BRANCH  23  24
ATOM     24  C   UNL     1      52.941   5.024  19.649  0.00  0.00    +0.000 C 
BRANCH  24  25
ATOM     25  O   UNL     1      52.646   3.942  20.544  0.00  0.00    +0.000 OA
ATOM     26  H   UNL     1      53.174   4.075  21.349  0.00  0.00    +0.000 HD
ENDBRANCH  24  25
BRANCH  24  27
ATOM     27  C   UNL     1      53.406   4.503  18.279  0.00  0.00    +0.000 C 
BRANCH  27  28
ATOM     28  C   UNL     1      53.316   2.999  18.169  0.00  0.00    +0.000 A 
ATOM     29  C   UNL     1      52.163   2.401  17.659  0.00  0.00    +0.000 A 
ATOM     30  C   UNL     1      52.103   1.014  17.570  0.00  0.00    +0.000 A 
ATOM     31  C   UNL     1      53.189   0.261  17.991  0.00  0.00    +0.000 A 
ATOM     32  C   UNL     1      54.294   0.931  18.487  0.00  0.00    +0.000 A 
ATOM     33  N   UNL     1      54.385   2.278  18.585  0.00  0.00    +0.000 NA
ENDBRANCH  27  28
ENDBRANCH  24  27
ENDBRANCH  23  24
ENDBRANCH   4  23
TORSDOF 8
ENDMDL
