MODEL 1
REMARK VINA RESULT:    -8.781      0.000      0.000
REMARK INTER + INTRA:         -12.077
REMARK INTER:                 -11.347
REMARK INTRA:                  -0.730
REMARK UNBOUND:                -0.730
REMARK  Name = 
REMARK  5 active torsions:
REMARK  status: ('A' for Active; 'I' for Inactive)
REMARK    1  A    between atoms: C_2  and  C_4
REMARK    2  A    between atoms: C_7  and  N_8
REMARK    3  A    between atoms: N_8  and  C_9
REMARK    4  A    between atoms: C_9  and  C_10
REMARK    5  A    between atoms: C_14  and  C_15
REMARK                            x       y       z     vdW  Elec       q    Type
REMARK                         _______ _______ _______ _____ _____    ______ ____
ROOT
ATOM      1  C   UNL     1      44.005   3.222  11.840  0.00  0.00    +0.000 C 
ENDROOT
BRANCH   1   2
ATOM      2  C   UNL     1      45.190   3.957  12.448  0.00  0.00    +0.000 A 
ATOM      3  N   UNL     1      46.014   3.221  13.221  0.00  0.00    +0.000 NA
ATOM      4  C   UNL     1      47.021   3.871  13.820  0.00  0.00    +0.000 A 
ATOM      5  C   UNL     1      47.230   5.219  13.684  0.00  0.00    +0.000 A 
ATOM      6  C   UNL     1      46.339   5.912  12.879  0.00  0.00    +0.000 A 
ATOM      7  N   UNL     1      45.300   5.293  12.272  0.00  0.00    +0.000 NA
BRANCH   6   8
ATOM      8  C   UNL     1      46.458   7.362  12.649  0.00  0.00    +0.000 A 
ATOM      9  C   UNL     1      47.704   7.983  12.510  0.00  0.00    +0.000 A 
ATOM     10  N   UNL     1      47.895   9.307  12.265  0.00  0.00    +0.000 NA
ATOM     11  C   UNL     1      46.782  10.068  12.163  0.00  0.00    +0.000 A 
ATOM     12  C   UNL     1      45.505   9.560  12.299  0.00  0.00    +0.000 A 
ATOM     13  F   UNL     1      44.436  10.358  12.193  0.00  0.00    +0.000 F 
ATOM     14  C   UNL     1      45.339   8.204  12.547  0.00  0.00    +0.000 A 
ENDBRANCH   6   8
ENDBRANCH   1   2
BRANCH   1  15
ATOM     15  N   UNL     1      43.703   3.607  10.459  0.00  0.00    +0.000 N 
ATOM     16  H   UNL     1      42.713   3.541  10.231  0.00  0.00    +0.000 HD
BRANCH  15  20
ATOM     17  C   UNL     1      46.500   2.583   7.466  0.00  0.00    +0.000 A 
ATOM     18  C   UNL     1      45.977   1.587   8.290  0.00  0.00    +0.000 A 
ATOM     19  C   UNL     1      45.033   1.912   9.268  0.00  0.00    +0.000 A 
ATOM     20  C   UNL     1      44.566   3.226   9.431  0.00  0.00    +0.000 A 
ATOM     21  C   UNL     1      45.121   4.218   8.610  0.00  0.00    +0.000 A 
ATOM     22  C   UNL     1      46.083   3.905   7.640  0.00  0.00    +0.000 A 
BRANCH  17  24
ATOM     23  N   UNL     1      47.510   3.029   5.301  0.00  0.00    +0.000 N 
ATOM     24  C   UNL     1      47.528   2.273   6.440  0.00  0.00    +0.000 C 
ATOM     25  O   UNL     1      48.374   1.406   6.611  0.00  0.00    +0.000 OA
ATOM     26  H   UNL     1      48.271   2.879   4.648  0.00  0.00    +0.000 HD
ATOM     27  H   UNL     1      47.001   3.898   5.234  0.00  0.00    +0.000 HD
ENDBRANCH  17  24
ENDBRANCH  15  20
ENDBRANCH   1  15
TORSDOF 5
ENDMDL
MODEL 2
REMARK VINA RESULT:    -8.692      1.779      2.055
REMARK INTER + INTRA:         -11.962
REMARK INTER:                 -11.240
REMARK INTRA:                  -0.721
REMARK UNBOUND:                -0.730
REMARK  Name = 
REMARK  5 active torsions:
REMARK  status: ('A' for Active; 'I' for Inactive)
REMARK    1  A    between atoms: C_2  and  C_4
REMARK    2  A    between atoms: C_7  and  N_8
REMARK    3  A    between atoms: N_8  and  C_9
REMARK    4  A    between atoms: C_9  and  C_10
REMARK    5  A    between atoms: C_14  and  C_15
REMARK                            x       y       z     vdW  Elec       q    Type
REMARK                         _______ _______ _______ _____ _____    ______ ____
ROOT
ATOM      1  C   UNL     1      43.701   4.612  11.476  0.00  0.00    +0.000 C 
ENDROOT
BRANCH   1   2
ATOM      2  C   UNL     1      44.996   4.922  12.210  0.00  0.00    +0.000 A 
ATOM      3  N   UNL     1      45.329   4.083  13.212  0.00  0.00    +0.000 NA
ATOM      4  C   UNL     1      46.429   4.385  13.913  0.00  0.00    +0.000 A 
ATOM      5  C   UNL     1      47.200   5.491  13.661  0.00  0.00    +0.000 A 
ATOM      6  C   UNL     1      46.793   6.312  12.621  0.00  0.00    +0.000 A 
ATOM      7  N   UNL     1      45.678   6.049  11.901  0.00  0.00    +0.000 NA
BRANCH   6   8
ATOM      8  C   UNL     1      47.538   7.527  12.247  0.00  0.00    +0.000 A 
ATOM      9  C   UNL     1      46.965   8.799  12.351  0.00  0.00    +0.000 A 
ATOM     10  N   UNL     1      47.597   9.968  12.057  0.00  0.00    +0.000 NA
ATOM     11  C   UNL     1      48.872   9.870  11.618  0.00  0.00    +0.000 A 
ATOM     12  C   UNL     1      49.526   8.663  11.463  0.00  0.00    +0.000 A 
ATOM     13  F   UNL     1      50.789   8.622  11.021  0.00  0.00    +0.000 F 
ATOM     14  C   UNL     1      48.859   7.487  11.773  0.00  0.00    +0.000 A 
ENDBRANCH   6   8
ENDBRANCH   1   2
BRANCH   1  15
ATOM     15  N   UNL     1      43.773   4.800  10.024  0.00  0.00    +0.000 N 
ATOM     16  H   UNL     1      42.879   5.050   9.607  0.00  0.00    +0.000 HD
BRANCH  15  20
ATOM     17  C   UNL     1      46.354   2.295   7.813  0.00  0.00    +0.000 A 
ATOM     18  C   UNL     1      45.455   1.731   8.718  0.00  0.00    +0.000 A 
ATOM     19  C   UNL     1      44.580   2.550   9.436  0.00  0.00    +0.000 A 
ATOM     20  C   UNL     1      44.558   3.942   9.255  0.00  0.00    +0.000 A 
ATOM     21  C   UNL     1      45.486   4.493   8.360  0.00  0.00    +0.000 A 
ATOM     22  C   UNL     1      46.381   3.682   7.648  0.00  0.00    +0.000 A 
BRANCH  17  24
ATOM     23  N   UNL     1      48.414   2.085   6.540  0.00  0.00    +0.000 N 
ATOM     24  C   UNL     1      47.318   1.453   7.059  0.00  0.00    +0.000 C 
ATOM     25  O   UNL     1      47.162   0.246   6.929  0.00  0.00    +0.000 OA
ATOM     26  H   UNL     1      49.115   1.492   6.111  0.00  0.00    +0.000 HD
ATOM     27  H   UNL     1      48.699   3.007   6.834  0.00  0.00    +0.000 HD
ENDBRANCH  17  24
ENDBRANCH  15  20
ENDBRANCH   1  15
TORSDOF 5
ENDMDL
MODEL 3
REMARK VINA RESULT:    -8.563      2.709      3.823
REMARK INTER + INTRA:         -11.795
REMARK INTER:                 -11.193
REMARK INTRA:                  -0.603
REMARK UNBOUND:                -0.730
REMARK  Name = 
REMARK  5 active torsions:
REMARK  status: ('A' for Active; 'I' for Inactive)
REMARK    1  A    between atoms: C_2  and  C_4
REMARK    2  A    between atoms: C_7  and  N_8
REMARK    3  A    between atoms: N_8  and  C_9
REMARK    4  A    between atoms: C_9  and  C_10
REMARK    5  A    between atoms: C_14  and  C_15
REMARK                            x       y       z     vdW  Elec       q    Type
REMARK                         _______ _______ _______ _____ _____    ______ ____
ROOT
ATOM      1  C   UNL     1      43.953   4.578  11.635  0.00  0.00    +0.000 C 
ENDROOT
BRANCH   1   2
ATOM      2  C   UNL     1      45.104   5.411  12.178  0.00  0.00    +0.000 A 
ATOM      3  N   UNL     1      45.453   6.491  11.450  0.00  0.00    +0.000 NA
ATOM      4  C   UNL     1      46.511   7.192  11.879  0.00  0.00    +0.000 A 
ATOM      5  C   UNL     1      47.234   6.853  12.993  0.00  0.00    +0.000 A 
ATOM      6  C   UNL     1      46.822   5.726  13.687  0.00  0.00    +0.000 A 
ATOM      7  N   UNL     1      45.769   4.983  13.276  0.00  0.00    +0.000 NA
BRANCH   6   8
ATOM      8  C   UNL     1      47.512   5.260  14.902  0.00  0.00    +0.000 A 
ATOM      9  C   UNL     1      48.582   5.970  15.456  0.00  0.00    +0.000 A 
ATOM     10  N   UNL     1      49.249   5.623  16.590  0.00  0.00    +0.000 NA
ATOM     11  C   UNL     1      48.837   4.493  17.209  0.00  0.00    +0.000 A 
ATOM     12  C   UNL     1      47.802   3.709  16.738  0.00  0.00    +0.000 A 
ATOM     13  F   UNL     1      47.437   2.597  17.387  0.00  0.00    +0.000 F 
ATOM     14  C   UNL     1      47.139   4.088  15.580  0.00  0.00    +0.000 A 
ENDBRANCH   6   8
ENDBRANCH   1   2
BRANCH   1  15
ATOM     15  N   UNL     1      43.772   4.676  10.184  0.00  0.00    +0.000 N 
ATOM     16  H   UNL     1      42.795   4.747   9.905  0.00  0.00    +0.000 HD
BRANCH  15  20
ATOM     17  C   UNL     1      46.387   2.458   7.721  0.00  0.00    +0.000 A 
ATOM     18  C   UNL     1      45.597   1.795   8.660  0.00  0.00    +0.000 A 
ATOM     19  C   UNL     1      44.711   2.519   9.463  0.00  0.00    +0.000 A 
ATOM     20  C   UNL     1      44.568   3.909   9.334  0.00  0.00    +0.000 A 
ATOM     21  C   UNL     1      45.388   4.561   8.402  0.00  0.00    +0.000 A 
ATOM     22  C   UNL     1      46.294   3.847   7.605  0.00  0.00    +0.000 A 
BRANCH  17  24
ATOM     23  N   UNL     1      48.466   2.412   6.462  0.00  0.00    +0.000 N 
ATOM     24  C   UNL     1      47.361   1.721   6.876  0.00  0.00    +0.000 C 
ATOM     25  O   UNL     1      47.205   0.542   6.585  0.00  0.00    +0.000 OA
ATOM     26  H   UNL     1      49.172   1.879   5.968  0.00  0.00    +0.000 HD
ATOM     27  H   UNL     1      48.747   3.286   6.881  0.00  0.00    +0.000 HD
ENDBRANCH  17  24
ENDBRANCH  15  20
ENDBRANCH   1  15
TORSDOF 5
ENDMDL
MODEL 4
REMARK VINA RESULT:    -8.066      2.567      4.142
REMARK INTER + INTRA:         -11.154
REMARK INTER:                 -10.786
REMARK INTRA:                  -0.367
REMARK UNBOUND:                -0.730
REMARK  Name = 
REMARK  5 active torsions:
REMARK  status: ('A' for Active; 'I' for Inactive)
REMARK    1  A    between atoms: C_2  and  C_4
REMARK    2  A    between atoms: C_7  and  N_8
REMARK    3  A    between atoms: N_8  and  C_9
REMARK    4  A    between atoms: C_9  and  C_10
REMARK    5  A    between atoms: C_14  and  C_15
REMARK                            x       y       z     vdW  Elec       q    Type
REMARK                         _______ _______ _______ _____ _____    ______ ____
ROOT
ATOM      1  C   UNL     1      44.307   3.374  12.040  0.00  0.00    +0.000 C 
ENDROOT
BRANCH   1   2
ATOM      2  C   UNL     1      45.272   4.374  12.657  0.00  0.00    +0.000 A 
ATOM      3  N   UNL     1      45.452   5.525  11.978  0.00  0.00    +0.000 NA
ATOM      4  C   UNL     1      46.353   6.384  12.474  0.00  0.00    +0.000 A 
ATOM      5  C   UNL     1      47.082   6.136  13.607  0.00  0.00    +0.000 A 
ATOM      6  C   UNL     1      46.850   4.929  14.249  0.00  0.00    +0.000 A 
ATOM      7  N   UNL     1      45.960   4.029  13.770  0.00  0.00    +0.000 NA
BRANCH   6   8
ATOM      8  C   UNL     1      47.565   4.546  15.478  0.00  0.00    +0.000 A 
ATOM      9  C   UNL     1      47.558   3.229  15.950  0.00  0.00    +0.000 A 
ATOM     10  N   UNL     1      48.218   2.791  17.057  0.00  0.00    +0.000 NA
ATOM     11  C   UNL     1      48.920   3.719  17.746  0.00  0.00    +0.000 A 
ATOM     12  C   UNL     1      48.981   5.048  17.377  0.00  0.00    +0.000 A 
ATOM     13  F   UNL     1      49.687   5.927  18.097  0.00  0.00    +0.000 F 
ATOM     14  C   UNL     1      48.299   5.467  16.243  0.00  0.00    +0.000 A 
ENDBRANCH   6   8
ENDBRANCH   1   2
BRANCH   1  15
ATOM     15  N   UNL     1      43.944   3.667  10.651  0.00  0.00    +0.000 N 
ATOM     16  H   UNL     1      42.974   3.448  10.435  0.00  0.00    +0.000 HD
BRANCH  15  20
ATOM     17  C   UNL     1      46.495   2.699   7.429  0.00  0.00    +0.000 A 
ATOM     18  C   UNL     1      46.140   4.029   7.650  0.00  0.00    +0.000 A 
ATOM     19  C   UNL     1      45.316   4.362   8.729  0.00  0.00    +0.000 A 
ATOM     20  C   UNL     1      44.848   3.389   9.626  0.00  0.00    +0.000 A 
ATOM     21  C   UNL     1      45.195   2.055   9.373  0.00  0.00    +0.000 A 
ATOM     22  C   UNL     1      46.006   1.708   8.283  0.00  0.00    +0.000 A 
BRANCH  17  24
ATOM     23  N   UNL     1      47.198   3.043   5.127  0.00  0.00    +0.000 N 
ATOM     24  C   UNL     1      47.343   2.310   6.273  0.00  0.00    +0.000 C 
ATOM     25  O   UNL     1      48.158   1.399   6.344  0.00  0.00    +0.000 OA
ATOM     26  H   UNL     1      47.845   2.836   4.376  0.00  0.00    +0.000 HD
ATOM     27  H   UNL     1      46.732   3.938   5.111  0.00  0.00    +0.000 HD
ENDBRANCH  17  24
ENDBRANCH  15  20
ENDBRANCH   1  15
TORSDOF 5
ENDMDL
MODEL 5
REMARK VINA RESULT:    -7.885      1.880      2.765
REMARK INTER + INTRA:         -10.919
REMARK INTER:                 -10.255
REMARK INTRA:                  -0.664
REMARK UNBOUND:                -0.730
REMARK  Name = 
REMARK  5 active torsions:
REMARK  status: ('A' for Active; 'I' for Inactive)
REMARK    1  A    between atoms: C_2  and  C_4
REMARK    2  A    between atoms: C_7  and  N_8
REMARK    3  A    between atoms: N_8  and  C_9
REMARK    4  A    between atoms: C_9  and  C_10
REMARK    5  A    between atoms: C_14  and  C_15
REMARK                            x       y       z     vdW  Elec       q    Type
REMARK                         _______ _______ _______ _____ _____    ______ ____
ROOT
ATOM      1  C   UNL     1      44.025   3.370  11.644  0.00  0.00    +0.000 C 
ENDROOT
BRANCH   1   2
ATOM      2  C   UNL     1      44.389   4.844  11.746  0.00  0.00    +0.000 A 
ATOM      3  N   UNL     1      43.432   5.721  11.380  0.00  0.00    +0.000 NA
ATOM      4  C   UNL     1      43.765   7.018  11.396  0.00  0.00    +0.000 A 
ATOM      5  C   UNL     1      45.009   7.470  11.752  0.00  0.00    +0.000 A 
ATOM      6  C   UNL     1      45.944   6.511  12.110  0.00  0.00    +0.000 A 
ATOM      7  N   UNL     1      45.651   5.190  12.089  0.00  0.00    +0.000 NA
BRANCH   6   8
ATOM      8  C   UNL     1      47.314   6.867  12.516  0.00  0.00    +0.000 A 
ATOM      9  C   UNL     1      47.857   6.427  13.728  0.00  0.00    +0.000 A 
ATOM     10  N   UNL     1      49.122   6.686  14.159  0.00  0.00    +0.000 NA
ATOM     11  C   UNL     1      49.893   7.441  13.343  0.00  0.00    +0.000 A 
ATOM     12  C   UNL     1      49.451   7.939  12.134  0.00  0.00    +0.000 A 
ATOM     13  F   UNL     1      50.254   8.685  11.366  0.00  0.00    +0.000 F 
ATOM     14  C   UNL     1      48.157   7.658  11.718  0.00  0.00    +0.000 A 
ENDBRANCH   6   8
ENDBRANCH   1   2
BRANCH   1  15
ATOM     15  N   UNL     1      43.684   2.928  10.289  0.00  0.00    +0.000 N 
ATOM     16  H   UNL     1      43.015   2.160  10.274  0.00  0.00    +0.000 HD
BRANCH  15  20
ATOM     17  C   UNL     1      46.552   2.539   7.215  0.00  0.00    +0.000 A 
ATOM     18  C   UNL     1      45.875   3.747   7.377  0.00  0.00    +0.000 A 
ATOM     19  C   UNL     1      44.941   3.893   8.407  0.00  0.00    +0.000 A 
ATOM     20  C   UNL     1      44.678   2.855   9.315  0.00  0.00    +0.000 A 
ATOM     21  C   UNL     1      45.350   1.640   9.121  0.00  0.00    +0.000 A 
ATOM     22  C   UNL     1      46.274   1.477   8.080  0.00  0.00    +0.000 A 
BRANCH  17  24
ATOM     23  N   UNL     1      47.515   3.272   5.107  0.00  0.00    +0.000 N 
ATOM     24  C   UNL     1      47.526   2.343   6.111  0.00  0.00    +0.000 C 
ATOM     25  O   UNL     1      48.323   1.415   6.107  0.00  0.00    +0.000 OA
ATOM     26  H   UNL     1      48.244   3.188   4.408  0.00  0.00    +0.000 HD
ATOM     27  H   UNL     1      47.057   4.166   5.201  0.00  0.00    +0.000 HD
ENDBRANCH  17  24
ENDBRANCH  15  20
ENDBRANCH   1  15
TORSDOF 5
ENDMDL
MODEL 6
REMARK VINA RESULT:    -7.715      2.333      3.206
REMARK INTER + INTRA:         -10.700
REMARK INTER:                 -10.142
REMARK INTRA:                  -0.558
REMARK UNBOUND:                -0.730
REMARK  Name = 
REMARK  5 active torsions:
REMARK  status: ('A' for Active; 'I' for Inactive)
REMARK    1  A    between atoms: C_2  and  C_4
REMARK    2  A    between atoms: C_7  and  N_8
REMARK    3  A    between atoms: N_8  and  C_9
REMARK    4  A    between atoms: C_9  and  C_10
REMARK    5  A    between atoms: C_14  and  C_15
REMARK                            x       y       z     vdW  Elec       q    Type
REMARK                         _______ _______ _______ _____ _____    ______ ____
ROOT
ATOM      1  C   UNL     1      44.145   4.875  11.508  0.00  0.00    +0.000 C 
ENDROOT
BRANCH   1   2
ATOM      2  C   UNL     1      44.842   6.170  11.897  0.00  0.00    +0.000 A 
ATOM      3  N   UNL     1      44.312   7.305  11.397  0.00  0.00    +0.000 NA
ATOM      4  C   UNL     1      44.958   8.446  11.673  0.00  0.00    +0.000 A 
ATOM      5  C   UNL     1      46.110   8.496  12.414  0.00  0.00    +0.000 A 
ATOM      6  C   UNL     1      46.601   7.289  12.889  0.00  0.00    +0.000 A 
ATOM      7  N   UNL     1      45.986   6.115  12.617  0.00  0.00    +0.000 NA
BRANCH   6   8
ATOM      8  C   UNL     1      47.827   7.209  13.701  0.00  0.00    +0.000 A 
ATOM      9  C   UNL     1      48.978   7.930  13.365  0.00  0.00    +0.000 A 
ATOM     10  N   UNL     1      50.136   7.933  14.080  0.00  0.00    +0.000 NA
ATOM     11  C   UNL     1      50.160   7.164  15.192  0.00  0.00    +0.000 A 
ATOM     12  C   UNL     1      49.085   6.401  15.605  0.00  0.00    +0.000 A 
ATOM     13  F   UNL     1      49.163   5.653  16.712  0.00  0.00    +0.000 F 
ATOM     14  C   UNL     1      47.916   6.418  14.858  0.00  0.00    +0.000 A 
ENDBRANCH   6   8
ENDBRANCH   1   2
BRANCH   1  15
ATOM     15  N   UNL     1      43.840   4.762  10.080  0.00  0.00    +0.000 N 
ATOM     16  H   UNL     1      42.841   4.748   9.882  0.00  0.00    +0.000 HD
BRANCH  15  20
ATOM     17  C   UNL     1      46.367   2.309   7.750  0.00  0.00    +0.000 A 
ATOM     18  C   UNL     1      45.517   1.727   8.690  0.00  0.00    +0.000 A 
ATOM     19  C   UNL     1      44.659   2.529   9.449  0.00  0.00    +0.000 A 
ATOM     20  C   UNL     1      44.606   3.921   9.274  0.00  0.00    +0.000 A 
ATOM     21  C   UNL     1      45.485   4.490   8.342  0.00  0.00    +0.000 A 
ATOM     22  C   UNL     1      46.363   3.697   7.590  0.00  0.00    +0.000 A 
BRANCH  17  24
ATOM     23  N   UNL     1      48.459   2.101   6.531  0.00  0.00    +0.000 N 
ATOM     24  C   UNL     1      47.312   1.487   6.952  0.00  0.00    +0.000 C 
ATOM     25  O   UNL     1      47.097   0.308   6.706  0.00  0.00    +0.000 OA
ATOM     26  H   UNL     1      49.143   1.511   6.071  0.00  0.00    +0.000 HD
ATOM     27  H   UNL     1      48.781   2.975   6.919  0.00  0.00    +0.000 HD
ENDBRANCH  17  24
ENDBRANCH  15  20
ENDBRANCH   1  15
TORSDOF 5
ENDMDL
MODEL 7
REMARK VINA RESULT:    -7.641      3.530      7.127
REMARK INTER + INTRA:         -10.604
REMARK INTER:                 -10.099
REMARK INTRA:                  -0.505
REMARK UNBOUND:                -0.730
REMARK  Name = 
REMARK  5 active torsions:
REMARK  status: ('A' for Active; 'I' for Inactive)
REMARK    1  A    between atoms: C_2  and  C_4
REMARK    2  A    between atoms: C_7  and  N_8
REMARK    3  A    between atoms: N_8  and  C_9
REMARK    4  A    between atoms: C_9  and  C_10
REMARK    5  A    between atoms: C_14  and  C_15
REMARK                            x       y       z     vdW  Elec       q    Type
REMARK                         _______ _______ _______ _____ _____    ______ ____
ROOT
ATOM      1  C   UNL     1      43.320   6.522  11.325  0.00  0.00    +0.000 C 
ENDROOT
BRANCH   1   2
ATOM      2  C   UNL     1      43.556   5.045  11.047  0.00  0.00    +0.000 A 
ATOM      3  N   UNL     1      43.024   4.180  11.934  0.00  0.00    +0.000 NA
ATOM      4  C   UNL     1      43.285   2.880  11.740  0.00  0.00    +0.000 A 
ATOM      5  C   UNL     1      44.059   2.416  10.709  0.00  0.00    +0.000 A 
ATOM      6  C   UNL     1      44.579   3.364   9.841  0.00  0.00    +0.000 A 
ATOM      7  N   UNL     1      44.351   4.686  10.013  0.00  0.00    +0.000 NA
BRANCH   6   8
ATOM      8  C   UNL     1      45.421   2.993   8.691  0.00  0.00    +0.000 A 
ATOM      9  C   UNL     1      45.802   3.933   7.728  0.00  0.00    +0.000 A 
ATOM     10  N   UNL     1      46.602   3.677   6.657  0.00  0.00    +0.000 NA
ATOM     11  C   UNL     1      47.043   2.405   6.525  0.00  0.00    +0.000 A 
ATOM     12  C   UNL     1      46.714   1.397   7.410  0.00  0.00    +0.000 A 
ATOM     13  F   UNL     1      47.174   0.153   7.231  0.00  0.00    +0.000 F 
ATOM     14  C   UNL     1      45.898   1.687   8.494  0.00  0.00    +0.000 A 
ENDBRANCH   6   8
ENDBRANCH   1   2
BRANCH   1  15
ATOM     15  N   UNL     1      44.459   7.385  11.000  0.00  0.00    +0.000 N 
ATOM     16  H   UNL     1      44.698   7.378  10.010  0.00  0.00    +0.000 HD
BRANCH  15  20
ATOM     17  C   UNL     1      47.910   7.631  13.420  0.00  0.00    +0.000 A 
ATOM     18  C   UNL     1      46.855   8.519  13.631  0.00  0.00    +0.000 A 
ATOM     19  C   UNL     1      45.699   8.429  12.851  0.00  0.00    +0.000 A 
ATOM     20  C   UNL     1      45.551   7.442  11.864  0.00  0.00    +0.000 A 
ATOM     21  C   UNL     1      46.632   6.575  11.649  0.00  0.00    +0.000 A 
ATOM     22  C   UNL     1      47.804   6.669  12.413  0.00  0.00    +0.000 A 
BRANCH  17  24
ATOM     23  N   UNL     1      49.737   8.959  14.319  0.00  0.00    +0.000 N 
ATOM     24  C   UNL     1      49.164   7.722  14.210  0.00  0.00    +0.000 C 
ATOM     25  O   UNL     1      49.651   6.747  14.767  0.00  0.00    +0.000 OA
ATOM     26  H   UNL     1      50.536   9.033  14.937  0.00  0.00    +0.000 HD
ATOM     27  H   UNL     1      49.241   9.808  14.092  0.00  0.00    +0.000 HD
ENDBRANCH  17  24
ENDBRANCH  15  20
ENDBRANCH   1  15
TORSDOF 5
ENDMDL
MODEL 8
REMARK VINA RESULT:    -7.430      3.724      7.454
REMARK INTER + INTRA:         -10.331
REMARK INTER:                 -10.002
REMARK INTRA:                  -0.329
REMARK UNBOUND:                -0.730
REMARK  Name = 
REMARK  5 active torsions:
REMARK  status: ('A' for Active; 'I' for Inactive)
REMARK    1  A    between atoms: C_2  and  C_4
REMARK    2  A    between atoms: C_7  and  N_8
REMARK    3  A    between atoms: N_8  and  C_9
REMARK    4  A    between atoms: C_9  and  C_10
REMARK    5  A    between atoms: C_14  and  C_15
REMARK                            x       y       z     vdW  Elec       q    Type
REMARK                         _______ _______ _______ _____ _____    ______ ____
ROOT
ATOM      1  C   UNL     1      45.938   7.242  11.771  0.00  0.00    +0.000 C 
ENDROOT
BRANCH   1   2
ATOM      2  C   UNL     1      45.126   6.152  11.089  0.00  0.00    +0.000 A 
ATOM      3  N   UNL     1      43.845   6.024  11.491  0.00  0.00    +0.000 NA
ATOM      4  C   UNL     1      43.140   5.022  10.949  0.00  0.00    +0.000 A 
ATOM      5  C   UNL     1      43.663   4.144  10.036  0.00  0.00    +0.000 A 
ATOM      6  C   UNL     1      44.988   4.332   9.675  0.00  0.00    +0.000 A 
ATOM      7  N   UNL     1      45.737   5.323  10.213  0.00  0.00    +0.000 NA
BRANCH   6   8
ATOM      8  C   UNL     1      45.666   3.460   8.700  0.00  0.00    +0.000 A 
ATOM      9  C   UNL     1      46.377   3.985   7.616  0.00  0.00    +0.000 A 
ATOM     10  N   UNL     1      47.054   3.249   6.694  0.00  0.00    +0.000 NA
ATOM     11  C   UNL     1      47.013   1.906   6.848  0.00  0.00    +0.000 A 
ATOM     12  C   UNL     1      46.328   1.284   7.873  0.00  0.00    +0.000 A 
ATOM     13  F   UNL     1      46.317  -0.051   7.977  0.00  0.00    +0.000 F 
ATOM     14  C   UNL     1      45.648   2.059   8.801  0.00  0.00    +0.000 A 
ENDBRANCH   6   8
ENDBRANCH   1   2
BRANCH   1  15
ATOM     15  N   UNL     1      47.235   6.793  12.284  0.00  0.00    +0.000 N 
ATOM     16  H   UNL     1      47.876   6.496  11.551  0.00  0.00    +0.000 HD
BRANCH  15  20
ATOM     17  C   UNL     1      47.544   4.321  15.693  0.00  0.00    +0.000 A 
ATOM     18  C   UNL     1      48.161   5.572  15.690  0.00  0.00    +0.000 A 
ATOM     19  C   UNL     1      48.044   6.407  14.576  0.00  0.00    +0.000 A 
ATOM     20  C   UNL     1      47.291   6.033  13.451  0.00  0.00    +0.000 A 
ATOM     21  C   UNL     1      46.699   4.763  13.462  0.00  0.00    +0.000 A 
ATOM     22  C   UNL     1      46.826   3.909  14.567  0.00  0.00    +0.000 A 
BRANCH  17  24
ATOM     23  N   UNL     1      48.948   3.073  17.236  0.00  0.00    +0.000 N 
ATOM     24  C   UNL     1      47.677   3.399  16.849  0.00  0.00    +0.000 C 
ATOM     25  O   UNL     1      46.703   2.970  17.452  0.00  0.00    +0.000 OA
ATOM     26  H   UNL     1      49.035   2.522  18.081  0.00  0.00    +0.000 HD
ATOM     27  H   UNL     1      49.758   3.593  16.930  0.00  0.00    +0.000 HD
ENDBRANCH  17  24
ENDBRANCH  15  20
ENDBRANCH   1  15
TORSDOF 5
ENDMDL
MODEL 9
REMARK VINA RESULT:    -7.212      4.402      8.048
REMARK INTER + INTRA:         -10.050
REMARK INTER:                  -9.649
REMARK INTRA:                  -0.402
REMARK UNBOUND:                -0.730
REMARK  Name = 
REMARK  5 active torsions:
REMARK  status: ('A' for Active; 'I' for Inactive)
REMARK    1  A    between atoms: C_2  and  C_4
REMARK    2  A    between atoms: C_7  and  N_8
REMARK    3  A    between atoms: N_8  and  C_9
REMARK    4  A    between atoms: C_9  and  C_10
REMARK    5  A    between atoms: C_14  and  C_15
REMARK                            x       y       z     vdW  Elec       q    Type
REMARK                         _______ _______ _______ _____ _____    ______ ____
ROOT
ATOM      1  C   UNL     1      46.294   5.393  14.086  0.00  0.00    +0.000 C 
ENDROOT
BRANCH   1   2
ATOM      2  C   UNL     1      45.270   5.105  12.999  0.00  0.00    +0.000 A 
ATOM      3  N   UNL     1      43.980   5.332  13.320  0.00  0.00    +0.000 NA
ATOM      4  C   UNL     1      43.064   5.015  12.396  0.00  0.00    +0.000 A 
ATOM      5  C   UNL     1      43.382   4.474  11.178  0.00  0.00    +0.000 A 
ATOM      6  C   UNL     1      44.728   4.261  10.920  0.00  0.00    +0.000 A 
ATOM      7  N   UNL     1      45.681   4.554  11.834  0.00  0.00    +0.000 NA
BRANCH   6   8
ATOM      8  C   UNL     1      45.200   3.690   9.647  0.00  0.00    +0.000 A 
ATOM      9  C   UNL     1      45.525   4.503   8.555  0.00  0.00    +0.000 A 
ATOM     10  N   UNL     1      45.997   4.055   7.360  0.00  0.00    +0.000 NA
ATOM     11  C   UNL     1      46.143   2.716   7.233  0.00  0.00    +0.000 A 
ATOM     12  C   UNL     1      45.837   1.825   8.242  0.00  0.00    +0.000 A 
ATOM     13  F   UNL     1      45.997   0.508   8.063  0.00  0.00    +0.000 F 
ATOM     14  C   UNL     1      45.360   2.309   9.452  0.00  0.00    +0.000 A 
ENDBRANCH   6   8
ENDBRANCH   1   2
BRANCH   1  15
ATOM     15  N   UNL     1      46.316   4.406  15.169  0.00  0.00    +0.000 N 
ATOM     16  H   UNL     1      45.424   4.318  15.651  0.00  0.00    +0.000 HD
BRANCH  15  20
ATOM     17  C   UNL     1      49.832   3.997  17.470  0.00  0.00    +0.000 A 
ATOM     18  C   UNL     1      49.390   5.269  17.107  0.00  0.00    +0.000 A 
ATOM     19  C   UNL     1      48.214   5.415  16.366  0.00  0.00    +0.000 A 
ATOM     20  C   UNL     1      47.437   4.308  15.992  0.00  0.00    +0.000 A 
ATOM     21  C   UNL     1      47.910   3.036  16.345  0.00  0.00    +0.000 A 
ATOM     22  C   UNL     1      49.098   2.877  17.071  0.00  0.00    +0.000 A 
BRANCH  17  24
ATOM     23  N   UNL     1      51.132   4.312  19.500  0.00  0.00    +0.000 N 
ATOM     24  C   UNL     1      51.094   3.807  18.230  0.00  0.00    +0.000 C 
ATOM     25  O   UNL     1      52.049   3.202  17.760  0.00  0.00    +0.000 OA
ATOM     26  H   UNL     1      51.958   4.097  20.046  0.00  0.00    +0.000 HD
ATOM     27  H   UNL     1      50.299   4.588  19.999  0.00  0.00    +0.000 HD
ENDBRANCH  17  24
ENDBRANCH  15  20
ENDBRANCH   1  15
TORSDOF 5
ENDMDL
