MODEL 1
REMARK VINA RESULT:    -7.073      0.000      0.000
REMARK INTER + INTRA:         -11.068
REMARK INTER:                  -9.761
REMARK INTRA:                  -1.308
REMARK UNBOUND:                -1.308
REMARK  Name = 
REMARK  12 active torsions:
REMARK  status: ('A' for Active; 'I' for Inactive)
REMARK    1  A    between atoms: C_1  and  C_2
REMARK    2  A    between atoms: C_9  and  C_10
REMARK    3  A    between atoms: C_10  and  C_11
REMARK    4  A    between atoms: C_10  and  C_12
REMARK    5  A    between atoms: C_10  and  C_13
REMARK    6  A    between atoms: C_13  and  N_14
REMARK    7  A    between atoms: N_14  and  C_15
REMARK    8  A    between atoms: C_18  and  C_19
REMARK    9  A    between atoms: C_19  and  C_20
REMARK   10  A    between atoms: C_19  and  O_21
REMARK   11  A    between atoms: C_19  and  C_22
REMARK   12  A    between atoms: C_30  and  C_31
REMARK                            x       y       z     vdW  Elec       q    Type
REMARK                         _______ _______ _______ _____ _____    ______ ____
ROOT
ATOM      1  C   UNL     1      49.789   8.515  13.736  0.00  0.00    +0.000 C 
ATOM      2  C   UNL     1      49.063   9.615  12.934  0.00  0.00    +0.000 C 
ATOM      3  C   UNL     1      51.316   8.664  13.594  0.00  0.00    +0.000 C 
ENDROOT
BRANCH   1  12
ATOM      4  C   UNL     1      46.868   5.562  19.077  0.00  0.00    +0.000 C 
ATOM      5  C   UNL     1      48.256   5.342  19.674  0.00  0.00    +0.000 C 
ATOM      6  C   UNL     1      49.189   6.563  19.522  0.00  0.00    +0.000 C 
ATOM      7  N   UNL     1      49.708   6.662  18.160  0.00  0.00    +0.000 N 
ATOM      8  C   UNL     1      49.338   7.691  17.337  0.00  0.00    +0.000 A 
ATOM      9  N   UNL     1      48.638   8.720  17.842  0.00  0.00    +0.000 NA
ATOM     10  C   UNL     1      48.320   9.721  17.007  0.00  0.00    +0.000 A 
ATOM     11  C   UNL     1      48.663   9.743  15.674  0.00  0.00    +0.000 A 
ATOM     12  C   UNL     1      49.382   8.655  15.215  0.00  0.00    +0.000 A 
ATOM     13  N   UNL     1      49.710   7.649  16.046  0.00  0.00    +0.000 NA
ATOM     14  C   UNL     1      50.270   5.430  17.604  0.00  0.00    +0.000 C 
ATOM     15  C   UNL     1      49.282   4.260  17.792  0.00  0.00    +0.000 C 
ATOM     16  C   UNL     1      49.941   2.944  17.396  0.00  0.00    +0.000 C 
ATOM     17  O   UNL     1      48.861   4.135  19.163  0.00  0.00    +0.000 OA
ENDBRANCH   1  12
BRANCH   1  18
ATOM     18  C   UNL     1      49.340   7.116  13.211  0.00  0.00    +0.000 C 
BRANCH  18  19
ATOM     19  N   UNL     1      48.125   6.585  13.866  0.00  0.00    +0.000 N 
ATOM     20  H   UNL     1      47.671   7.268  14.467  0.00  0.00    +0.000 HD
BRANCH  19  21
ATOM     21  C   UNL     1      47.177   5.992  13.006  0.00  0.00    +0.000 A 
ATOM     22  C   UNL     1      46.748   6.679  11.870  0.00  0.00    +0.000 A 
ATOM     23  C   UNL     1      45.792   6.118  11.015  0.00  0.00    +0.000 A 
ATOM     24  C   UNL     1      45.247   4.874  11.327  0.00  0.00    +0.000 A 
ATOM     25  N   UNL     1      45.602   4.205  12.455  0.00  0.00    +0.000 NA
ATOM     26  C   UNL     1      46.516   4.791  13.268  0.00  0.00    +0.000 A 
BRANCH  24  27
ATOM     27  C   UNL     1      44.260   4.148  10.416  0.00  0.00    +0.000 C 
ATOM     28  C   UNL     1      43.366   3.219  11.251  0.00  0.00    +0.000 C 
BRANCH  27  29
ATOM     29  C   UNL     1      44.975   3.367   9.277  0.00  0.00    +0.000 C 
ATOM     30  F   UNL     1      45.575   2.230   9.705  0.00  0.00    +0.000 F 
ATOM     31  F   UNL     1      44.102   2.986   8.308  0.00  0.00    +0.000 F 
ATOM     32  F   UNL     1      45.934   4.102   8.666  0.00  0.00    +0.000 F 
ENDBRANCH  27  29
BRANCH  27  33
ATOM     33  O   UNL     1      43.321   5.131   9.885  0.00  0.00    +0.000 OA
ATOM     34  H   UNL     1      42.620   4.599   9.448  0.00  0.00    +0.000 HD
ENDBRANCH  27  33
ENDBRANCH  24  27
ENDBRANCH  19  21
ENDBRANCH  18  19
ENDBRANCH   1  18
TORSDOF 7
ENDMDL
MODEL 2
REMARK VINA RESULT:    -6.708      2.223      4.578
REMARK INTER + INTRA:         -10.564
REMARK INTER:                  -9.366
REMARK INTRA:                  -1.199
REMARK UNBOUND:                -1.308
REMARK  Name = 
REMARK  12 active torsions:
REMARK  status: ('A' for Active; 'I' for Inactive)
REMARK    1  A    between atoms: C_1  and  C_2
REMARK    2  A    between atoms: C_9  and  C_10
REMARK    3  A    between atoms: C_10  and  C_11
REMARK    4  A    between atoms: C_10  and  C_12
REMARK    5  A    between atoms: C_10  and  C_13
REMARK    6  A    between atoms: C_13  and  N_14
REMARK    7  A    between atoms: N_14  and  C_15
REMARK    8  A    between atoms: C_18  and  C_19
REMARK    9  A    between atoms: C_19  and  C_20
REMARK   10  A    between atoms: C_19  and  O_21
REMARK   11  A    between atoms: C_19  and  C_22
REMARK   12  A    between atoms: C_30  and  C_31
REMARK                            x       y       z     vdW  Elec       q    Type
REMARK                         _______ _______ _______ _____ _____    ______ ____
ROOT
ATOM      1  C   UNL     1      48.151   4.426  16.902  0.00  0.00    +0.000 C 
ATOM      2  C   UNL     1      48.788   3.173  17.538  0.00  0.00    +0.000 C 
ATOM      3  C   UNL     1      47.077   5.015  17.835  0.00  0.00    +0.000 C 
ENDROOT
BRANCH   1  12
ATOM      4  C   UNL     1      51.172   8.526  12.448  0.00  0.00    +0.000 C 
ATOM      5  C   UNL     1      50.474   9.711  13.113  0.00  0.00    +0.000 C 
ATOM      6  C   UNL     1      50.481   9.638  14.655  0.00  0.00    +0.000 C 
ATOM      7  N   UNL     1      49.489   8.683  15.142  0.00  0.00    +0.000 N 
ATOM      8  C   UNL     1      49.869   7.522  15.758  0.00  0.00    +0.000 A 
ATOM      9  N   UNL     1      51.160   7.342  16.085  0.00  0.00    +0.000 NA
ATOM     10  C   UNL     1      51.486   6.201  16.713  0.00  0.00    +0.000 A 
ATOM     11  C   UNL     1      50.578   5.215  17.027  0.00  0.00    +0.000 A 
ATOM     12  C   UNL     1      49.267   5.460  16.664  0.00  0.00    +0.000 A 
ATOM     13  N   UNL     1      48.930   6.603  16.039  0.00  0.00    +0.000 NA
ATOM     14  C   UNL     1      48.147   8.818  14.574  0.00  0.00    +0.000 C 
ATOM     15  C   UNL     1      48.221   8.881  13.034  0.00  0.00    +0.000 C 
ATOM     16  C   UNL     1      46.854   9.219  12.452  0.00  0.00    +0.000 C 
ATOM     17  O   UNL     1      49.142   9.895  12.589  0.00  0.00    +0.000 OA
ENDBRANCH   1  12
BRANCH   1  18
ATOM     18  C   UNL     1      47.511   4.038  15.533  0.00  0.00    +0.000 C 
BRANCH  18  19
ATOM     19  N   UNL     1      46.784   5.142  14.870  0.00  0.00    +0.000 N 
ATOM     20  H   UNL     1      47.323   6.003  14.834  0.00  0.00    +0.000 HD
BRANCH  19  21
ATOM     21  C   UNL     1      46.256   4.848  13.596  0.00  0.00    +0.000 A 
ATOM     22  C   UNL     1      45.871   5.888  12.748  0.00  0.00    +0.000 A 
ATOM     23  C   UNL     1      45.324   5.617  11.489  0.00  0.00    +0.000 A 
ATOM     24  C   UNL     1      45.139   4.292  11.098  0.00  0.00    +0.000 A 
ATOM     25  N   UNL     1      45.451   3.258  11.922  0.00  0.00    +0.000 NA
ATOM     26  C   UNL     1      45.959   3.562  13.143  0.00  0.00    +0.000 A 
BRANCH  24  27
ATOM     27  C   UNL     1      44.626   3.898   9.715  0.00  0.00    +0.000 C 
ATOM     28  C   UNL     1      44.135   2.443   9.735  0.00  0.00    +0.000 C 
BRANCH  27  29
ATOM     29  C   UNL     1      45.694   4.116   8.606  0.00  0.00    +0.000 C 
ATOM     30  F   UNL     1      46.624   3.132   8.561  0.00  0.00    +0.000 F 
ATOM     31  F   UNL     1      45.131   4.156   7.371  0.00  0.00    +0.000 F 
ATOM     32  F   UNL     1      46.372   5.279   8.760  0.00  0.00    +0.000 F 
ENDBRANCH  27  29
BRANCH  27  33
ATOM     33  O   UNL     1      43.410   4.660   9.445  0.00  0.00    +0.000 OA
ATOM     34  H   UNL     1      43.540   5.514   9.913  0.00  0.00    +0.000 HD
ENDBRANCH  27  33
ENDBRANCH  24  27
ENDBRANCH  19  21
ENDBRANCH  18  19
ENDBRANCH   1  18
TORSDOF 7
ENDMDL
MODEL 3
REMARK VINA RESULT:    -6.607      1.653      2.163
REMARK INTER + INTRA:         -10.425
REMARK INTER:                 -10.033
REMARK INTRA:                  -0.392
REMARK UNBOUND:                -1.308
REMARK  Name = 
REMARK  12 active torsions:
REMARK  status: ('A' for Active; 'I' for Inactive)
REMARK    1  A    between atoms: C_1  and  C_2
REMARK    2  A    between atoms: C_9  and  C_10
REMARK    3  A    between atoms: C_10  and  C_11
REMARK    4  A    between atoms: C_10  and  C_12
REMARK    5  A    between atoms: C_10  and  C_13
REMARK    6  A    between atoms: C_13  and  N_14
REMARK    7  A    between atoms: N_14  and  C_15
REMARK    8  A    between atoms: C_18  and  C_19
REMARK    9  A    between atoms: C_19  and  C_20
REMARK   10  A    between atoms: C_19  and  O_21
REMARK   11  A    between atoms: C_19  and  C_22
REMARK   12  A    between atoms: C_30  and  C_31
REMARK                            x       y       z     vdW  Elec       q    Type
REMARK                         _______ _______ _______ _____ _____    ______ ____
ROOT
ATOM      1  C   UNL     1      47.846   7.425  13.340  0.00  0.00    +0.000 C 
ATOM      2  C   UNL     1      47.232   8.643  12.618  0.00  0.00    +0.000 C 
ATOM      3  C   UNL     1      48.999   6.832  12.507  0.00  0.00    +0.000 C 
ENDROOT
BRANCH   1  12
ATOM      4  C   UNL     1      47.589   6.622  20.052  0.00  0.00    +0.000 C 
ATOM      5  C   UNL     1      48.940   5.912  19.987  0.00  0.00    +0.000 C 
ATOM      6  C   UNL     1      49.949   6.601  19.045  0.00  0.00    +0.000 C 
ATOM      7  N   UNL     1      49.644   6.313  17.645  0.00  0.00    +0.000 N 
ATOM      8  C   UNL     1      49.210   7.296  16.800  0.00  0.00    +0.000 A 
ATOM      9  N   UNL     1      49.238   8.576  17.207  0.00  0.00    +0.000 NA
ATOM     10  C   UNL     1      48.828   9.512  16.338  0.00  0.00    +0.000 A 
ATOM     11  C   UNL     1      48.378   9.231  15.068  0.00  0.00    +0.000 A 
ATOM     12  C   UNL     1      48.373   7.896  14.708  0.00  0.00    +0.000 A 
ATOM     13  N   UNL     1      48.786   6.951  15.572  0.00  0.00    +0.000 NA
ATOM     14  C   UNL     1      49.420   4.903  17.323  0.00  0.00    +0.000 C 
ATOM     15  C   UNL     1      48.402   4.285  18.304  0.00  0.00    +0.000 C 
ATOM     16  C   UNL     1      48.316   2.778  18.097  0.00  0.00    +0.000 C 
ATOM     17  O   UNL     1      48.781   4.512  19.675  0.00  0.00    +0.000 OA
ENDBRANCH   1  12
BRANCH   1  18
ATOM     18  C   UNL     1      46.740   6.347  13.560  0.00  0.00    +0.000 C 
BRANCH  18  19
ATOM     19  N   UNL     1      45.561   6.501  12.681  0.00  0.00    +0.000 N 
ATOM     20  H   UNL     1      45.413   7.463  12.385  0.00  0.00    +0.000 HD
BRANCH  19  21
ATOM     21  C   UNL     1      45.512   5.639  11.566  0.00  0.00    +0.000 A 
ATOM     22  C   UNL     1      45.904   6.106  10.311  0.00  0.00    +0.000 A 
ATOM     23  C   UNL     1      45.843   5.274   9.188  0.00  0.00    +0.000 A 
ATOM     24  C   UNL     1      45.355   3.975   9.329  0.00  0.00    +0.000 A 
ATOM     25  N   UNL     1      44.914   3.509  10.526  0.00  0.00    +0.000 NA
ATOM     26  C   UNL     1      44.970   4.353  11.586  0.00  0.00    +0.000 A 
BRANCH  24  27
ATOM     27  C   UNL     1      45.327   2.970   8.180  0.00  0.00    +0.000 C 
ATOM     28  C   UNL     1      45.183   1.546   8.737  0.00  0.00    +0.000 C 
BRANCH  27  29
ATOM     29  C   UNL     1      46.575   3.091   7.260  0.00  0.00    +0.000 C 
ATOM     30  F   UNL     1      47.220   4.275   7.389  0.00  0.00    +0.000 F 
ATOM     31  F   UNL     1      47.495   2.131   7.538  0.00  0.00    +0.000 F 
ATOM     32  F   UNL     1      46.266   2.962   5.947  0.00  0.00    +0.000 F 
ENDBRANCH  27  29
BRANCH  27  33
ATOM     33  O   UNL     1      44.089   3.166   7.433  0.00  0.00    +0.000 OA
ATOM     34  H   UNL     1      43.611   2.311   7.510  0.00  0.00    +0.000 HD
ENDBRANCH  27  33
ENDBRANCH  24  27
ENDBRANCH  19  21
ENDBRANCH  18  19
ENDBRANCH   1  18
TORSDOF 7
ENDMDL
MODEL 4
REMARK VINA RESULT:    -6.602      1.376      2.115
REMARK INTER + INTRA:         -10.418
REMARK INTER:                  -9.176
REMARK INTRA:                  -1.242
REMARK UNBOUND:                -1.308
REMARK  Name = 
REMARK  12 active torsions:
REMARK  status: ('A' for Active; 'I' for Inactive)
REMARK    1  A    between atoms: C_1  and  C_2
REMARK    2  A    between atoms: C_9  and  C_10
REMARK    3  A    between atoms: C_10  and  C_11
REMARK    4  A    between atoms: C_10  and  C_12
REMARK    5  A    between atoms: C_10  and  C_13
REMARK    6  A    between atoms: C_13  and  N_14
REMARK    7  A    between atoms: N_14  and  C_15
REMARK    8  A    between atoms: C_18  and  C_19
REMARK    9  A    between atoms: C_19  and  C_20
REMARK   10  A    between atoms: C_19  and  O_21
REMARK   11  A    between atoms: C_19  and  C_22
REMARK   12  A    between atoms: C_30  and  C_31
REMARK                            x       y       z     vdW  Elec       q    Type
REMARK                         _______ _______ _______ _____ _____    ______ ____
ROOT
ATOM      1  C   UNL     1      50.183   8.481  13.447  0.00  0.00    +0.000 C 
ATOM      2  C   UNL     1      49.185   9.441  14.126  0.00  0.00    +0.000 C 
ATOM      3  C   UNL     1      51.033   9.236  12.408  0.00  0.00    +0.000 C 
ENDROOT
BRANCH   1  12
ATOM      4  C   UNL     1      50.841   6.937  20.001  0.00  0.00    +0.000 C 
ATOM      5  C   UNL     1      50.624   5.468  19.644  0.00  0.00    +0.000 C 
ATOM      6  C   UNL     1      51.384   5.028  18.375  0.00  0.00    +0.000 C 
ATOM      7  N   UNL     1      50.710   5.499  17.167  0.00  0.00    +0.000 N 
ATOM      8  C   UNL     1      51.281   6.448  16.364  0.00  0.00    +0.000 A 
ATOM      9  N   UNL     1      52.554   6.818  16.583  0.00  0.00    +0.000 NA
ATOM     10  C   UNL     1      53.084   7.731  15.755  0.00  0.00    +0.000 A 
ATOM     11  C   UNL     1      52.397   8.308  14.711  0.00  0.00    +0.000 A 
ATOM     12  C   UNL     1      51.092   7.886  14.539  0.00  0.00    +0.000 A 
ATOM     13  N   UNL     1      50.553   6.967  15.361  0.00  0.00    +0.000 NA
ATOM     14  C   UNL     1      49.271   5.238  17.102  0.00  0.00    +0.000 C 
ATOM     15  C   UNL     1      48.583   5.705  18.401  0.00  0.00    +0.000 C 
ATOM     16  C   UNL     1      47.126   5.257  18.418  0.00  0.00    +0.000 C 
ATOM     17  O   UNL     1      49.219   5.150  19.568  0.00  0.00    +0.000 OA
ENDBRANCH   1  12
BRANCH   1  18
ATOM     18  C   UNL     1      49.395   7.328  12.752  0.00  0.00    +0.000 C 
BRANCH  18  19
ATOM     19  N   UNL     1      48.276   6.788  13.555  0.00  0.00    +0.000 N 
ATOM     20  H   UNL     1      47.906   7.464  14.219  0.00  0.00    +0.000 HD
BRANCH  19  21
ATOM     21  C   UNL     1      47.224   6.203  12.822  0.00  0.00    +0.000 A 
ATOM     22  C   UNL     1      46.628   6.912  11.779  0.00  0.00    +0.000 A 
ATOM     23  C   UNL     1      45.567   6.357  11.053  0.00  0.00    +0.000 A 
ATOM     24  C   UNL     1      45.088   5.096  11.404  0.00  0.00    +0.000 A 
ATOM     25  N   UNL     1      45.610   4.404  12.450  0.00  0.00    +0.000 NA
ATOM     26  C   UNL     1      46.623   4.984  13.142  0.00  0.00    +0.000 A 
BRANCH  24  27
ATOM     27  C   UNL     1      43.991   4.378  10.621  0.00  0.00    +0.000 C 
ATOM     28  C   UNL     1      43.289   3.356  11.528  0.00  0.00    +0.000 C 
BRANCH  27  29
ATOM     29  C   UNL     1      44.534   3.705   9.329  0.00  0.00    +0.000 C 
ATOM     30  F   UNL     1      44.203   2.394   9.231  0.00  0.00    +0.000 F 
ATOM     31  F   UNL     1      44.040   4.299   8.212  0.00  0.00    +0.000 F 
ATOM     32  F   UNL     1      45.884   3.769   9.238  0.00  0.00    +0.000 F 
ENDBRANCH  27  29
BRANCH  27  33
ATOM     33  O   UNL     1      42.938   5.342  10.323  0.00  0.00    +0.000 OA
ATOM     34  H   UNL     1      43.342   6.219  10.504  0.00  0.00    +0.000 HD
ENDBRANCH  27  33
ENDBRANCH  24  27
ENDBRANCH  19  21
ENDBRANCH  18  19
ENDBRANCH   1  18
TORSDOF 7
ENDMDL
MODEL 5
REMARK VINA RESULT:    -6.536      1.332      1.527
REMARK INTER + INTRA:         -10.328
REMARK INTER:                  -9.124
REMARK INTRA:                  -1.204
REMARK UNBOUND:                -1.308
REMARK  Name = 
REMARK  12 active torsions:
REMARK  status: ('A' for Active; 'I' for Inactive)
REMARK    1  A    between atoms: C_1  and  C_2
REMARK    2  A    between atoms: C_9  and  C_10
REMARK    3  A    between atoms: C_10  and  C_11
REMARK    4  A    between atoms: C_10  and  C_12
REMARK    5  A    between atoms: C_10  and  C_13
REMARK    6  A    between atoms: C_13  and  N_14
REMARK    7  A    between atoms: N_14  and  C_15
REMARK    8  A    between atoms: C_18  and  C_19
REMARK    9  A    between atoms: C_19  and  C_20
REMARK   10  A    between atoms: C_19  and  O_21
REMARK   11  A    between atoms: C_19  and  C_22
REMARK   12  A    between atoms: C_30  and  C_31
REMARK                            x       y       z     vdW  Elec       q    Type
REMARK                         _______ _______ _______ _____ _____    ______ ____
ROOT
ATOM      1  C   UNL     1      49.959   8.940  14.396  0.00  0.00    +0.000 C 
ATOM      2  C   UNL     1      49.937  10.463  14.152  0.00  0.00    +0.000 C 
ATOM      3  C   UNL     1      51.082   8.281  13.574  0.00  0.00    +0.000 C 
ENDROOT
BRANCH   1  12
ATOM      4  C   UNL     1      47.600   6.159  20.094  0.00  0.00    +0.000 C 
ATOM      5  C   UNL     1      48.639   5.049  19.945  0.00  0.00    +0.000 C 
ATOM      6  C   UNL     1      50.029   5.566  19.520  0.00  0.00    +0.000 C 
ATOM      7  N   UNL     1      50.059   5.889  18.095  0.00  0.00    +0.000 N 
ATOM      8  C   UNL     1      50.192   7.181  17.667  0.00  0.00    +0.000 A 
ATOM      9  N   UNL     1      50.485   8.144  18.556  0.00  0.00    +0.000 NA
ATOM     10  C   UNL     1      50.635   9.393  18.090  0.00  0.00    +0.000 A 
ATOM     11  C   UNL     1      50.497   9.736  16.764  0.00  0.00    +0.000 A 
ATOM     12  C   UNL     1      50.195   8.701  15.899  0.00  0.00    +0.000 A 
ATOM     13  N   UNL     1      50.048   7.444  16.357  0.00  0.00    +0.000 NA
ATOM     14  C   UNL     1      49.525   4.860  17.202  0.00  0.00    +0.000 C 
ATOM     15  C   UNL     1      48.136   4.397  17.689  0.00  0.00    +0.000 C 
ATOM     16  C   UNL     1      47.666   3.193  16.880  0.00  0.00    +0.000 C 
ATOM     17  O   UNL     1      48.164   4.002  19.073  0.00  0.00    +0.000 OA
ENDBRANCH   1  12
BRANCH   1  18
ATOM     18  C   UNL     1      48.579   8.335  13.991  0.00  0.00    +0.000 C 
BRANCH  18  19
ATOM     19  N   UNL     1      48.627   6.900  13.637  0.00  0.00    +0.000 N 
ATOM     20  H   UNL     1      48.925   6.313  14.412  0.00  0.00    +0.000 HD
BRANCH  19  21
ATOM     21  C   UNL     1      47.456   6.374  13.054  0.00  0.00    +0.000 A 
ATOM     22  C   UNL     1      47.062   6.799  11.785  0.00  0.00    +0.000 A 
ATOM     23  C   UNL     1      45.891   6.307  11.199  0.00  0.00    +0.000 A 
ATOM     24  C   UNL     1      45.100   5.406  11.910  0.00  0.00    +0.000 A 
ATOM     25  N   UNL     1      45.426   5.015  13.170  0.00  0.00    +0.000 NA
ATOM     26  C   UNL     1      46.558   5.531  13.712  0.00  0.00    +0.000 A 
BRANCH  24  27
ATOM     27  C   UNL     1      43.851   4.754  11.322  0.00  0.00    +0.000 C 
ATOM     28  C   UNL     1      42.654   4.985  12.256  0.00  0.00    +0.000 C 
BRANCH  27  29
ATOM     29  C   UNL     1      44.056   3.239  11.035  0.00  0.00    +0.000 C 
ATOM     30  F   UNL     1      45.329   2.824  11.243  0.00  0.00    +0.000 F 
ATOM     31  F   UNL     1      43.275   2.469  11.836  0.00  0.00    +0.000 F 
ATOM     32  F   UNL     1      43.747   2.907   9.758  0.00  0.00    +0.000 F 
ENDBRANCH  27  29
BRANCH  27  33
ATOM     33  O   UNL     1      43.481   5.484  10.114  0.00  0.00    +0.000 OA
ATOM     34  H   UNL     1      42.550   5.759  10.262  0.00  0.00    +0.000 HD
ENDBRANCH  27  33
ENDBRANCH  24  27
ENDBRANCH  19  21
ENDBRANCH  18  19
ENDBRANCH   1  18
TORSDOF 7
ENDMDL
MODEL 6
REMARK VINA RESULT:    -6.156      2.636      5.221
REMARK INTER + INTRA:          -9.803
REMARK INTER:                  -8.447
REMARK INTRA:                  -1.356
REMARK UNBOUND:                -1.308
REMARK  Name = 
REMARK  12 active torsions:
REMARK  status: ('A' for Active; 'I' for Inactive)
REMARK    1  A    between atoms: C_1  and  C_2
REMARK    2  A    between atoms: C_9  and  C_10
REMARK    3  A    between atoms: C_10  and  C_11
REMARK    4  A    between atoms: C_10  and  C_12
REMARK    5  A    between atoms: C_10  and  C_13
REMARK    6  A    between atoms: C_13  and  N_14
REMARK    7  A    between atoms: N_14  and  C_15
REMARK    8  A    between atoms: C_18  and  C_19
REMARK    9  A    between atoms: C_19  and  C_20
REMARK   10  A    between atoms: C_19  and  O_21
REMARK   11  A    between atoms: C_19  and  C_22
REMARK   12  A    between atoms: C_30  and  C_31
REMARK                            x       y       z     vdW  Elec       q    Type
REMARK                         _______ _______ _______ _____ _____    ______ ____
ROOT
ATOM      1  C   UNL     1      49.783   6.420  17.220  0.00  0.00    +0.000 C 
ATOM      2  C   UNL     1      50.338   5.389  18.223  0.00  0.00    +0.000 C 
ATOM      3  C   UNL     1      49.107   7.586  17.967  0.00  0.00    +0.000 C 
ENDROOT
BRANCH   1  12
ATOM      4  C   UNL     1      52.036   7.925  11.021  0.00  0.00    +0.000 C 
ATOM      5  C   UNL     1      51.852   9.406  11.348  0.00  0.00    +0.000 C 
ATOM      6  C   UNL     1      52.332   9.783  12.766  0.00  0.00    +0.000 C 
ATOM      7  N   UNL     1      51.366   9.362  13.778  0.00  0.00    +0.000 N 
ATOM      8  C   UNL     1      51.666   8.371  14.671  0.00  0.00    +0.000 A 
ATOM      9  N   UNL     1      52.924   7.905  14.741  0.00  0.00    +0.000 NA
ATOM     10  C   UNL     1      53.183   6.952  15.650  0.00  0.00    +0.000 A 
ATOM     11  C   UNL     1      52.234   6.427  16.498  0.00  0.00    +0.000 A 
ATOM     12  C   UNL     1      50.959   6.947  16.377  0.00  0.00    +0.000 A 
ATOM     13  N   UNL     1      50.692   7.906  15.472  0.00  0.00    +0.000 NA
ATOM     14  C   UNL     1      49.974   9.733  13.519  0.00  0.00    +0.000 C 
ATOM     15  C   UNL     1      49.569   9.323  12.088  0.00  0.00    +0.000 C 
ATOM     16  C   UNL     1      48.192   9.881  11.748  0.00  0.00    +0.000 C 
ATOM     17  O   UNL     1      50.494   9.830  11.108  0.00  0.00    +0.000 OA
ENDBRANCH   1  12
BRANCH   1  18
ATOM     18  C   UNL     1      48.751   5.721  16.282  0.00  0.00    +0.000 C 
BRANCH  18  19
ATOM     19  N   UNL     1      48.226   6.588  15.205  0.00  0.00    +0.000 N 
ATOM     20  H   UNL     1      48.958   7.106  14.725  0.00  0.00    +0.000 HD
BRANCH  19  21
ATOM     21  C   UNL     1      47.384   5.957  14.267  0.00  0.00    +0.000 A 
ATOM     22  C   UNL     1      46.792   6.707  13.251  0.00  0.00    +0.000 A 
ATOM     23  C   UNL     1      45.936   6.104  12.324  0.00  0.00    +0.000 A 
ATOM     24  C   UNL     1      45.653   4.744  12.442  0.00  0.00    +0.000 A 
ATOM     25  N   UNL     1      46.169   3.997  13.453  0.00  0.00    +0.000 NA
ATOM     26  C   UNL     1      46.978   4.623  14.344  0.00  0.00    +0.000 A 
BRANCH  24  27
ATOM     27  C   UNL     1      44.797   3.983  11.433  0.00  0.00    +0.000 C 
ATOM     28  C   UNL     1      45.085   4.496  10.014  0.00  0.00    +0.000 C 
BRANCH  27  29
ATOM     29  C   UNL     1      43.281   4.066  11.764  0.00  0.00    +0.000 C 
ATOM     30  F   UNL     1      42.598   2.945  11.429  0.00  0.00    +0.000 F 
ATOM     31  F   UNL     1      43.069   4.249  13.094  0.00  0.00    +0.000 F 
ATOM     32  F   UNL     1      42.667   5.094  11.130  0.00  0.00    +0.000 F 
ENDBRANCH  27  29
BRANCH  27  33
ATOM     33  O   UNL     1      45.262   2.600  11.391  0.00  0.00    +0.000 OA
ATOM     34  H   UNL     1      46.208   2.661  11.132  0.00  0.00    +0.000 HD
ENDBRANCH  27  33
ENDBRANCH  24  27
ENDBRANCH  19  21
ENDBRANCH  18  19
ENDBRANCH   1  18
TORSDOF 7
ENDMDL
MODEL 7
REMARK VINA RESULT:    -6.013      1.705      2.768
REMARK INTER + INTRA:          -9.606
REMARK INTER:                  -8.564
REMARK INTRA:                  -1.042
REMARK UNBOUND:                -1.308
REMARK  Name = 
REMARK  12 active torsions:
REMARK  status: ('A' for Active; 'I' for Inactive)
REMARK    1  A    between atoms: C_1  and  C_2
REMARK    2  A    between atoms: C_9  and  C_10
REMARK    3  A    between atoms: C_10  and  C_11
REMARK    4  A    between atoms: C_10  and  C_12
REMARK    5  A    between atoms: C_10  and  C_13
REMARK    6  A    between atoms: C_13  and  N_14
REMARK    7  A    between atoms: N_14  and  C_15
REMARK    8  A    between atoms: C_18  and  C_19
REMARK    9  A    between atoms: C_19  and  C_20
REMARK   10  A    between atoms: C_19  and  O_21
REMARK   11  A    between atoms: C_19  and  C_22
REMARK   12  A    between atoms: C_30  and  C_31
REMARK                            x       y       z     vdW  Elec       q    Type
REMARK                         _______ _______ _______ _____ _____    ______ ____
ROOT
ATOM      1  C   UNL     1      49.847   8.398  14.199  0.00  0.00    +0.000 C 
ATOM      2  C   UNL     1      48.670   9.301  14.622  0.00  0.00    +0.000 C 
ATOM      3  C   UNL     1      50.873   9.203  13.378  0.00  0.00    +0.000 C 
ENDROOT
BRANCH   1  12
ATOM      4  C   UNL     1      50.920   9.289  20.819  0.00  0.00    +0.000 C 
ATOM      5  C   UNL     1      49.897   8.190  21.100  0.00  0.00    +0.000 C 
ATOM      6  C   UNL     1      50.035   6.972  20.163  0.00  0.00    +0.000 C 
ATOM      7  N   UNL     1      49.478   7.257  18.843  0.00  0.00    +0.000 N 
ATOM      8  C   UNL     1      50.284   7.345  17.741  0.00  0.00    +0.000 A 
ATOM      9  N   UNL     1      51.574   6.984  17.837  0.00  0.00    +0.000 NA
ATOM     10  C   UNL     1      52.323   7.060  16.726  0.00  0.00    +0.000 A 
ATOM     11  C   UNL     1      51.844   7.491  15.510  0.00  0.00    +0.000 A 
ATOM     12  C   UNL     1      50.509   7.847  15.476  0.00  0.00    +0.000 A 
ATOM     13  N   UNL     1      49.749   7.770  16.584  0.00  0.00    +0.000 NA
ATOM     14  C   UNL     1      48.139   7.846  18.834  0.00  0.00    +0.000 C 
ATOM     15  C   UNL     1      48.080   9.056  19.790  0.00  0.00    +0.000 C 
ATOM     16  C   UNL     1      46.645   9.548  19.933  0.00  0.00    +0.000 C 
ATOM     17  O   UNL     1      48.553   8.715  21.107  0.00  0.00    +0.000 OA
ENDBRANCH   1  12
BRANCH   1  18
ATOM     18  C   UNL     1      49.302   7.209  13.349  0.00  0.00    +0.000 C 
BRANCH  18  19
ATOM     19  N   UNL     1      48.152   6.506  13.958  0.00  0.00    +0.000 N 
ATOM     20  H   UNL     1      47.683   7.061  14.669  0.00  0.00    +0.000 HD
BRANCH  19  21
ATOM     21  C   UNL     1      47.206   5.983  13.052  0.00  0.00    +0.000 A 
ATOM     22  C   UNL     1      46.814   6.739  11.947  0.00  0.00    +0.000 A 
ATOM     23  C   UNL     1      45.860   6.248  11.048  0.00  0.00    +0.000 A 
ATOM     24  C   UNL     1      45.281   5.002  11.284  0.00  0.00    +0.000 A 
ATOM     25  N   UNL     1      45.600   4.266  12.381  0.00  0.00    +0.000 NA
ATOM     26  C   UNL     1      46.512   4.787  13.239  0.00  0.00    +0.000 A 
BRANCH  24  27
ATOM     27  C   UNL     1      44.294   4.350  10.319  0.00  0.00    +0.000 C 
ATOM     28  C   UNL     1      43.485   3.269  11.052  0.00  0.00    +0.000 C 
BRANCH  27  29
ATOM     29  C   UNL     1      44.998   3.768   9.060  0.00  0.00    +0.000 C 
ATOM     30  F   UNL     1      46.097   4.469   8.691  0.00  0.00    +0.000 F 
ATOM     31  F   UNL     1      45.420   2.493   9.268  0.00  0.00    +0.000 F 
ATOM     32  F   UNL     1      44.182   3.734   7.979  0.00  0.00    +0.000 F 
ENDBRANCH  27  29
BRANCH  27  33
ATOM     33  O   UNL     1      43.284   5.340   9.959  0.00  0.00    +0.000 OA
ATOM     34  H   UNL     1      43.367   5.441   8.986  0.00  0.00    +0.000 HD
ENDBRANCH  27  33
ENDBRANCH  24  27
ENDBRANCH  19  21
ENDBRANCH  18  19
ENDBRANCH   1  18
TORSDOF 7
ENDMDL
MODEL 8
REMARK VINA RESULT:    -5.942      3.617      7.323
REMARK INTER + INTRA:          -9.508
REMARK INTER:                  -8.082
REMARK INTRA:                  -1.426
REMARK UNBOUND:                -1.308
REMARK  Name = 
REMARK  12 active torsions:
REMARK  status: ('A' for Active; 'I' for Inactive)
REMARK    1  A    between atoms: C_1  and  C_2
REMARK    2  A    between atoms: C_9  and  C_10
REMARK    3  A    between atoms: C_10  and  C_11
REMARK    4  A    between atoms: C_10  and  C_12
REMARK    5  A    between atoms: C_10  and  C_13
REMARK    6  A    between atoms: C_13  and  N_14
REMARK    7  A    between atoms: N_14  and  C_15
REMARK    8  A    between atoms: C_18  and  C_19
REMARK    9  A    between atoms: C_19  and  C_20
REMARK   10  A    between atoms: C_19  and  O_21
REMARK   11  A    between atoms: C_19  and  C_22
REMARK   12  A    between atoms: C_30  and  C_31
REMARK                            x       y       z     vdW  Elec       q    Type
REMARK                         _______ _______ _______ _____ _____    ______ ____
ROOT
ATOM      1  C   UNL     1      48.503   9.187  12.373  0.00  0.00    +0.000 C 
ATOM      2  C   UNL     1      49.249   7.883  12.024  0.00  0.00    +0.000 C 
ATOM      3  C   UNL     1      48.970  10.334  11.457  0.00  0.00    +0.000 C 
ENDROOT
BRANCH   1  12
ATOM      4  C   UNL     1      43.722   4.868  10.309  0.00  0.00    +0.000 C 
ATOM      5  C   UNL     1      43.391   4.584  11.773  0.00  0.00    +0.000 C 
ATOM      6  C   UNL     1      43.360   5.853  12.651  0.00  0.00    +0.000 C 
ATOM      7  N   UNL     1      44.712   6.310  12.966  0.00  0.00    +0.000 N 
ATOM      8  C   UNL     1      45.194   7.486  12.462  0.00  0.00    +0.000 A 
ATOM      9  N   UNL     1      44.359   8.322  11.823  0.00  0.00    +0.000 NA
ATOM     10  C   UNL     1      44.868   9.478  11.369  0.00  0.00    +0.000 A 
ATOM     11  C   UNL     1      46.187   9.843  11.515  0.00  0.00    +0.000 A 
ATOM     12  C   UNL     1      46.995   8.940  12.181  0.00  0.00    +0.000 A 
ATOM     13  N   UNL     1      46.493   7.781  12.644  0.00  0.00    +0.000 NA
ATOM     14  C   UNL     1      45.627   5.283  13.465  0.00  0.00    +0.000 C 
ATOM     15  C   UNL     1      45.605   4.050  12.537  0.00  0.00    +0.000 C 
ATOM     16  C   UNL     1      46.402   2.908  13.157  0.00  0.00    +0.000 C 
ATOM     17  O   UNL     1      44.264   3.573  12.320  0.00  0.00    +0.000 OA
ENDBRANCH   1  12
BRANCH   1  18
ATOM     18  C   UNL     1      48.777   9.553  13.864  0.00  0.00    +0.000 C 
BRANCH  18  19
ATOM     19  N   UNL     1      47.800   8.984  14.817  0.00  0.00    +0.000 N 
ATOM     20  H   UNL     1      46.955   8.647  14.361  0.00  0.00    +0.000 HD
BRANCH  19  21
ATOM     21  C   UNL     1      48.302   8.000  15.693  0.00  0.00    +0.000 A 
ATOM     22  C   UNL     1      48.585   8.332  17.019  0.00  0.00    +0.000 A 
ATOM     23  C   UNL     1      49.105   7.376  17.898  0.00  0.00    +0.000 A 
ATOM     24  C   UNL     1      49.368   6.090  17.429  0.00  0.00    +0.000 A 
ATOM     25  N   UNL     1      49.157   5.751  16.130  0.00  0.00    +0.000 NA
ATOM     26  C   UNL     1      48.672   6.711  15.304  0.00  0.00    +0.000 A 
BRANCH  24  27
ATOM     27  C   UNL     1      49.859   4.961  18.332  0.00  0.00    +0.000 C 
ATOM     28  C   UNL     1      50.891   4.106  17.582  0.00  0.00    +0.000 C 
BRANCH  27  29
ATOM     29  C   UNL     1      48.691   4.089  18.872  0.00  0.00    +0.000 C 
ATOM     30  F   UNL     1      48.733   2.808  18.431  0.00  0.00    +0.000 F 
ATOM     31  F   UNL     1      48.707   4.017  20.229  0.00  0.00    +0.000 F 
ATOM     32  F   UNL     1      47.476   4.576  18.526  0.00  0.00    +0.000 F 
ENDBRANCH  27  29
BRANCH  27  33
ATOM     33  O   UNL     1      50.636   5.550  19.418  0.00  0.00    +0.000 OA
ATOM     34  H   UNL     1      51.551   5.612  19.067  0.00  0.00    +0.000 HD
ENDBRANCH  27  33
ENDBRANCH  24  27
ENDBRANCH  19  21
ENDBRANCH  18  19
ENDBRANCH   1  18
TORSDOF 7
ENDMDL
MODEL 9
REMARK VINA RESULT:    -5.927      3.844      6.121
REMARK INTER + INTRA:          -9.487
REMARK INTER:                  -8.462
REMARK INTRA:                  -1.025
REMARK UNBOUND:                -1.308
REMARK  Name = 
REMARK  12 active torsions:
REMARK  status: ('A' for Active; 'I' for Inactive)
REMARK    1  A    between atoms: C_1  and  C_2
REMARK    2  A    between atoms: C_9  and  C_10
REMARK    3  A    between atoms: C_10  and  C_11
REMARK    4  A    between atoms: C_10  and  C_12
REMARK    5  A    between atoms: C_10  and  C_13
REMARK    6  A    between atoms: C_13  and  N_14
REMARK    7  A    between atoms: N_14  and  C_15
REMARK    8  A    between atoms: C_18  and  C_19
REMARK    9  A    between atoms: C_19  and  C_20
REMARK   10  A    between atoms: C_19  and  O_21
REMARK   11  A    between atoms: C_19  and  C_22
REMARK   12  A    between atoms: C_30  and  C_31
REMARK                            x       y       z     vdW  Elec       q    Type
REMARK                         _______ _______ _______ _____ _____    ______ ____
ROOT
ATOM      1  C   UNL     1      49.938   9.443  12.884  0.00  0.00    +0.000 C 
ATOM      2  C   UNL     1      49.839  10.802  13.608  0.00  0.00    +0.000 C 
ATOM      3  C   UNL     1      49.459   9.576  11.425  0.00  0.00    +0.000 C 
ENDROOT
BRANCH   1  12
ATOM      4  C   UNL     1      54.510   4.990  10.641  0.00  0.00    +0.000 C 
ATOM      5  C   UNL     1      55.058   6.069   9.710  0.00  0.00    +0.000 C 
ATOM      6  C   UNL     1      55.175   7.454  10.381  0.00  0.00    +0.000 C 
ATOM      7  N   UNL     1      53.868   8.101  10.485  0.00  0.00    +0.000 N 
ATOM      8  C   UNL     1      53.279   8.309  11.702  0.00  0.00    +0.000 A 
ATOM      9  N   UNL     1      53.984   8.087  12.823  0.00  0.00    +0.000 NA
ATOM     10  C   UNL     1      53.378   8.330  13.995  0.00  0.00    +0.000 A 
ATOM     11  C   UNL     1      52.082   8.782  14.106  0.00  0.00    +0.000 A 
ATOM     12  C   UNL     1      51.410   8.991  12.916  0.00  0.00    +0.000 A 
ATOM     13  N   UNL     1      52.012   8.755  11.736  0.00  0.00    +0.000 NA
ATOM     14  C   UNL     1      53.069   8.116   9.259  0.00  0.00    +0.000 C 
ATOM     15  C   UNL     1      52.998   6.700   8.650  0.00  0.00    +0.000 C 
ATOM     16  C   UNL     1      52.337   6.749   7.277  0.00  0.00    +0.000 C 
ATOM     17  O   UNL     1      54.308   6.129   8.479  0.00  0.00    +0.000 OA
ENDBRANCH   1  12
BRANCH   1  18
ATOM     18  C   UNL     1      49.062   8.395  13.637  0.00  0.00    +0.000 C 
BRANCH  18  19
ATOM     19  N   UNL     1      49.046   7.056  13.009  0.00  0.00    +0.000 N 
ATOM     20  H   UNL     1      49.582   6.369  13.533  0.00  0.00    +0.000 HD
BRANCH  19  21
ATOM     21  C   UNL     1      47.770   6.541  12.700  0.00  0.00    +0.000 A 
ATOM     22  C   UNL     1      47.120   5.708  13.611  0.00  0.00    +0.000 A 
ATOM     23  C   UNL     1      45.863   5.169  13.315  0.00  0.00    +0.000 A 
ATOM     24  C   UNL     1      45.276   5.448  12.082  0.00  0.00    +0.000 A 
ATOM     25  N   UNL     1      45.908   6.210  11.151  0.00  0.00    +0.000 NA
ATOM     26  C   UNL     1      47.133   6.697  11.468  0.00  0.00    +0.000 A 
BRANCH  24  27
ATOM     27  C   UNL     1      43.876   4.972  11.702  0.00  0.00    +0.000 C 
ATOM     28  C   UNL     1      42.963   5.002  12.938  0.00  0.00    +0.000 C 
BRANCH  27  29
ATOM     29  C   UNL     1      43.890   3.562  11.048  0.00  0.00    +0.000 C 
ATOM     30  F   UNL     1      42.934   2.736  11.538  0.00  0.00    +0.000 F 
ATOM     31  F   UNL     1      43.673   3.631   9.708  0.00  0.00    +0.000 F 
ATOM     32  F   UNL     1      45.073   2.924  11.216  0.00  0.00    +0.000 F 
ENDBRANCH  27  29
BRANCH  27  33
ATOM     33  O   UNL     1      43.279   5.968  10.819  0.00  0.00    +0.000 OA
ATOM     34  H   UNL     1      43.102   6.743  11.397  0.00  0.00    +0.000 HD
ENDBRANCH  27  33
ENDBRANCH  24  27
ENDBRANCH  19  21
ENDBRANCH  18  19
ENDBRANCH   1  18
TORSDOF 7
ENDMDL
