MODEL 1
REMARK VINA RESULT:    -7.666      0.000      0.000
REMARK INTER + INTRA:          -9.973
REMARK INTER:                  -9.458
REMARK INTRA:                  -0.515
REMARK UNBOUND:                -0.515
REMARK  Name = 
REMARK  4 active torsions:
REMARK  status: ('A' for Active; 'I' for Inactive)
REMARK    1  A    between atoms: C_2  and  C_4
REMARK    2  A    between atoms: C_7  and  N_8
REMARK    3  A    between atoms: N_8  and  C_9
REMARK    4  A    between atoms: C_9  and  C_10
REMARK                            x       y       z     vdW  Elec       q    Type
REMARK                         _______ _______ _______ _____ _____    ______ ____
ROOT
ATOM      1  C   UNL     1      46.237   2.036   7.947  0.00  0.00    +0.000 A 
ATOM      2  C   UNL     1      46.378   3.365   7.578  0.00  0.00    +0.000 A 
ATOM      3  C   UNL     1      45.535   4.304   8.172  0.00  0.00    +0.000 A 
ATOM      4  C   UNL     1      44.604   3.913   9.137  0.00  0.00    +0.000 A 
ATOM      5  C   UNL     1      44.540   2.547   9.419  0.00  0.00    +0.000 A 
ATOM      6  N   UNL     1      45.322   1.593   8.852  0.00  0.00    +0.000 NA
ENDROOT
BRANCH   1   8
ATOM      7  N   UNL     1      46.813  -0.298   7.649  0.00  0.00    +0.000 N 
ATOM      8  C   UNL     1      47.121   0.996   7.330  0.00  0.00    +0.000 C 
ATOM      9  O   UNL     1      48.054   1.274   6.587  0.00  0.00    +0.000 OA
ATOM     10  H   UNL     1      47.362  -1.052   7.264  0.00  0.00    +0.000 HD
ATOM     11  H   UNL     1      46.031  -0.487   8.266  0.00  0.00    +0.000 HD
ENDBRANCH   1   8
BRANCH   4  12
ATOM     12  N   UNL     1      43.803   4.899   9.716  0.00  0.00    +0.000 N 
ATOM     13  H   UNL     1      42.885   4.939   9.278  0.00  0.00    +0.000 HD
BRANCH  12  14
ATOM     14  C   UNL     1      43.718   4.984  11.169  0.00  0.00    +0.000 C 
BRANCH  14  15
ATOM     15  C   UNL     1      45.075   5.317  11.744  0.00  0.00    +0.000 A 
ATOM     16  C   UNL     1      45.804   6.417  11.274  0.00  0.00    +0.000 A 
ATOM     17  C   UNL     1      47.020   6.766  11.866  0.00  0.00    +0.000 A 
ATOM     18  C   UNL     1      47.521   6.021  12.932  0.00  0.00    +0.000 A 
ATOM     19  C   UNL     1      46.813   4.918  13.402  0.00  0.00    +0.000 A 
ATOM     20  C   UNL     1      45.597   4.568  12.812  0.00  0.00    +0.000 A 
ENDBRANCH  14  15
ENDBRANCH  12  14
ENDBRANCH   4  12
TORSDOF 4
ENDMDL
MODEL 2
REMARK VINA RESULT:    -7.564      3.129      5.959
REMARK INTER + INTRA:          -9.848
REMARK INTER:                  -9.471
REMARK INTRA:                  -0.376
REMARK UNBOUND:                -0.515
REMARK  Name = 
REMARK  4 active torsions:
REMARK  status: ('A' for Active; 'I' for Inactive)
REMARK    1  A    between atoms: C_2  and  C_4
REMARK    2  A    between atoms: C_7  and  N_8
REMARK    3  A    between atoms: N_8  and  C_9
REMARK    4  A    between atoms: C_9  and  C_10
REMARK                            x       y       z     vdW  Elec       q    Type
REMARK                         _______ _______ _______ _____ _____    ______ ____
ROOT
ATOM      1  C   UNL     1      46.611   4.561  13.720  0.00  0.00    +0.000 A 
ATOM      2  C   UNL     1      46.790   5.762  13.050  0.00  0.00    +0.000 A 
ATOM      3  C   UNL     1      46.181   5.917  11.806  0.00  0.00    +0.000 A 
ATOM      4  C   UNL     1      45.384   4.900  11.274  0.00  0.00    +0.000 A 
ATOM      5  C   UNL     1      45.287   3.729  12.028  0.00  0.00    +0.000 A 
ATOM      6  N   UNL     1      45.878   3.523  13.232  0.00  0.00    +0.000 NA
ENDROOT
BRANCH   1   8
ATOM      7  N   UNL     1      47.522   5.496  15.761  0.00  0.00    +0.000 N 
ATOM      8  C   UNL     1      47.251   4.354  15.059  0.00  0.00    +0.000 C 
ATOM      9  O   UNL     1      47.513   3.244  15.503  0.00  0.00    +0.000 OA
ATOM     10  H   UNL     1      47.947   5.432  16.674  0.00  0.00    +0.000 HD
ATOM     11  H   UNL     1      47.287   6.397  15.358  0.00  0.00    +0.000 HD
ENDBRANCH   1   8
BRANCH   4  12
ATOM     12  N   UNL     1      44.778   5.120  10.035  0.00  0.00    +0.000 N 
ATOM     13  H   UNL     1      45.362   5.697   9.431  0.00  0.00    +0.000 HD
BRANCH  12  14
ATOM     14  C   UNL     1      44.202   3.990   9.316  0.00  0.00    +0.000 C 
BRANCH  14  15
ATOM     15  C   UNL     1      45.287   3.252   8.566  0.00  0.00    +0.000 A 
ATOM     16  C   UNL     1      45.469   1.873   8.739  0.00  0.00    +0.000 A 
ATOM     17  C   UNL     1      46.419   1.183   7.983  0.00  0.00    +0.000 A 
ATOM     18  C   UNL     1      47.198   1.862   7.047  0.00  0.00    +0.000 A 
ATOM     19  C   UNL     1      47.036   3.234   6.873  0.00  0.00    +0.000 A 
ATOM     20  C   UNL     1      46.087   3.925   7.627  0.00  0.00    +0.000 A 
ENDBRANCH  14  15
ENDBRANCH  12  14
ENDBRANCH   4  12
TORSDOF 4
ENDMDL
MODEL 3
REMARK VINA RESULT:    -7.465      1.289      1.929
REMARK INTER + INTRA:          -9.726
REMARK INTER:                  -9.154
REMARK INTRA:                  -0.572
REMARK UNBOUND:                -0.515
REMARK  Name = 
REMARK  4 active torsions:
REMARK  status: ('A' for Active; 'I' for Inactive)
REMARK    1  A    between atoms: C_2  and  C_4
REMARK    2  A    between atoms: C_7  and  N_8
REMARK    3  A    between atoms: N_8  and  C_9
REMARK    4  A    between atoms: C_9  and  C_10
REMARK                            x       y       z     vdW  Elec       q    Type
REMARK                         _______ _______ _______ _____ _____    ______ ____
ROOT
ATOM      1  C   UNL     1      46.491   2.567   7.706  0.00  0.00    +0.000 A 
ATOM      2  C   UNL     1      45.622   1.902   8.557  0.00  0.00    +0.000 A 
ATOM      3  C   UNL     1      44.727   2.662   9.308  0.00  0.00    +0.000 A 
ATOM      4  C   UNL     1      44.688   4.052   9.173  0.00  0.00    +0.000 A 
ATOM      5  C   UNL     1      45.619   4.616   8.298  0.00  0.00    +0.000 A 
ATOM      6  N   UNL     1      46.523   3.921   7.563  0.00  0.00    +0.000 NA
ENDROOT
BRANCH   1   8
ATOM      7  N   UNL     1      48.545   2.497   6.424  0.00  0.00    +0.000 N 
ATOM      8  C   UNL     1      47.469   1.787   6.883  0.00  0.00    +0.000 C 
ATOM      9  O   UNL     1      47.327   0.595   6.638  0.00  0.00    +0.000 OA
ATOM     10  H   UNL     1      49.248   2.033   5.868  0.00  0.00    +0.000 HD
ATOM     11  H   UNL     1      48.627   3.481   6.652  0.00  0.00    +0.000 HD
ENDBRANCH   1   8
BRANCH   4  12
ATOM     12  N   UNL     1      43.755   4.761   9.932  0.00  0.00    +0.000 N 
ATOM     13  H   UNL     1      42.859   4.831   9.452  0.00  0.00    +0.000 HD
BRANCH  12  14
ATOM     14  C   UNL     1      43.592   4.435  11.344  0.00  0.00    +0.000 C 
BRANCH  14  15
ATOM     15  C   UNL     1      44.786   4.933  12.126  0.00  0.00    +0.000 A 
ATOM     16  C   UNL     1      45.595   4.044  12.845  0.00  0.00    +0.000 A 
ATOM     17  C   UNL     1      46.744   4.501  13.497  0.00  0.00    +0.000 A 
ATOM     18  C   UNL     1      47.094   5.848  13.440  0.00  0.00    +0.000 A 
ATOM     19  C   UNL     1      46.292   6.745  12.739  0.00  0.00    +0.000 A 
ATOM     20  C   UNL     1      45.145   6.291  12.086  0.00  0.00    +0.000 A 
ENDBRANCH  14  15
ENDBRANCH  12  14
ENDBRANCH   4  12
TORSDOF 4
ENDMDL
MODEL 4
REMARK VINA RESULT:    -7.103      3.060      6.395
REMARK INTER + INTRA:          -9.279
REMARK INTER:                  -8.864
REMARK INTRA:                  -0.414
REMARK UNBOUND:                -0.515
REMARK  Name = 
REMARK  4 active torsions:
REMARK  status: ('A' for Active; 'I' for Inactive)
REMARK    1  A    between atoms: C_2  and  C_4
REMARK    2  A    between atoms: C_7  and  N_8
REMARK    3  A    between atoms: N_8  and  C_9
REMARK    4  A    between atoms: C_9  and  C_10
REMARK                            x       y       z     vdW  Elec       q    Type
REMARK                         _______ _______ _______ _____ _____    ______ ____
ROOT
ATOM      1  C   UNL     1      45.432   6.799  12.406  0.00  0.00    +0.000 A 
ATOM      2  C   UNL     1      46.086   5.749  13.032  0.00  0.00    +0.000 A 
ATOM      3  C   UNL     1      45.882   4.461  12.540  0.00  0.00    +0.000 A 
ATOM      4  C   UNL     1      45.071   4.247  11.424  0.00  0.00    +0.000 A 
ATOM      5  C   UNL     1      44.450   5.375  10.883  0.00  0.00    +0.000 A 
ATOM      6  N   UNL     1      44.599   6.644  11.340  0.00  0.00    +0.000 NA
ENDROOT
BRANCH   1   8
ATOM      7  N   UNL     1      44.647   9.086  12.544  0.00  0.00    +0.000 N 
ATOM      8  C   UNL     1      45.622   8.198  12.906  0.00  0.00    +0.000 C 
ATOM      9  O   UNL     1      46.578   8.532  13.595  0.00  0.00    +0.000 OA
ATOM     10  H   UNL     1      44.706  10.046  12.851  0.00  0.00    +0.000 HD
ATOM     11  H   UNL     1      43.870   8.769  11.974  0.00  0.00    +0.000 HD
ENDBRANCH   1   8
BRANCH   4  12
ATOM     12  N   UNL     1      44.922   2.939  10.960  0.00  0.00    +0.000 N 
ATOM     13  H   UNL     1      44.522   2.332  11.674  0.00  0.00    +0.000 HD
BRANCH  12  14
ATOM     14  C   UNL     1      44.317   2.712   9.653  0.00  0.00    +0.000 C 
BRANCH  14  15
ATOM     15  C   UNL     1      45.397   2.590   8.602  0.00  0.00    +0.000 A 
ATOM     16  C   UNL     1      46.054   1.371   8.386  0.00  0.00    +0.000 A 
ATOM     17  C   UNL     1      46.992   1.244   7.359  0.00  0.00    +0.000 A 
ATOM     18  C   UNL     1      47.284   2.332   6.538  0.00  0.00    +0.000 A 
ATOM     19  C   UNL     1      46.647   3.552   6.749  0.00  0.00    +0.000 A 
ATOM     20  C   UNL     1      45.709   3.681   7.774  0.00  0.00    +0.000 A 
ENDBRANCH  14  15
ENDBRANCH  12  14
ENDBRANCH   4  12
TORSDOF 4
ENDMDL
MODEL 5
REMARK VINA RESULT:    -5.838      3.441      6.333
REMARK INTER + INTRA:          -7.718
REMARK INTER:                  -7.397
REMARK INTRA:                  -0.321
REMARK UNBOUND:                -0.515
REMARK  Name = 
REMARK  4 active torsions:
REMARK  status: ('A' for Active; 'I' for Inactive)
REMARK    1  A    between atoms: C_2  and  C_4
REMARK    2  A    between atoms: C_7  and  N_8
REMARK    3  A    between atoms: N_8  and  C_9
REMARK    4  A    between atoms: C_9  and  C_10
REMARK                            x       y       z     vdW  Elec       q    Type
REMARK                         _______ _______ _______ _____ _____    ______ ____
ROOT
ATOM      1  C   UNL     1      47.346   7.139  13.348  0.00  0.00    +0.000 A 
ATOM      2  C   UNL     1      47.113   5.785  13.156  0.00  0.00    +0.000 A 
ATOM      3  C   UNL     1      46.102   5.412  12.272  0.00  0.00    +0.000 A 
ATOM      4  C   UNL     1      45.374   6.380  11.575  0.00  0.00    +0.000 A 
ATOM      5  C   UNL     1      45.683   7.712  11.860  0.00  0.00    +0.000 A 
ATOM      6  N   UNL     1      46.642   8.125  12.727  0.00  0.00    +0.000 NA
ENDROOT
BRANCH   1   8
ATOM      7  N   UNL     1      48.000   7.895  15.555  0.00  0.00    +0.000 N 
ATOM      8  C   UNL     1      48.422   7.582  14.292  0.00  0.00    +0.000 C 
ATOM      9  O   UNL     1      49.600   7.657  13.966  0.00  0.00    +0.000 OA
ATOM     10  H   UNL     1      48.672   8.195  16.246  0.00  0.00    +0.000 HD
ATOM     11  H   UNL     1      47.016   7.817  15.785  0.00  0.00    +0.000 HD
ENDBRANCH   1   8
BRANCH   4  12
ATOM     12  N   UNL     1      44.390   5.948  10.685  0.00  0.00    +0.000 N 
ATOM     13  H   UNL     1      44.575   6.272   9.737  0.00  0.00    +0.000 HD
BRANCH  12  14
ATOM     14  C   UNL     1      43.971   4.552  10.710  0.00  0.00    +0.000 C 
BRANCH  14  15
ATOM     15  C   UNL     1      44.688   3.782   9.624  0.00  0.00    +0.000 A 
ATOM     16  C   UNL     1      45.381   4.452   8.608  0.00  0.00    +0.000 A 
ATOM     17  C   UNL     1      46.109   3.734   7.655  0.00  0.00    +0.000 A 
ATOM     18  C   UNL     1      46.151   2.342   7.707  0.00  0.00    +0.000 A 
ATOM     19  C   UNL     1      45.456   1.663   8.705  0.00  0.00    +0.000 A 
ATOM     20  C   UNL     1      44.729   2.378   9.658  0.00  0.00    +0.000 A 
ENDBRANCH  14  15
ENDBRANCH  12  14
ENDBRANCH   4  12
TORSDOF 4
ENDMDL
MODEL 6
REMARK VINA RESULT:    -5.684      4.160      6.789
REMARK INTER + INTRA:          -7.528
REMARK INTER:                  -7.198
REMARK INTRA:                  -0.330
REMARK UNBOUND:                -0.515
REMARK  Name = 
REMARK  4 active torsions:
REMARK  status: ('A' for Active; 'I' for Inactive)
REMARK    1  A    between atoms: C_2  and  C_4
REMARK    2  A    between atoms: C_7  and  N_8
REMARK    3  A    between atoms: N_8  and  C_9
REMARK    4  A    between atoms: C_9  and  C_10
REMARK                            x       y       z     vdW  Elec       q    Type
REMARK                         _______ _______ _______ _____ _____    ______ ____
ROOT
ATOM      1  C   UNL     1      47.690   4.858  15.712  0.00  0.00    +0.000 A 
ATOM      2  C   UNL     1      48.184   6.032  15.163  0.00  0.00    +0.000 A 
ATOM      3  C   UNL     1      47.767   6.383  13.881  0.00  0.00    +0.000 A 
ATOM      4  C   UNL     1      46.848   5.591  13.189  0.00  0.00    +0.000 A 
ATOM      5  C   UNL     1      46.430   4.423  13.832  0.00  0.00    +0.000 A 
ATOM      6  N   UNL     1      46.823   4.027  15.069  0.00  0.00    +0.000 NA
ENDROOT
BRANCH   1   8
ATOM      7  N   UNL     1      47.138   4.496  18.042  0.00  0.00    +0.000 N 
ATOM      8  C   UNL     1      48.115   4.443  17.086  0.00  0.00    +0.000 C 
ATOM      9  O   UNL     1      49.254   4.075  17.345  0.00  0.00    +0.000 OA
ATOM     10  H   UNL     1      47.352   4.224  18.990  0.00  0.00    +0.000 HD
ATOM     11  H   UNL     1      46.206   4.803  17.787  0.00  0.00    +0.000 HD
ENDBRANCH   1   8
BRANCH   4  12
ATOM     12  N   UNL     1      46.447   6.004  11.918  0.00  0.00    +0.000 N 
ATOM     13  H   UNL     1      47.147   5.777  11.213  0.00  0.00    +0.000 HD
BRANCH  12  14
ATOM     14  C   UNL     1      45.097   5.696  11.462  0.00  0.00    +0.000 C 
BRANCH  14  15
ATOM     15  C   UNL     1      45.150   4.658  10.365  0.00  0.00    +0.000 A 
ATOM     16  C   UNL     1      44.572   3.394  10.544  0.00  0.00    +0.000 A 
ATOM     17  C   UNL     1      44.553   2.470   9.497  0.00  0.00    +0.000 A 
ATOM     18  C   UNL     1      45.112   2.796   8.263  0.00  0.00    +0.000 A 
ATOM     19  C   UNL     1      45.701   4.044   8.075  0.00  0.00    +0.000 A 
ATOM     20  C   UNL     1      45.719   4.969   9.119  0.00  0.00    +0.000 A 
ENDBRANCH  14  15
ENDBRANCH  12  14
ENDBRANCH   4  12
TORSDOF 4
ENDMDL
MODEL 7
REMARK VINA RESULT:    -5.600      3.922      5.882
REMARK INTER + INTRA:          -7.424
REMARK INTER:                  -7.027
REMARK INTRA:                  -0.397
REMARK UNBOUND:                -0.515
REMARK  Name = 
REMARK  4 active torsions:
REMARK  status: ('A' for Active; 'I' for Inactive)
REMARK    1  A    between atoms: C_2  and  C_4
REMARK    2  A    between atoms: C_7  and  N_8
REMARK    3  A    between atoms: N_8  and  C_9
REMARK    4  A    between atoms: C_9  and  C_10
REMARK                            x       y       z     vdW  Elec       q    Type
REMARK                         _______ _______ _______ _____ _____    ______ ____
ROOT
ATOM      1  C   UNL     1      45.122   4.300  11.711  0.00  0.00    +0.000 A 
ATOM      2  C   UNL     1      45.682   3.253  12.429  0.00  0.00    +0.000 A 
ATOM      3  C   UNL     1      46.400   3.559  13.584  0.00  0.00    +0.000 A 
ATOM      4  C   UNL     1      46.516   4.882  14.019  0.00  0.00    +0.000 A 
ATOM      5  C   UNL     1      45.926   5.855  13.209  0.00  0.00    +0.000 A 
ATOM      6  N   UNL     1      45.237   5.609  12.067  0.00  0.00    +0.000 NA
ENDROOT
BRANCH   1   8
ATOM      7  N   UNL     1      43.665   5.079   9.940  0.00  0.00    +0.000 N 
ATOM      8  C   UNL     1      44.346   4.013  10.463  0.00  0.00    +0.000 C 
ATOM      9  O   UNL     1      44.319   2.908   9.937  0.00  0.00    +0.000 OA
ATOM     10  H   UNL     1      43.126   4.960   9.095  0.00  0.00    +0.000 HD
ATOM     11  H   UNL     1      43.715   5.979  10.404  0.00  0.00    +0.000 HD
ENDBRANCH   1   8
BRANCH   4  12
ATOM     12  N   UNL     1      47.226   5.127  15.196  0.00  0.00    +0.000 N 
ATOM     13  H   UNL     1      47.075   6.077  15.532  0.00  0.00    +0.000 HD
BRANCH  12  14
ATOM     14  C   UNL     1      47.168   4.152  16.278  0.00  0.00    +0.000 C 
BRANCH  14  15
ATOM     15  C   UNL     1      48.569   3.769  16.698  0.00  0.00    +0.000 A 
ATOM     16  C   UNL     1      49.470   4.737  17.160  0.00  0.00    +0.000 A 
ATOM     17  C   UNL     1      50.734   4.365  17.624  0.00  0.00    +0.000 A 
ATOM     18  C   UNL     1      51.111   3.023  17.631  0.00  0.00    +0.000 A 
ATOM     19  C   UNL     1      50.229   2.051  17.164  0.00  0.00    +0.000 A 
ATOM     20  C   UNL     1      48.966   2.421  16.701  0.00  0.00    +0.000 A 
ENDBRANCH  14  15
ENDBRANCH  12  14
ENDBRANCH   4  12
TORSDOF 4
ENDMDL
MODEL 8
REMARK VINA RESULT:    -5.579      3.275      4.816
REMARK INTER + INTRA:          -7.399
REMARK INTER:                  -7.051
REMARK INTRA:                  -0.348
REMARK UNBOUND:                -0.515
REMARK  Name = 
REMARK  4 active torsions:
REMARK  status: ('A' for Active; 'I' for Inactive)
REMARK    1  A    between atoms: C_2  and  C_4
REMARK    2  A    between atoms: C_7  and  N_8
REMARK    3  A    between atoms: N_8  and  C_9
REMARK    4  A    between atoms: C_9  and  C_10
REMARK                            x       y       z     vdW  Elec       q    Type
REMARK                         _______ _______ _______ _____ _____    ______ ____
ROOT
ATOM      1  C   UNL     1      44.707   3.896  11.706  0.00  0.00    +0.000 A 
ATOM      2  C   UNL     1      45.003   5.030  10.964  0.00  0.00    +0.000 A 
ATOM      3  C   UNL     1      45.707   6.058  11.588  0.00  0.00    +0.000 A 
ATOM      4  C   UNL     1      46.132   5.927  12.912  0.00  0.00    +0.000 A 
ATOM      5  C   UNL     1      45.764   4.750  13.567  0.00  0.00    +0.000 A 
ATOM      6  N   UNL     1      45.062   3.731  13.010  0.00  0.00    +0.000 NA
ENDROOT
BRANCH   1   8
ATOM      7  N   UNL     1      44.535   2.222   9.965  0.00  0.00    +0.000 N 
ATOM      8  C   UNL     1      43.950   2.770  11.073  0.00  0.00    +0.000 C 
ATOM      9  O   UNL     1      42.884   2.358  11.513  0.00  0.00    +0.000 OA
ATOM     10  H   UNL     1      44.083   1.454   9.490  0.00  0.00    +0.000 HD
ATOM     11  H   UNL     1      45.420   2.589   9.634  0.00  0.00    +0.000 HD
ENDBRANCH   1   8
BRANCH   4  12
ATOM     12  N   UNL     1      46.855   6.979  13.478  0.00  0.00    +0.000 N 
ATOM     13  H   UNL     1      47.801   6.692  13.725  0.00  0.00    +0.000 HD
BRANCH  12  14
ATOM     14  C   UNL     1      46.833   8.285  12.832  0.00  0.00    +0.000 C 
BRANCH  14  15
ATOM     15  C   UNL     1      48.187   8.581  12.228  0.00  0.00    +0.000 A 
ATOM     16  C   UNL     1      48.532   9.882  11.839  0.00  0.00    +0.000 A 
ATOM     17  C   UNL     1      49.813  10.162  11.358  0.00  0.00    +0.000 A 
ATOM     18  C   UNL     1      50.762   9.146  11.259  0.00  0.00    +0.000 A 
ATOM     19  C   UNL     1      50.430   7.846  11.631  0.00  0.00    +0.000 A 
ATOM     20  C   UNL     1      49.150   7.565  12.112  0.00  0.00    +0.000 A 
ENDBRANCH  14  15
ENDBRANCH  12  14
ENDBRANCH   4  12
TORSDOF 4
ENDMDL
MODEL 9
REMARK VINA RESULT:    -5.248      4.155      6.787
REMARK INTER + INTRA:          -6.990
REMARK INTER:                  -6.634
REMARK INTRA:                  -0.356
REMARK UNBOUND:                -0.515
REMARK  Name = 
REMARK  4 active torsions:
REMARK  status: ('A' for Active; 'I' for Inactive)
REMARK    1  A    between atoms: C_2  and  C_4
REMARK    2  A    between atoms: C_7  and  N_8
REMARK    3  A    between atoms: N_8  and  C_9
REMARK    4  A    between atoms: C_9  and  C_10
REMARK                            x       y       z     vdW  Elec       q    Type
REMARK                         _______ _______ _______ _____ _____    ______ ____
ROOT
ATOM      1  C   UNL     1      49.187   7.126  13.881  0.00  0.00    +0.000 A 
ATOM      2  C   UNL     1      49.010   8.035  12.848  0.00  0.00    +0.000 A 
ATOM      3  C   UNL     1      47.956   7.825  11.961  0.00  0.00    +0.000 A 
ATOM      4  C   UNL     1      47.084   6.748  12.136  0.00  0.00    +0.000 A 
ATOM      5  C   UNL     1      47.366   5.888  13.200  0.00  0.00    +0.000 A 
ATOM      6  N   UNL     1      48.392   6.038  14.076  0.00  0.00    +0.000 NA
ENDROOT
BRANCH   1   8
ATOM      7  N   UNL     1      51.107   8.402  14.624  0.00  0.00    +0.000 N 
ATOM      8  C   UNL     1      50.309   7.314  14.854  0.00  0.00    +0.000 C 
ATOM      9  O   UNL     1      50.505   6.556  15.795  0.00  0.00    +0.000 OA
ATOM     10  H   UNL     1      51.879   8.595  15.244  0.00  0.00    +0.000 HD
ATOM     11  H   UNL     1      50.910   9.007  13.834  0.00  0.00    +0.000 HD
ENDBRANCH   1   8
BRANCH   4  12
ATOM     12  N   UNL     1      46.031   6.600  11.231  0.00  0.00    +0.000 N 
ATOM     13  H   UNL     1      46.362   6.610  10.268  0.00  0.00    +0.000 HD
BRANCH  12  14
ATOM     14  C   UNL     1      45.042   5.553  11.456  0.00  0.00    +0.000 C 
BRANCH  14  15
ATOM     15  C   UNL     1      45.105   4.540  10.335  0.00  0.00    +0.000 A 
ATOM     16  C   UNL     1      44.552   3.262  10.491  0.00  0.00    +0.000 A 
ATOM     17  C   UNL     1      44.540   2.361   9.423  0.00  0.00    +0.000 A 
ATOM     18  C   UNL     1      45.082   2.725   8.192  0.00  0.00    +0.000 A 
ATOM     19  C   UNL     1      45.645   3.987   8.027  0.00  0.00    +0.000 A 
ATOM     20  C   UNL     1      45.657   4.890   9.092  0.00  0.00    +0.000 A 
ENDBRANCH  14  15
ENDBRANCH  12  14
ENDBRANCH   4  12
TORSDOF 4
ENDMDL
