MODEL 1
REMARK VINA RESULT:    -8.026      0.000      0.000
REMARK INTER + INTRA:         -11.608
REMARK INTER:                 -10.841
REMARK INTRA:                  -0.768
REMARK UNBOUND:                -0.768
REMARK  Name = 
REMARK  7 active torsions:
REMARK  status: ('A' for Active; 'I' for Inactive)
REMARK    1  A    between atoms: N_1  and  C_2
REMARK    2  A    between atoms: C_2  and  C_3
REMARK    3  A    between atoms: C_3  and  C_4
REMARK    4  A    between atoms: C_7  and  C_8
REMARK    5  A    between atoms: C_8  and  N_9
REMARK    6  A    between atoms: C_15  and  C_16
REMARK    7  A    between atoms: C_16  and  O_17
REMARK                            x       y       z     vdW  Elec       q    Type
REMARK                         _______ _______ _______ _____ _____    ______ ____
ROOT
ATOM      1  C   UNL     1      44.210   4.329  11.708  0.00  0.00    +0.000 C 
ENDROOT
BRANCH   1   2
ATOM      2  N   UNL     1      45.270   4.741  12.620  0.00  0.00    +0.000 N 
ATOM      3  C   UNL     1      46.122   3.863  13.250  0.00  0.00    +0.000 A 
ATOM      4  C   UNL     1      47.132   4.593  13.833  0.00  0.00    +0.000 A 
ATOM      5  C   UNL     1      46.901   5.965  13.536  0.00  0.00    +0.000 A 
ATOM      6  C   UNL     1      47.606   7.153  13.813  0.00  0.00    +0.000 A 
ATOM      7  C   UNL     1      47.115   8.378  13.345  0.00  0.00    +0.000 A 
ATOM      8  C   UNL     1      45.921   8.445  12.623  0.00  0.00    +0.000 A 
ATOM      9  C   UNL     1      45.198   7.268  12.359  0.00  0.00    +0.000 A 
ATOM     10  C   UNL     1      45.714   6.040  12.803  0.00  0.00    +0.000 A 
BRANCH   8  11
ATOM     11  C   UNL     1      45.390   9.767  12.129  0.00  0.00    +0.000 C 
BRANCH  11  12
ATOM     12  O   UNL     1      44.109  10.026  12.688  0.00  0.00    +0.000 OA
ATOM     13  H   UNL     1      43.577  10.433  11.984  0.00  0.00    +0.000 HD
ENDBRANCH  11  12
ENDBRANCH   8  11
ENDBRANCH   1   2
BRANCH   1  17
ATOM     14  C   UNL     1      45.841   3.069   7.898  0.00  0.00    +0.000 A 
ATOM     15  C   UNL     1      45.779   4.427   8.229  0.00  0.00    +0.000 A 
ATOM     16  C   UNL     1      45.222   4.834   9.446  0.00  0.00    +0.000 A 
ATOM     17  C   UNL     1      44.713   3.895  10.356  0.00  0.00    +0.000 A 
ATOM     18  C   UNL     1      44.738   2.537  10.001  0.00  0.00    +0.000 A 
ATOM     19  C   UNL     1      45.296   2.142   8.788  0.00  0.00    +0.000 A 
ATOM     20  F   UNL     1      45.326   0.836   8.490  0.00  0.00    +0.000 F 
BRANCH  14  21
ATOM     21  C   UNL     1      46.478   2.618   6.608  0.00  0.00    +0.000 C 
BRANCH  21  22
ATOM     22  C   UNL     1      47.919   2.146   6.813  0.00  0.00    +0.000 C 
BRANCH  22  23
ATOM     23  N   UNL     1      48.536   1.784   5.536  0.00  0.00    +0.000 NA
ATOM     24  H   UNL     1      48.614   0.767   5.481  0.00  0.00    +0.000 HD
ATOM     25  H   UNL     1      49.490   2.140   5.509  0.00  0.00    +0.000 HD
ENDBRANCH  22  23
ENDBRANCH  21  22
ENDBRANCH  14  21
ENDBRANCH   1  17
TORSDOF 7
ENDMDL
MODEL 2
REMARK VINA RESULT:    -7.279      2.063      3.135
REMARK INTER + INTRA:         -10.600
REMARK INTER:                 -10.210
REMARK INTRA:                  -0.390
REMARK UNBOUND:                -0.768
REMARK  Name = 
REMARK  7 active torsions:
REMARK  status: ('A' for Active; 'I' for Inactive)
REMARK    1  A    between atoms: N_1  and  C_2
REMARK    2  A    between atoms: C_2  and  C_3
REMARK    3  A    between atoms: C_3  and  C_4
REMARK    4  A    between atoms: C_7  and  C_8
REMARK    5  A    between atoms: C_8  and  N_9
REMARK    6  A    between atoms: C_15  and  C_16
REMARK    7  A    between atoms: C_16  and  O_17
REMARK                            x       y       z     vdW  Elec       q    Type
REMARK                         _______ _______ _______ _____ _____    ______ ____
ROOT
ATOM      1  C   UNL     1      44.756   5.181  11.660  0.00  0.00    +0.000 C 
ENDROOT
BRANCH   1   2
ATOM      2  N   UNL     1      45.860   5.988  12.167  0.00  0.00    +0.000 N 
ATOM      3  C   UNL     1      46.143   7.262  11.729  0.00  0.00    +0.000 A 
ATOM      4  C   UNL     1      47.079   7.806  12.578  0.00  0.00    +0.000 A 
ATOM      5  C   UNL     1      47.368   6.840  13.581  0.00  0.00    +0.000 A 
ATOM      6  C   UNL     1      48.191   6.840  14.724  0.00  0.00    +0.000 A 
ATOM      7  C   UNL     1      48.238   5.708  15.547  0.00  0.00    +0.000 A 
ATOM      8  C   UNL     1      47.495   4.566  15.242  0.00  0.00    +0.000 A 
ATOM      9  C   UNL     1      46.685   4.546  14.091  0.00  0.00    +0.000 A 
ATOM     10  C   UNL     1      46.619   5.697  13.288  0.00  0.00    +0.000 A 
BRANCH   8  11
ATOM     11  C   UNL     1      47.554   3.346  16.125  0.00  0.00    +0.000 C 
BRANCH  11  12
ATOM     12  O   UNL     1      46.577   3.432  17.154  0.00  0.00    +0.000 OA
ATOM     13  H   UNL     1      46.057   4.235  16.976  0.00  0.00    +0.000 HD
ENDBRANCH  11  12
ENDBRANCH   8  11
ENDBRANCH   1   2
BRANCH   1  17
ATOM     14  C   UNL     1      45.842   3.114   8.011  0.00  0.00    +0.000 A 
ATOM     15  C   UNL     1      46.069   4.488   8.142  0.00  0.00    +0.000 A 
ATOM     16  C   UNL     1      45.687   5.160   9.308  0.00  0.00    +0.000 A 
ATOM     17  C   UNL     1      45.070   4.475  10.366  0.00  0.00    +0.000 A 
ATOM     18  C   UNL     1      44.805   3.106  10.213  0.00  0.00    +0.000 A 
ATOM     19  C   UNL     1      45.190   2.445   9.049  0.00  0.00    +0.000 A 
ATOM     20  F   UNL     1      44.944   1.132   8.944  0.00  0.00    +0.000 F 
BRANCH  14  21
ATOM     21  C   UNL     1      46.287   2.372   6.777  0.00  0.00    +0.000 C 
BRANCH  21  22
ATOM     22  C   UNL     1      47.662   1.724   6.960  0.00  0.00    +0.000 C 
BRANCH  22  23
ATOM     23  N   UNL     1      48.456   1.831   5.735  0.00  0.00    +0.000 NA
ATOM     24  H   UNL     1      49.170   1.100   5.736  0.00  0.00    +0.000 HD
ATOM     25  H   UNL     1      48.961   2.715   5.735  0.00  0.00    +0.000 HD
ENDBRANCH  22  23
ENDBRANCH  21  22
ENDBRANCH  14  21
ENDBRANCH   1  17
TORSDOF 7
ENDMDL
MODEL 3
REMARK VINA RESULT:    -7.198      1.850      2.008
REMARK INTER + INTRA:         -10.490
REMARK INTER:                  -9.701
REMARK INTRA:                  -0.789
REMARK UNBOUND:                -0.768
REMARK  Name = 
REMARK  7 active torsions:
REMARK  status: ('A' for Active; 'I' for Inactive)
REMARK    1  A    between atoms: N_1  and  C_2
REMARK    2  A    between atoms: C_2  and  C_3
REMARK    3  A    between atoms: C_3  and  C_4
REMARK    4  A    between atoms: C_7  and  C_8
REMARK    5  A    between atoms: C_8  and  N_9
REMARK    6  A    between atoms: C_15  and  C_16
REMARK    7  A    between atoms: C_16  and  O_17
REMARK                            x       y       z     vdW  Elec       q    Type
REMARK                         _______ _______ _______ _____ _____    ______ ____
ROOT
ATOM      1  C   UNL     1      44.348   5.327  10.642  0.00  0.00    +0.000 C 
ENDROOT
BRANCH   1   2
ATOM      2  N   UNL     1      45.022   5.260  11.933  0.00  0.00    +0.000 N 
ATOM      3  C   UNL     1      44.696   4.359  12.922  0.00  0.00    +0.000 A 
ATOM      4  C   UNL     1      45.674   4.414  13.887  0.00  0.00    +0.000 A 
ATOM      5  C   UNL     1      46.643   5.367  13.470  0.00  0.00    +0.000 A 
ATOM      6  C   UNL     1      47.868   5.809  14.006  0.00  0.00    +0.000 A 
ATOM      7  C   UNL     1      48.622   6.769  13.319  0.00  0.00    +0.000 A 
ATOM      8  C   UNL     1      48.168   7.313  12.116  0.00  0.00    +0.000 A 
ATOM      9  C   UNL     1      46.936   6.895  11.581  0.00  0.00    +0.000 A 
ATOM     10  C   UNL     1      46.201   5.908  12.259  0.00  0.00    +0.000 A 
BRANCH   8  11
ATOM     11  C   UNL     1      48.978   8.353  11.384  0.00  0.00    +0.000 C 
BRANCH  11  12
ATOM     12  O   UNL     1      50.311   8.380  11.878  0.00  0.00    +0.000 OA
ATOM     13  H   UNL     1      50.248   8.315  12.846  0.00  0.00    +0.000 HD
ENDBRANCH  11  12
ENDBRANCH   8  11
ENDBRANCH   1   2
BRANCH   1  17
ATOM     14  C   UNL     1      46.140   2.583   7.809  0.00  0.00    +0.000 A 
ATOM     15  C   UNL     1      46.427   3.952   7.750  0.00  0.00    +0.000 A 
ATOM     16  C   UNL     1      45.821   4.840   8.645  0.00  0.00    +0.000 A 
ATOM     17  C   UNL     1      44.917   4.383   9.615  0.00  0.00    +0.000 A 
ATOM     18  C   UNL     1      44.599   3.016   9.642  0.00  0.00    +0.000 A 
ATOM     19  C   UNL     1      45.207   2.138   8.748  0.00  0.00    +0.000 A 
ATOM     20  F   UNL     1      44.900   0.836   8.817  0.00  0.00    +0.000 F 
BRANCH  14  21
ATOM     21  C   UNL     1      46.818   1.612   6.877  0.00  0.00    +0.000 C 
BRANCH  21  22
ATOM     22  C   UNL     1      48.226   2.072   6.493  0.00  0.00    +0.000 C 
BRANCH  22  23
ATOM     23  N   UNL     1      48.286   2.441   5.077  0.00  0.00    +0.000 NA
ATOM     24  H   UNL     1      47.480   2.041   4.595  0.00  0.00    +0.000 HD
ATOM     25  H   UNL     1      49.108   2.014   4.652  0.00  0.00    +0.000 HD
ENDBRANCH  22  23
ENDBRANCH  21  22
ENDBRANCH  14  21
ENDBRANCH   1  17
TORSDOF 7
ENDMDL
MODEL 4
REMARK VINA RESULT:    -6.523      3.356      6.952
REMARK INTER + INTRA:          -9.578
REMARK INTER:                  -8.956
REMARK INTRA:                  -0.622
REMARK UNBOUND:                -0.768
REMARK  Name = 
REMARK  7 active torsions:
REMARK  status: ('A' for Active; 'I' for Inactive)
REMARK    1  A    between atoms: N_1  and  C_2
REMARK    2  A    between atoms: C_2  and  C_3
REMARK    3  A    between atoms: C_3  and  C_4
REMARK    4  A    between atoms: C_7  and  C_8
REMARK    5  A    between atoms: C_8  and  N_9
REMARK    6  A    between atoms: C_15  and  C_16
REMARK    7  A    between atoms: C_16  and  O_17
REMARK                            x       y       z     vdW  Elec       q    Type
REMARK                         _______ _______ _______ _____ _____    ______ ____
ROOT
ATOM      1  C   UNL     1      44.036   6.413  10.972  0.00  0.00    +0.000 C 
ENDROOT
BRANCH   1   2
ATOM      2  N   UNL     1      44.071   4.956  10.992  0.00  0.00    +0.000 N 
ATOM      3  C   UNL     1      43.367   4.186  11.890  0.00  0.00    +0.000 A 
ATOM      4  C   UNL     1      43.437   2.876  11.475  0.00  0.00    +0.000 A 
ATOM      5  C   UNL     1      44.195   2.843  10.272  0.00  0.00    +0.000 A 
ATOM      6  C   UNL     1      44.555   1.818   9.376  0.00  0.00    +0.000 A 
ATOM      7  C   UNL     1      45.307   2.124   8.235  0.00  0.00    +0.000 A 
ATOM      8  C   UNL     1      45.727   3.431   7.980  0.00  0.00    +0.000 A 
ATOM      9  C   UNL     1      45.391   4.460   8.878  0.00  0.00    +0.000 A 
ATOM     10  C   UNL     1      44.609   4.150  10.003  0.00  0.00    +0.000 A 
BRANCH   8  11
ATOM     11  C   UNL     1      46.544   3.756   6.755  0.00  0.00    +0.000 C 
BRANCH  11  12
ATOM     12  O   UNL     1      47.862   3.238   6.888  0.00  0.00    +0.000 OA
ATOM     13  H   UNL     1      47.776   2.372   7.321  0.00  0.00    +0.000 HD
ENDBRANCH  11  12
ENDBRANCH   8  11
ENDBRANCH   1   2
BRANCH   1  17
ATOM     14  C   UNL     1      47.342   8.184  13.141  0.00  0.00    +0.000 A 
ATOM     15  C   UNL     1      46.156   8.901  12.945  0.00  0.00    +0.000 A 
ATOM     16  C   UNL     1      45.103   8.340  12.216  0.00  0.00    +0.000 A 
ATOM     17  C   UNL     1      45.210   7.054  11.666  0.00  0.00    +0.000 A 
ATOM     18  C   UNL     1      46.417   6.356  11.827  0.00  0.00    +0.000 A 
ATOM     19  C   UNL     1      47.461   6.922  12.556  0.00  0.00    +0.000 A 
ATOM     20  F   UNL     1      48.591   6.219  12.712  0.00  0.00    +0.000 F 
BRANCH  14  21
ATOM     21  C   UNL     1      48.467   8.763  13.960  0.00  0.00    +0.000 C 
BRANCH  21  22
ATOM     22  C   UNL     1      48.422   8.288  15.414  0.00  0.00    +0.000 C 
BRANCH  22  23
ATOM     23  N   UNL     1      47.725   9.259  16.258  0.00  0.00    +0.000 NA
ATOM     24  H   UNL     1      47.048   9.771  15.688  0.00  0.00    +0.000 HD
ATOM     25  H   UNL     1      48.390   9.954  16.594  0.00  0.00    +0.000 HD
ENDBRANCH  22  23
ENDBRANCH  21  22
ENDBRANCH  14  21
ENDBRANCH   1  17
TORSDOF 7
ENDMDL
MODEL 5
REMARK VINA RESULT:    -6.269      3.507      6.459
REMARK INTER + INTRA:          -9.236
REMARK INTER:                  -8.549
REMARK INTRA:                  -0.687
REMARK UNBOUND:                -0.768
REMARK  Name = 
REMARK  7 active torsions:
REMARK  status: ('A' for Active; 'I' for Inactive)
REMARK    1  A    between atoms: N_1  and  C_2
REMARK    2  A    between atoms: C_2  and  C_3
REMARK    3  A    between atoms: C_3  and  C_4
REMARK    4  A    between atoms: C_7  and  C_8
REMARK    5  A    between atoms: C_8  and  N_9
REMARK    6  A    between atoms: C_15  and  C_16
REMARK    7  A    between atoms: C_16  and  O_17
REMARK                            x       y       z     vdW  Elec       q    Type
REMARK                         _______ _______ _______ _____ _____    ______ ____
ROOT
ATOM      1  C   UNL     1      44.396   6.502  11.481  0.00  0.00    +0.000 C 
ENDROOT
BRANCH   1   2
ATOM      2  N   UNL     1      44.252   5.051  11.472  0.00  0.00    +0.000 N 
ATOM      3  C   UNL     1      43.538   4.347  12.416  0.00  0.00    +0.000 A 
ATOM      4  C   UNL     1      43.411   3.050  11.973  0.00  0.00    +0.000 A 
ATOM      5  C   UNL     1      44.052   2.960  10.707  0.00  0.00    +0.000 A 
ATOM      6  C   UNL     1      44.204   1.924   9.764  0.00  0.00    +0.000 A 
ATOM      7  C   UNL     1      44.888   2.169   8.567  0.00  0.00    +0.000 A 
ATOM      8  C   UNL     1      45.442   3.422   8.298  0.00  0.00    +0.000 A 
ATOM      9  C   UNL     1      45.315   4.458   9.241  0.00  0.00    +0.000 A 
ATOM     10  C   UNL     1      44.600   4.214  10.426  0.00  0.00    +0.000 A 
BRANCH   8  11
ATOM     11  C   UNL     1      46.184   3.680   7.012  0.00  0.00    +0.000 C 
BRANCH  11  12
ATOM     12  O   UNL     1      47.264   4.578   7.235  0.00  0.00    +0.000 OA
ATOM     13  H   UNL     1      48.048   4.175   6.825  0.00  0.00    +0.000 HD
ENDBRANCH  11  12
ENDBRANCH   8  11
ENDBRANCH   1   2
BRANCH   1  17
ATOM     14  C   UNL     1      48.372   7.820  12.585  0.00  0.00    +0.000 A 
ATOM     15  C   UNL     1      48.023   6.467  12.672  0.00  0.00    +0.000 A 
ATOM     16  C   UNL     1      46.729   6.049  12.346  0.00  0.00    +0.000 A 
ATOM     17  C   UNL     1      45.755   6.970  11.930  0.00  0.00    +0.000 A 
ATOM     18  C   UNL     1      46.097   8.331  11.887  0.00  0.00    +0.000 A 
ATOM     19  C   UNL     1      47.389   8.738  12.211  0.00  0.00    +0.000 A 
ATOM     20  F   UNL     1      47.689  10.042  12.137  0.00  0.00    +0.000 F 
BRANCH  14  21
ATOM     21  C   UNL     1      49.775   8.276  12.894  0.00  0.00    +0.000 C 
BRANCH  21  22
ATOM     22  C   UNL     1      50.575   8.573  11.623  0.00  0.00    +0.000 C 
BRANCH  22  23
ATOM     23  N   UNL     1      51.261   7.371  11.146  0.00  0.00    +0.000 NA
ATOM     24  H   UNL     1      52.008   7.132  11.800  0.00  0.00    +0.000 HD
ATOM     25  H   UNL     1      51.719   7.573  10.259  0.00  0.00    +0.000 HD
ENDBRANCH  22  23
ENDBRANCH  21  22
ENDBRANCH  14  21
ENDBRANCH   1  17
TORSDOF 7
ENDMDL
MODEL 6
REMARK VINA RESULT:    -5.920      1.615      2.528
REMARK INTER + INTRA:          -8.764
REMARK INTER:                  -8.316
REMARK INTRA:                  -0.447
REMARK UNBOUND:                -0.768
REMARK  Name = 
REMARK  7 active torsions:
REMARK  status: ('A' for Active; 'I' for Inactive)
REMARK    1  A    between atoms: N_1  and  C_2
REMARK    2  A    between atoms: C_2  and  C_3
REMARK    3  A    between atoms: C_3  and  C_4
REMARK    4  A    between atoms: C_7  and  C_8
REMARK    5  A    between atoms: C_8  and  N_9
REMARK    6  A    between atoms: C_15  and  C_16
REMARK    7  A    between atoms: C_16  and  O_17
REMARK                            x       y       z     vdW  Elec       q    Type
REMARK                         _______ _______ _______ _____ _____    ______ ____
ROOT
ATOM      1  C   UNL     1      44.864   5.798  12.653  0.00  0.00    +0.000 C 
ENDROOT
BRANCH   1   2
ATOM      2  N   UNL     1      45.678   7.001  12.785  0.00  0.00    +0.000 N 
ATOM      3  C   UNL     1      46.951   7.011  13.307  0.00  0.00    +0.000 A 
ATOM      4  C   UNL     1      47.504   8.247  13.060  0.00  0.00    +0.000 A 
ATOM      5  C   UNL     1      46.544   9.016  12.346  0.00  0.00    +0.000 A 
ATOM      6  C   UNL     1      46.553  10.308  11.787  0.00  0.00    +0.000 A 
ATOM      7  C   UNL     1      45.425  10.778  11.103  0.00  0.00    +0.000 A 
ATOM      8  C   UNL     1      44.278   9.990  10.982  0.00  0.00    +0.000 A 
ATOM      9  C   UNL     1      44.249   8.706  11.554  0.00  0.00    +0.000 A 
ATOM     10  C   UNL     1      45.396   8.230  12.211  0.00  0.00    +0.000 A 
BRANCH   8  11
ATOM     11  C   UNL     1      43.062  10.502  10.252  0.00  0.00    +0.000 C 
BRANCH  11  12
ATOM     12  O   UNL     1      43.238  10.374   8.847  0.00  0.00    +0.000 OA
ATOM     13  H   UNL     1      42.986   9.464   8.618  0.00  0.00    +0.000 HD
ENDBRANCH  11  12
ENDBRANCH   8  11
ENDBRANCH   1   2
BRANCH   1  17
ATOM     14  C   UNL     1      45.367   3.823   8.830  0.00  0.00    +0.000 A 
ATOM     15  C   UNL     1      45.871   5.112   9.034  0.00  0.00    +0.000 A 
ATOM     16  C   UNL     1      45.679   5.761  10.259  0.00  0.00    +0.000 A 
ATOM     17  C   UNL     1      44.979   5.139  11.303  0.00  0.00    +0.000 A 
ATOM     18  C   UNL     1      44.436   3.863  11.079  0.00  0.00    +0.000 A 
ATOM     19  C   UNL     1      44.634   3.224   9.858  0.00  0.00    +0.000 A 
ATOM     20  F   UNL     1      44.124   1.997   9.684  0.00  0.00    +0.000 F 
BRANCH  14  21
ATOM     21  C   UNL     1      45.604   3.098   7.530  0.00  0.00    +0.000 C 
BRANCH  21  22
ATOM     22  C   UNL     1      46.762   3.708   6.736  0.00  0.00    +0.000 C 
BRANCH  22  23
ATOM     23  N   UNL     1      47.943   2.846   6.791  0.00  0.00    +0.000 NA
ATOM     24  H   UNL     1      48.655   3.293   7.371  0.00  0.00    +0.000 HD
ATOM     25  H   UNL     1      48.349   2.768   5.859  0.00  0.00    +0.000 HD
ENDBRANCH  22  23
ENDBRANCH  21  22
ENDBRANCH  14  21
ENDBRANCH   1  17
TORSDOF 7
ENDMDL
MODEL 7
REMARK VINA RESULT:    -5.913      4.279      7.692
REMARK INTER + INTRA:          -8.754
REMARK INTER:                  -8.011
REMARK INTRA:                  -0.743
REMARK UNBOUND:                -0.768
REMARK  Name = 
REMARK  7 active torsions:
REMARK  status: ('A' for Active; 'I' for Inactive)
REMARK    1  A    between atoms: N_1  and  C_2
REMARK    2  A    between atoms: C_2  and  C_3
REMARK    3  A    between atoms: C_3  and  C_4
REMARK    4  A    between atoms: C_7  and  C_8
REMARK    5  A    between atoms: C_8  and  N_9
REMARK    6  A    between atoms: C_15  and  C_16
REMARK    7  A    between atoms: C_16  and  O_17
REMARK                            x       y       z     vdW  Elec       q    Type
REMARK                         _______ _______ _______ _____ _____    ______ ____
ROOT
ATOM      1  C   UNL     1      47.775   5.844  13.240  0.00  0.00    +0.000 C 
ENDROOT
BRANCH   1   2
ATOM      2  N   UNL     1      46.541   6.515  12.849  0.00  0.00    +0.000 N 
ATOM      3  C   UNL     1      46.440   7.871  12.635  0.00  0.00    +0.000 A 
ATOM      4  C   UNL     1      45.218   8.121  12.055  0.00  0.00    +0.000 A 
ATOM      5  C   UNL     1      44.553   6.874  11.891  0.00  0.00    +0.000 A 
ATOM      6  C   UNL     1      43.322   6.495  11.322  0.00  0.00    +0.000 A 
ATOM      7  C   UNL     1      42.957   5.144  11.290  0.00  0.00    +0.000 A 
ATOM      8  C   UNL     1      43.788   4.162  11.834  0.00  0.00    +0.000 A 
ATOM      9  C   UNL     1      45.011   4.530  12.424  0.00  0.00    +0.000 A 
ATOM     10  C   UNL     1      45.384   5.885  12.423  0.00  0.00    +0.000 A 
BRANCH   8  11
ATOM     11  C   UNL     1      43.388   2.709  11.807  0.00  0.00    +0.000 C 
BRANCH  11  12
ATOM     12  O   UNL     1      43.754   2.118  10.566  0.00  0.00    +0.000 OA
ATOM     13  H   UNL     1      43.976   2.850   9.966  0.00  0.00    +0.000 HD
ENDBRANCH  11  12
ENDBRANCH   8  11
ENDBRANCH   1   2
BRANCH   1  17
ATOM     14  C   UNL     1      48.026   5.440  17.546  0.00  0.00    +0.000 A 
ATOM     15  C   UNL     1      48.690   6.483  16.891  0.00  0.00    +0.000 A 
ATOM     16  C   UNL     1      48.635   6.592  15.498  0.00  0.00    +0.000 A 
ATOM     17  C   UNL     1      47.918   5.663  14.729  0.00  0.00    +0.000 A 
ATOM     18  C   UNL     1      47.290   4.593  15.385  0.00  0.00    +0.000 A 
ATOM     19  C   UNL     1      47.349   4.493  16.773  0.00  0.00    +0.000 A 
ATOM     20  F   UNL     1      46.718   3.473  17.371  0.00  0.00    +0.000 F 
BRANCH  14  21
ATOM     21  C   UNL     1      48.044   5.336  19.049  0.00  0.00    +0.000 C 
BRANCH  21  22
ATOM     22  C   UNL     1      49.041   4.284  19.540  0.00  0.00    +0.000 C 
BRANCH  22  23
ATOM     23  N   UNL     1      48.348   3.174  20.195  0.00  0.00    +0.000 NA
ATOM     24  H   UNL     1      48.957   2.353  20.191  0.00  0.00    +0.000 HD
ATOM     25  H   UNL     1      47.529   2.917  19.648  0.00  0.00    +0.000 HD
ENDBRANCH  22  23
ENDBRANCH  21  22
ENDBRANCH  14  21
ENDBRANCH   1  17
TORSDOF 7
ENDMDL
MODEL 8
REMARK VINA RESULT:    -5.762      4.728      6.795
REMARK INTER + INTRA:          -8.550
REMARK INTER:                  -7.672
REMARK INTRA:                  -0.879
REMARK UNBOUND:                -0.768
REMARK  Name = 
REMARK  7 active torsions:
REMARK  status: ('A' for Active; 'I' for Inactive)
REMARK    1  A    between atoms: N_1  and  C_2
REMARK    2  A    between atoms: C_2  and  C_3
REMARK    3  A    between atoms: C_3  and  C_4
REMARK    4  A    between atoms: C_7  and  C_8
REMARK    5  A    between atoms: C_8  and  N_9
REMARK    6  A    between atoms: C_15  and  C_16
REMARK    7  A    between atoms: C_16  and  O_17
REMARK                            x       y       z     vdW  Elec       q    Type
REMARK                         _______ _______ _______ _____ _____    ______ ____
ROOT
ATOM      1  C   UNL     1      49.313   7.477  14.335  0.00  0.00    +0.000 C 
ENDROOT
BRANCH   1   2
ATOM      2  N   UNL     1      49.087   7.719  15.755  0.00  0.00    +0.000 N 
ATOM      3  C   UNL     1      49.055   8.973  16.323  0.00  0.00    +0.000 A 
ATOM      4  C   UNL     1      48.587   8.846  17.610  0.00  0.00    +0.000 A 
ATOM      5  C   UNL     1      48.305   7.470  17.835  0.00  0.00    +0.000 A 
ATOM      6  C   UNL     1      47.768   6.751  18.920  0.00  0.00    +0.000 A 
ATOM      7  C   UNL     1      47.585   5.366  18.815  0.00  0.00    +0.000 A 
ATOM      8  C   UNL     1      47.948   4.680  17.655  0.00  0.00    +0.000 A 
ATOM      9  C   UNL     1      48.505   5.384  16.572  0.00  0.00    +0.000 A 
ATOM     10  C   UNL     1      48.654   6.777  16.673  0.00  0.00    +0.000 A 
BRANCH   8  11
ATOM     11  C   UNL     1      47.759   3.188  17.548  0.00  0.00    +0.000 C 
BRANCH  11  12
ATOM     12  O   UNL     1      46.376   2.859  17.604  0.00  0.00    +0.000 OA
ATOM     13  H   UNL     1      45.889   3.681  17.423  0.00  0.00    +0.000 HD
ENDBRANCH  11  12
ENDBRANCH   8  11
ENDBRANCH   1   2
BRANCH   1  17
ATOM     14  C   UNL     1      45.572   7.075  12.187  0.00  0.00    +0.000 A 
ATOM     15  C   UNL     1      46.526   6.052  12.148  0.00  0.00    +0.000 A 
ATOM     16  C   UNL     1      47.747   6.198  12.815  0.00  0.00    +0.000 A 
ATOM     17  C   UNL     1      48.042   7.367  13.533  0.00  0.00    +0.000 A 
ATOM     18  C   UNL     1      47.100   8.408  13.534  0.00  0.00    +0.000 A 
ATOM     19  C   UNL     1      45.887   8.253  12.868  0.00  0.00    +0.000 A 
ATOM     20  F   UNL     1      44.999   9.257  12.908  0.00  0.00    +0.000 F 
BRANCH  14  21
ATOM     21  C   UNL     1      44.237   6.911  11.507  0.00  0.00    +0.000 C 
BRANCH  21  22
ATOM     22  C   UNL     1      43.540   5.611  11.914  0.00  0.00    +0.000 C 
BRANCH  22  23
ATOM     23  N   UNL     1      43.009   5.708  13.275  0.00  0.00    +0.000 NA
ATOM     24  H   UNL     1      43.256   6.620  13.664  0.00  0.00    +0.000 HD
ATOM     25  H   UNL     1      43.467   5.017  13.866  0.00  0.00    +0.000 HD
ENDBRANCH  22  23
ENDBRANCH  21  22
ENDBRANCH  14  21
ENDBRANCH   1  17
TORSDOF 7
ENDMDL
MODEL 9
REMARK VINA RESULT:    -5.653      3.477      4.757
REMARK INTER + INTRA:          -8.403
REMARK INTER:                  -7.842
REMARK INTRA:                  -0.561
REMARK UNBOUND:                -0.768
REMARK  Name = 
REMARK  7 active torsions:
REMARK  status: ('A' for Active; 'I' for Inactive)
REMARK    1  A    between atoms: N_1  and  C_2
REMARK    2  A    between atoms: C_2  and  C_3
REMARK    3  A    between atoms: C_3  and  C_4
REMARK    4  A    between atoms: C_7  and  C_8
REMARK    5  A    between atoms: C_8  and  N_9
REMARK    6  A    between atoms: C_15  and  C_16
REMARK    7  A    between atoms: C_16  and  O_17
REMARK                            x       y       z     vdW  Elec       q    Type
REMARK                         _______ _______ _______ _____ _____    ______ ____
ROOT
ATOM      1  C   UNL     1      47.264   6.869  13.050  0.00  0.00    +0.000 C 
ENDROOT
BRANCH   1   2
ATOM      2  N   UNL     1      47.496   8.154  12.402  0.00  0.00    +0.000 N 
ATOM      3  C   UNL     1      46.596   9.196  12.424  0.00  0.00    +0.000 A 
ATOM      4  C   UNL     1      47.229  10.315  11.934  0.00  0.00    +0.000 A 
ATOM      5  C   UNL     1      48.568   9.953  11.617  0.00  0.00    +0.000 A 
ATOM      6  C   UNL     1      49.682  10.667  11.137  0.00  0.00    +0.000 A 
ATOM      7  C   UNL     1      50.903  10.008  10.949  0.00  0.00    +0.000 A 
ATOM      8  C   UNL     1      51.030   8.642  11.211  0.00  0.00    +0.000 A 
ATOM      9  C   UNL     1      49.918   7.913  11.671  0.00  0.00    +0.000 A 
ATOM     10  C   UNL     1      48.706   8.589  11.888  0.00  0.00    +0.000 A 
BRANCH   8  11
ATOM     11  C   UNL     1      52.343   7.933  10.999  0.00  0.00    +0.000 C 
BRANCH  11  12
ATOM     12  O   UNL     1      52.122   6.622  10.495  0.00  0.00    +0.000 OA
ATOM     13  H   UNL     1      52.240   6.673   9.531  0.00  0.00    +0.000 HD
ENDBRANCH  11  12
ENDBRANCH   8  11
ENDBRANCH   1   2
BRANCH   1  17
ATOM     14  C   UNL     1      44.901   4.102  10.699  0.00  0.00    +0.000 A 
ATOM     15  C   UNL     1      45.415   5.267  10.118  0.00  0.00    +0.000 A 
ATOM     16  C   UNL     1      46.150   6.175  10.888  0.00  0.00    +0.000 A 
ATOM     17  C   UNL     1      46.385   5.942  12.251  0.00  0.00    +0.000 A 
ATOM     18  C   UNL     1      45.831   4.794  12.839  0.00  0.00    +0.000 A 
ATOM     19  C   UNL     1      45.102   3.894  12.065  0.00  0.00    +0.000 A 
ATOM     20  F   UNL     1      44.606   2.796  12.651  0.00  0.00    +0.000 F 
BRANCH  14  21
ATOM     21  C   UNL     1      44.144   3.097   9.869  0.00  0.00    +0.000 C 
BRANCH  21  22
ATOM     22  C   UNL     1      44.926   2.674   8.624  0.00  0.00    +0.000 C 
BRANCH  22  23
ATOM     23  N   UNL     1      45.656   1.428   8.864  0.00  0.00    +0.000 NA
ATOM     24  H   UNL     1      46.653   1.592   8.713  0.00  0.00    +0.000 HD
ATOM     25  H   UNL     1      45.378   0.734   8.172  0.00  0.00    +0.000 HD
ENDBRANCH  22  23
ENDBRANCH  21  22
ENDBRANCH  14  21
ENDBRANCH   1  17
TORSDOF 7
ENDMDL
