MODEL 1
REMARK VINA RESULT:    -8.677      0.000      0.000
REMARK INTER + INTRA:         -10.377
REMARK INTER:                 -10.452
REMARK INTRA:                   0.075
REMARK UNBOUND:                 0.075
REMARK  Name = 
REMARK  5 active torsions:
REMARK  status: ('A' for Active; 'I' for Inactive)
REMARK    1  A    between atoms: C_1  and  C_2
REMARK    2  A    between atoms: C_4  and  C_5
REMARK    3  A    between atoms: C_5  and  N_6
REMARK    4  A    between atoms: C_10  and  C_11
REMARK    5  A    between atoms: C_20  and  O_21
REMARK                            x       y       z     vdW  Elec       q    Type
REMARK                         _______ _______ _______ _____ _____    ______ ____
ROOT
ATOM      1  N   UNL     1      44.471   5.220   9.779  0.00  0.00    +0.000 N 
ATOM      2  C   UNL     1      45.129   4.205   9.108  0.00  0.00    +0.000 A 
ATOM      3  C   UNL     1      45.194   2.887   9.539  0.00  0.00    +0.000 A 
ATOM      4  C   UNL     1      45.885   1.950   8.764  0.00  0.00    +0.000 A 
ATOM      5  C   UNL     1      46.484   2.358   7.571  0.00  0.00    +0.000 A 
ATOM      6  C   UNL     1      46.365   3.688   7.212  0.00  0.00    +0.000 A 
ATOM      7  N   UNL     1      45.702   4.606   7.950  0.00  0.00    +0.000 NA
ATOM      8  H   UNL     1      44.648   6.089   9.285  0.00  0.00    +0.000 HD
ENDROOT
BRANCH   5   9
ATOM      9  C   UNL     1      47.254   1.452   6.692  0.00  0.00    +0.000 C 
ATOM     10  N   UNL     1      48.252   2.017   5.943  0.00  0.00    +0.000 N 
ATOM     11  O   UNL     1      47.026   0.258   6.647  0.00  0.00    +0.000 OA
ATOM     12  H   UNL     1      48.603   2.952   6.098  0.00  0.00    +0.000 HD
ATOM     13  H   UNL     1      48.820   1.384   5.394  0.00  0.00    +0.000 HD
ENDBRANCH   5   9
BRANCH   1  14
ATOM     14  C   UNL     1      44.039   5.252  11.173  0.00  0.00    +0.000 C 
ATOM     15  C   UNL     1      42.672   5.746  11.602  0.00  0.00    +0.000 C 
ATOM     16  C   UNL     1      42.894   4.279  11.455  0.00  0.00    +0.000 C 
BRANCH  14  20
ATOM     17  C   UNL     1      47.666   7.839  13.665  0.00  0.00    +0.000 C 
ATOM     18  C   UNL     1      46.926   6.558  13.409  0.00  0.00    +0.000 A 
ATOM     19  C   UNL     1      45.901   6.501  12.450  0.00  0.00    +0.000 A 
ATOM     20  C   UNL     1      45.184   5.314  12.185  0.00  0.00    +0.000 A 
ATOM     21  C   UNL     1      45.572   4.164  12.894  0.00  0.00    +0.000 A 
ATOM     22  C   UNL     1      46.581   4.201  13.858  0.00  0.00    +0.000 A 
ATOM     23  C   UNL     1      47.239   5.399  14.118  0.00  0.00    +0.000 A 
BRANCH  23  24
ATOM     24  O   UNL     1      48.210   5.455  15.077  0.00  0.00    +0.000 OA
ATOM     25  H   UNL     1      48.639   4.586  15.134  0.00  0.00    +0.000 HD
ENDBRANCH  23  24
ENDBRANCH  14  20
ENDBRANCH   1  14
TORSDOF 4
ENDMDL
MODEL 2
REMARK VINA RESULT:    -7.974      1.700      2.140
REMARK INTER + INTRA:          -9.530
REMARK INTER:                  -8.874
REMARK INTRA:                  -0.656
REMARK UNBOUND:                 0.075
REMARK  Name = 
REMARK  5 active torsions:
REMARK  status: ('A' for Active; 'I' for Inactive)
REMARK    1  A    between atoms: C_1  and  C_2
REMARK    2  A    between atoms: C_4  and  C_5
REMARK    3  A    between atoms: C_5  and  N_6
REMARK    4  A    between atoms: C_10  and  C_11
REMARK    5  A    between atoms: C_20  and  O_21
REMARK                            x       y       z     vdW  Elec       q    Type
REMARK                         _______ _______ _______ _____ _____    ______ ____
ROOT
ATOM      1  N   UNL     1      44.543   4.034  11.235  0.00  0.00    +0.000 N 
ATOM      2  C   UNL     1      45.122   3.746  10.012  0.00  0.00    +0.000 A 
ATOM      3  C   UNL     1      45.620   4.697   9.132  0.00  0.00    +0.000 A 
ATOM      4  C   UNL     1      46.191   4.277   7.927  0.00  0.00    +0.000 A 
ATOM      5  C   UNL     1      46.259   2.912   7.641  0.00  0.00    +0.000 A 
ATOM      6  C   UNL     1      45.746   2.032   8.576  0.00  0.00    +0.000 A 
ATOM      7  N   UNL     1      45.190   2.422   9.745  0.00  0.00    +0.000 NA
ATOM      8  H   UNL     1      44.201   3.164  11.632  0.00  0.00    +0.000 HD
ENDROOT
BRANCH   5   9
ATOM      9  C   UNL     1      46.823   2.367   6.388  0.00  0.00    +0.000 C 
ATOM     10  N   UNL     1      47.044   3.256   5.370  0.00  0.00    +0.000 N 
ATOM     11  O   UNL     1      47.096   1.187   6.270  0.00  0.00    +0.000 OA
ATOM     12  H   UNL     1      47.021   4.259   5.492  0.00  0.00    +0.000 HD
ATOM     13  H   UNL     1      47.492   2.890   4.538  0.00  0.00    +0.000 HD
ENDBRANCH   5   9
BRANCH   1  14
ATOM     14  C   UNL     1      44.007   5.307  11.705  0.00  0.00    +0.000 C 
ATOM     15  C   UNL     1      42.626   5.810  11.332  0.00  0.00    +0.000 C 
ATOM     16  C   UNL     1      42.815   5.131  12.646  0.00  0.00    +0.000 C 
BRANCH  14  20
ATOM     17  C   UNL     1      45.734  10.108  11.879  0.00  0.00    +0.000 C 
ATOM     18  C   UNL     1      45.907   8.651  12.201  0.00  0.00    +0.000 A 
ATOM     19  C   UNL     1      44.942   7.710  11.806  0.00  0.00    +0.000 A 
ATOM     20  C   UNL     1      45.072   6.333  12.094  0.00  0.00    +0.000 A 
ATOM     21  C   UNL     1      46.243   5.930  12.756  0.00  0.00    +0.000 A 
ATOM     22  C   UNL     1      47.211   6.850  13.165  0.00  0.00    +0.000 A 
ATOM     23  C   UNL     1      47.028   8.202  12.897  0.00  0.00    +0.000 A 
BRANCH  23  24
ATOM     24  O   UNL     1      47.954   9.116  13.314  0.00  0.00    +0.000 OA
ATOM     25  H   UNL     1      47.726   9.397  14.216  0.00  0.00    +0.000 HD
ENDBRANCH  23  24
ENDBRANCH  14  20
ENDBRANCH   1  14
TORSDOF 4
ENDMDL
MODEL 3
REMARK VINA RESULT:    -7.673      2.426      6.937
REMARK INTER + INTRA:          -9.167
REMARK INTER:                  -8.700
REMARK INTRA:                  -0.468
REMARK UNBOUND:                 0.075
REMARK  Name = 
REMARK  5 active torsions:
REMARK  status: ('A' for Active; 'I' for Inactive)
REMARK    1  A    between atoms: C_1  and  C_2
REMARK    2  A    between atoms: C_4  and  C_5
REMARK    3  A    between atoms: C_5  and  N_6
REMARK    4  A    between atoms: C_10  and  C_11
REMARK    5  A    between atoms: C_20  and  O_21
REMARK                            x       y       z     vdW  Elec       q    Type
REMARK                         _______ _______ _______ _____ _____    ______ ____
ROOT
ATOM      1  N   UNL     1      44.539   5.372  10.782  0.00  0.00    +0.000 N 
ATOM      2  C   UNL     1      45.357   6.218  11.509  0.00  0.00    +0.000 A 
ATOM      3  C   UNL     1      46.634   5.895  11.948  0.00  0.00    +0.000 A 
ATOM      4  C   UNL     1      47.366   6.843  12.669  0.00  0.00    +0.000 A 
ATOM      5  C   UNL     1      46.803   8.096  12.920  0.00  0.00    +0.000 A 
ATOM      6  C   UNL     1      45.529   8.337  12.440  0.00  0.00    +0.000 A 
ATOM      7  N   UNL     1      44.808   7.431  11.743  0.00  0.00    +0.000 NA
ATOM      8  H   UNL     1      43.642   5.831  10.662  0.00  0.00    +0.000 HD
ENDROOT
BRANCH   5   9
ATOM      9  C   UNL     1      47.484   9.158  13.689  0.00  0.00    +0.000 C 
ATOM     10  N   UNL     1      47.476   9.038  15.054  0.00  0.00    +0.000 N 
ATOM     11  O   UNL     1      48.043  10.089  13.138  0.00  0.00    +0.000 OA
ATOM     12  H   UNL     1      47.204   8.193  15.536  0.00  0.00    +0.000 HD
ATOM     13  H   UNL     1      48.000   9.731  15.573  0.00  0.00    +0.000 HD
ENDBRANCH   5   9
BRANCH   1  14
ATOM     14  C   UNL     1      44.640   3.924  10.631  0.00  0.00    +0.000 C 
ATOM     15  C   UNL     1      44.576   2.965  11.804  0.00  0.00    +0.000 C 
ATOM     16  C   UNL     1      43.344   3.203  11.000  0.00  0.00    +0.000 C 
BRANCH  14  20
ATOM     17  C   UNL     1      46.642   0.261   7.692  0.00  0.00    +0.000 C 
ATOM     18  C   UNL     1      46.320   1.709   7.927  0.00  0.00    +0.000 A 
ATOM     19  C   UNL     1      45.686   2.120   9.111  0.00  0.00    +0.000 A 
ATOM     20  C   UNL     1      45.368   3.472   9.363  0.00  0.00    +0.000 A 
ATOM     21  C   UNL     1      45.757   4.410   8.392  0.00  0.00    +0.000 A 
ATOM     22  C   UNL     1      46.379   4.022   7.204  0.00  0.00    +0.000 A 
ATOM     23  C   UNL     1      46.642   2.675   6.975  0.00  0.00    +0.000 A 
BRANCH  23  24
ATOM     24  O   UNL     1      47.227   2.279   5.806  0.00  0.00    +0.000 OA
ATOM     25  H   UNL     1      46.742   1.511   5.462  0.00  0.00    +0.000 HD
ENDBRANCH  23  24
ENDBRANCH  14  20
ENDBRANCH   1  14
TORSDOF 4
ENDMDL
MODEL 4
REMARK VINA RESULT:    -7.479      2.338      6.933
REMARK INTER + INTRA:          -8.934
REMARK INTER:                  -8.480
REMARK INTRA:                  -0.454
REMARK UNBOUND:                 0.075
REMARK  Name = 
REMARK  5 active torsions:
REMARK  status: ('A' for Active; 'I' for Inactive)
REMARK    1  A    between atoms: C_1  and  C_2
REMARK    2  A    between atoms: C_4  and  C_5
REMARK    3  A    between atoms: C_5  and  N_6
REMARK    4  A    between atoms: C_10  and  C_11
REMARK    5  A    between atoms: C_20  and  O_21
REMARK                            x       y       z     vdW  Elec       q    Type
REMARK                         _______ _______ _______ _____ _____    ______ ____
ROOT
ATOM      1  N   UNL     1      45.577   5.078  11.290  0.00  0.00    +0.000 N 
ATOM      2  C   UNL     1      46.161   4.894  12.530  0.00  0.00    +0.000 A 
ATOM      3  C   UNL     1      46.389   3.657  13.118  0.00  0.00    +0.000 A 
ATOM      4  C   UNL     1      46.998   3.603  14.376  0.00  0.00    +0.000 A 
ATOM      5  C   UNL     1      47.373   4.791  15.006  0.00  0.00    +0.000 A 
ATOM      6  C   UNL     1      47.115   5.979  14.347  0.00  0.00    +0.000 A 
ATOM      7  N   UNL     1      46.528   6.048  13.132  0.00  0.00    +0.000 NA
ATOM      8  H   UNL     1      45.464   6.076  11.142  0.00  0.00    +0.000 HD
ENDROOT
BRANCH   5   9
ATOM      9  C   UNL     1      48.002   4.843  16.343  0.00  0.00    +0.000 C 
ATOM     10  N   UNL     1      47.166   4.759  17.424  0.00  0.00    +0.000 N 
ATOM     11  O   UNL     1      49.207   4.940  16.479  0.00  0.00    +0.000 OA
ATOM     12  H   UNL     1      46.197   4.480  17.358  0.00  0.00    +0.000 HD
ATOM     13  H   UNL     1      47.606   4.728  18.336  0.00  0.00    +0.000 HD
ENDBRANCH   5   9
BRANCH   1  14
ATOM     14  C   UNL     1      44.776   4.134  10.518  0.00  0.00    +0.000 C 
ATOM     15  C   UNL     1      43.630   3.341  11.115  0.00  0.00    +0.000 C 
ATOM     16  C   UNL     1      43.325   4.589  10.358  0.00  0.00    +0.000 C 
BRANCH  14  20
ATOM     17  C   UNL     1      46.548   0.197   7.794  0.00  0.00    +0.000 C 
ATOM     18  C   UNL     1      46.325   1.674   7.951  0.00  0.00    +0.000 A 
ATOM     19  C   UNL     1      45.709   2.187   9.105  0.00  0.00    +0.000 A 
ATOM     20  C   UNL     1      45.483   3.569   9.284  0.00  0.00    +0.000 A 
ATOM     21  C   UNL     1      45.946   4.427   8.273  0.00  0.00    +0.000 A 
ATOM     22  C   UNL     1      46.552   3.937   7.114  0.00  0.00    +0.000 A 
ATOM     23  C   UNL     1      46.723   2.566   6.956  0.00  0.00    +0.000 A 
BRANCH  23  24
ATOM     24  O   UNL     1      47.291   2.071   5.817  0.00  0.00    +0.000 OA
ATOM     25  H   UNL     1      47.138   2.703   5.096  0.00  0.00    +0.000 HD
ENDBRANCH  23  24
ENDBRANCH  14  20
ENDBRANCH   1  14
TORSDOF 4
ENDMDL
MODEL 5
REMARK VINA RESULT:    -7.112      2.391      6.421
REMARK INTER + INTRA:          -8.492
REMARK INTER:                  -7.820
REMARK INTRA:                  -0.672
REMARK UNBOUND:                 0.075
REMARK  Name = 
REMARK  5 active torsions:
REMARK  status: ('A' for Active; 'I' for Inactive)
REMARK    1  A    between atoms: C_1  and  C_2
REMARK    2  A    between atoms: C_4  and  C_5
REMARK    3  A    between atoms: C_5  and  N_6
REMARK    4  A    between atoms: C_10  and  C_11
REMARK    5  A    between atoms: C_20  and  O_21
REMARK                            x       y       z     vdW  Elec       q    Type
REMARK                         _______ _______ _______ _____ _____    ______ ____
ROOT
ATOM      1  N   UNL     1      45.002   6.626  11.604  0.00  0.00    +0.000 N 
ATOM      2  C   UNL     1      46.116   6.678  12.422  0.00  0.00    +0.000 A 
ATOM      3  C   UNL     1      46.723   5.571  13.000  0.00  0.00    +0.000 A 
ATOM      4  C   UNL     1      47.853   5.755  13.803  0.00  0.00    +0.000 A 
ATOM      5  C   UNL     1      48.352   7.045  13.996  0.00  0.00    +0.000 A 
ATOM      6  C   UNL     1      47.691   8.091  13.378  0.00  0.00    +0.000 A 
ATOM      7  N   UNL     1      46.598   7.930  12.599  0.00  0.00    +0.000 NA
ATOM      8  H   UNL     1      44.728   7.579  11.386  0.00  0.00    +0.000 HD
ENDROOT
BRANCH   5   9
ATOM      9  C   UNL     1      49.525   7.349  14.842  0.00  0.00    +0.000 C 
ATOM     10  N   UNL     1      50.025   8.622  14.773  0.00  0.00    +0.000 N 
ATOM     11  O   UNL     1      50.016   6.514  15.579  0.00  0.00    +0.000 OA
ATOM     12  H   UNL     1      49.534   9.390  14.336  0.00  0.00    +0.000 HD
ATOM     13  H   UNL     1      50.786   8.845  15.404  0.00  0.00    +0.000 HD
ENDBRANCH   5   9
BRANCH   1  14
ATOM     14  C   UNL     1      44.037   5.541  11.457  0.00  0.00    +0.000 C 
ATOM     15  C   UNL     1      42.996   5.215  12.510  0.00  0.00    +0.000 C 
ATOM     16  C   UNL     1      42.599   6.046  11.338  0.00  0.00    +0.000 C 
BRANCH  14  20
ATOM     17  C   UNL     1      46.592   3.937   7.339  0.00  0.00    +0.000 C 
ATOM     18  C   UNL     1      45.727   3.640   8.529  0.00  0.00    +0.000 A 
ATOM     19  C   UNL     1      45.293   4.673   9.377  0.00  0.00    +0.000 A 
ATOM     20  C   UNL     1      44.480   4.428  10.505  0.00  0.00    +0.000 A 
ATOM     21  C   UNL     1      44.077   3.101  10.724  0.00  0.00    +0.000 A 
ATOM     22  C   UNL     1      44.504   2.058   9.900  0.00  0.00    +0.000 A 
ATOM     23  C   UNL     1      45.336   2.333   8.820  0.00  0.00    +0.000 A 
BRANCH  23  24
ATOM     24  O   UNL     1      45.782   1.319   8.020  0.00  0.00    +0.000 OA
ATOM     25  H   UNL     1      46.402   1.689   7.370  0.00  0.00    +0.000 HD
ENDBRANCH  23  24
ENDBRANCH  14  20
ENDBRANCH   1  14
TORSDOF 4
ENDMDL
MODEL 6
REMARK VINA RESULT:    -6.874      2.582      6.732
REMARK INTER + INTRA:          -8.205
REMARK INTER:                  -7.574
REMARK INTRA:                  -0.631
REMARK UNBOUND:                 0.075
REMARK  Name = 
REMARK  5 active torsions:
REMARK  status: ('A' for Active; 'I' for Inactive)
REMARK    1  A    between atoms: C_1  and  C_2
REMARK    2  A    between atoms: C_4  and  C_5
REMARK    3  A    between atoms: C_5  and  N_6
REMARK    4  A    between atoms: C_10  and  C_11
REMARK    5  A    between atoms: C_20  and  O_21
REMARK                            x       y       z     vdW  Elec       q    Type
REMARK                         _______ _______ _______ _____ _____    ______ ____
ROOT
ATOM      1  N   UNL     1      45.727   6.168  11.879  0.00  0.00    +0.000 N 
ATOM      2  C   UNL     1      46.410   5.893  13.051  0.00  0.00    +0.000 A 
ATOM      3  C   UNL     1      46.324   4.698  13.752  0.00  0.00    +0.000 A 
ATOM      4  C   UNL     1      47.073   4.538  14.922  0.00  0.00    +0.000 A 
ATOM      5  C   UNL     1      47.899   5.579  15.351  0.00  0.00    +0.000 A 
ATOM      6  C   UNL     1      47.931   6.732  14.590  0.00  0.00    +0.000 A 
ATOM      7  N   UNL     1      47.213   6.902  13.457  0.00  0.00    +0.000 NA
ATOM      8  H   UNL     1      45.915   7.133  11.627  0.00  0.00    +0.000 HD
ENDROOT
BRANCH   5   9
ATOM      9  C   UNL     1      48.714   5.519  16.583  0.00  0.00    +0.000 C 
ATOM     10  N   UNL     1      48.096   5.877  17.752  0.00  0.00    +0.000 N 
ATOM     11  O   UNL     1      49.874   5.153  16.566  0.00  0.00    +0.000 OA
ATOM     12  H   UNL     1      47.096   5.992  17.841  0.00  0.00    +0.000 HD
ATOM     13  H   UNL     1      48.637   5.771  18.602  0.00  0.00    +0.000 HD
ENDBRANCH   5   9
BRANCH   1  14
ATOM     14  C   UNL     1      44.558   5.488  11.333  0.00  0.00    +0.000 C 
ATOM     15  C   UNL     1      43.229   5.416  12.060  0.00  0.00    +0.000 C 
ATOM     16  C   UNL     1      43.418   6.452  11.005  0.00  0.00    +0.000 C 
BRANCH  14  20
ATOM     17  C   UNL     1      46.741   3.957   6.979  0.00  0.00    +0.000 C 
ATOM     18  C   UNL     1      45.951   3.645   8.218  0.00  0.00    +0.000 A 
ATOM     19  C   UNL     1      45.623   4.658   9.134  0.00  0.00    +0.000 A 
ATOM     20  C   UNL     1      44.883   4.399  10.309  0.00  0.00    +0.000 A 
ATOM     21  C   UNL     1      44.441   3.080  10.505  0.00  0.00    +0.000 A 
ATOM     22  C   UNL     1      44.763   2.057   9.612  0.00  0.00    +0.000 A 
ATOM     23  C   UNL     1      45.526   2.344   8.485  0.00  0.00    +0.000 A 
BRANCH  23  24
ATOM     24  O   UNL     1      45.871   1.348   7.616  0.00  0.00    +0.000 OA
ATOM     25  H   UNL     1      45.065   0.874   7.353  0.00  0.00    +0.000 HD
ENDBRANCH  23  24
ENDBRANCH  14  20
ENDBRANCH   1  14
TORSDOF 4
ENDMDL
MODEL 7
REMARK VINA RESULT:    -6.647      4.453      6.679
REMARK INTER + INTRA:          -7.931
REMARK INTER:                  -7.539
REMARK INTRA:                  -0.392
REMARK UNBOUND:                 0.075
REMARK  Name = 
REMARK  5 active torsions:
REMARK  status: ('A' for Active; 'I' for Inactive)
REMARK    1  A    between atoms: C_1  and  C_2
REMARK    2  A    between atoms: C_4  and  C_5
REMARK    3  A    between atoms: C_5  and  N_6
REMARK    4  A    between atoms: C_10  and  C_11
REMARK    5  A    between atoms: C_20  and  O_21
REMARK                            x       y       z     vdW  Elec       q    Type
REMARK                         _______ _______ _______ _____ _____    ______ ____
ROOT
ATOM      1  N   UNL     1      47.237   4.002  15.854  0.00  0.00    +0.000 N 
ATOM      2  C   UNL     1      46.900   4.599  14.653  0.00  0.00    +0.000 A 
ATOM      3  C   UNL     1      47.559   5.690  14.102  0.00  0.00    +0.000 A 
ATOM      4  C   UNL     1      47.127   6.198  12.874  0.00  0.00    +0.000 A 
ATOM      5  C   UNL     1      46.050   5.592  12.224  0.00  0.00    +0.000 A 
ATOM      6  C   UNL     1      45.455   4.506  12.839  0.00  0.00    +0.000 A 
ATOM      7  N   UNL     1      45.861   4.003  14.026  0.00  0.00    +0.000 NA
ATOM      8  H   UNL     1      46.548   3.282  16.051  0.00  0.00    +0.000 HD
ENDROOT
BRANCH   5   9
ATOM      9  C   UNL     1      45.503   6.064  10.935  0.00  0.00    +0.000 C 
ATOM     10  N   UNL     1      44.730   7.195  10.967  0.00  0.00    +0.000 N 
ATOM     11  O   UNL     1      45.740   5.489   9.890  0.00  0.00    +0.000 OA
ATOM     12  H   UNL     1      44.675   7.809  11.768  0.00  0.00    +0.000 HD
ATOM     13  H   UNL     1      44.413   7.553  10.074  0.00  0.00    +0.000 HD
ENDBRANCH   5   9
BRANCH   1  14
ATOM     14  C   UNL     1      48.051   4.544  16.938  0.00  0.00    +0.000 C 
ATOM     15  C   UNL     1      47.935   5.976  17.420  0.00  0.00    +0.000 C 
ATOM     16  C   UNL     1      47.222   4.904  18.171  0.00  0.00    +0.000 C 
BRANCH  14  20
ATOM     17  C   UNL     1      53.007   4.532  18.162  0.00  0.00    +0.000 C 
ATOM     18  C   UNL     1      51.762   3.788  17.771  0.00  0.00    +0.000 A 
ATOM     19  C   UNL     1      50.561   4.476  17.529  0.00  0.00    +0.000 A 
ATOM     20  C   UNL     1      49.373   3.808  17.162  0.00  0.00    +0.000 A 
ATOM     21  C   UNL     1      49.450   2.415  16.998  0.00  0.00    +0.000 A 
ATOM     22  C   UNL     1      50.631   1.711  17.242  0.00  0.00    +0.000 A 
ATOM     23  C   UNL     1      51.772   2.400  17.640  0.00  0.00    +0.000 A 
BRANCH  23  24
ATOM     24  O   UNL     1      52.926   1.721  17.906  0.00  0.00    +0.000 OA
ATOM     25  H   UNL     1      52.877   0.848  17.484  0.00  0.00    +0.000 HD
ENDBRANCH  23  24
ENDBRANCH  14  20
ENDBRANCH   1  14
TORSDOF 4
ENDMDL
MODEL 8
REMARK VINA RESULT:    -6.296      3.326      6.954
REMARK INTER + INTRA:          -7.509
REMARK INTER:                  -7.244
REMARK INTRA:                  -0.264
REMARK UNBOUND:                 0.075
REMARK  Name = 
REMARK  5 active torsions:
REMARK  status: ('A' for Active; 'I' for Inactive)
REMARK    1  A    between atoms: C_1  and  C_2
REMARK    2  A    between atoms: C_4  and  C_5
REMARK    3  A    between atoms: C_5  and  N_6
REMARK    4  A    between atoms: C_10  and  C_11
REMARK    5  A    between atoms: C_20  and  O_21
REMARK                            x       y       z     vdW  Elec       q    Type
REMARK                         _______ _______ _______ _____ _____    ______ ____
ROOT
ATOM      1  N   UNL     1      47.174   6.919  11.319  0.00  0.00    +0.000 N 
ATOM      2  C   UNL     1      48.152   7.179  12.262  0.00  0.00    +0.000 A 
ATOM      3  C   UNL     1      48.105   6.757  13.584  0.00  0.00    +0.000 A 
ATOM      4  C   UNL     1      49.163   7.077  14.440  0.00  0.00    +0.000 A 
ATOM      5  C   UNL     1      50.248   7.803  13.944  0.00  0.00    +0.000 A 
ATOM      6  C   UNL     1      50.218   8.178  12.613  0.00  0.00    +0.000 A 
ATOM      7  N   UNL     1      49.202   7.877  11.773  0.00  0.00    +0.000 NA
ATOM      8  H   UNL     1      47.426   7.405  10.465  0.00  0.00    +0.000 HD
ENDROOT
BRANCH   5   9
ATOM      9  C   UNL     1      51.405   8.210  14.769  0.00  0.00    +0.000 C 
ATOM     10  N   UNL     1      52.204   7.208  15.252  0.00  0.00    +0.000 N 
ATOM     11  O   UNL     1      51.648   9.380  14.995  0.00  0.00    +0.000 OA
ATOM     12  H   UNL     1      52.156   6.253  14.927  0.00  0.00    +0.000 HD
ATOM     13  H   UNL     1      53.032   7.494  15.760  0.00  0.00    +0.000 HD
ENDBRANCH   5   9
BRANCH   1  14
ATOM     14  C   UNL     1      45.792   6.504  11.539  0.00  0.00    +0.000 C 
ATOM     15  C   UNL     1      44.971   6.966  12.726  0.00  0.00    +0.000 C 
ATOM     16  C   UNL     1      44.805   7.665  11.420  0.00  0.00    +0.000 C 
BRANCH  14  20
ATOM     17  C   UNL     1      45.614   3.467   7.440  0.00  0.00    +0.000 C 
ATOM     18  C   UNL     1      45.344   3.699   8.898  0.00  0.00    +0.000 A 
ATOM     19  C   UNL     1      45.656   4.931   9.499  0.00  0.00    +0.000 A 
ATOM     20  C   UNL     1      45.417   5.182  10.867  0.00  0.00    +0.000 A 
ATOM     21  C   UNL     1      44.803   4.156  11.605  0.00  0.00    +0.000 A 
ATOM     22  C   UNL     1      44.493   2.922  11.031  0.00  0.00    +0.000 A 
ATOM     23  C   UNL     1      44.778   2.699   9.688  0.00  0.00    +0.000 A 
BRANCH  23  24
ATOM     24  O   UNL     1      44.504   1.487   9.120  0.00  0.00    +0.000 OA
ATOM     25  H   UNL     1      43.747   1.092   9.583  0.00  0.00    +0.000 HD
ENDBRANCH  23  24
ENDBRANCH  14  20
ENDBRANCH   1  14
TORSDOF 4
ENDMDL
MODEL 9
REMARK VINA RESULT:    -6.086      3.867      5.608
REMARK INTER + INTRA:          -7.256
REMARK INTER:                  -6.553
REMARK INTRA:                  -0.703
REMARK UNBOUND:                 0.075
REMARK  Name = 
REMARK  5 active torsions:
REMARK  status: ('A' for Active; 'I' for Inactive)
REMARK    1  A    between atoms: C_1  and  C_2
REMARK    2  A    between atoms: C_4  and  C_5
REMARK    3  A    between atoms: C_5  and  N_6
REMARK    4  A    between atoms: C_10  and  C_11
REMARK    5  A    between atoms: C_20  and  O_21
REMARK                            x       y       z     vdW  Elec       q    Type
REMARK                         _______ _______ _______ _____ _____    ______ ____
ROOT
ATOM      1  N   UNL     1      47.199   8.073  12.388  0.00  0.00    +0.000 N 
ATOM      2  C   UNL     1      46.443   6.916  12.349  0.00  0.00    +0.000 A 
ATOM      3  C   UNL     1      46.827   5.703  12.905  0.00  0.00    +0.000 A 
ATOM      4  C   UNL     1      45.967   4.605  12.807  0.00  0.00    +0.000 A 
ATOM      5  C   UNL     1      44.737   4.755  12.163  0.00  0.00    +0.000 A 
ATOM      6  C   UNL     1      44.429   6.000  11.645  0.00  0.00    +0.000 A 
ATOM      7  N   UNL     1      45.250   7.070  11.731  0.00  0.00    +0.000 NA
ATOM      8  H   UNL     1      46.716   8.781  11.844  0.00  0.00    +0.000 HD
ENDROOT
BRANCH   5   9
ATOM      9  C   UNL     1      43.767   3.654  11.988  0.00  0.00    +0.000 C 
ATOM     10  N   UNL     1      44.023   2.489  12.661  0.00  0.00    +0.000 N 
ATOM     11  O   UNL     1      42.776   3.779  11.292  0.00  0.00    +0.000 OA
ATOM     12  H   UNL     1      44.713   2.411  13.396  0.00  0.00    +0.000 HD
ATOM     13  H   UNL     1      43.322   1.762  12.592  0.00  0.00    +0.000 HD
ENDBRANCH   5   9
BRANCH   1  14
ATOM     14  C   UNL     1      48.626   8.212  12.659  0.00  0.00    +0.000 C 
ATOM     15  C   UNL     1      49.697   7.859  11.646  0.00  0.00    +0.000 C 
ATOM     16  C   UNL     1      49.287   9.285  11.792  0.00  0.00    +0.000 C 
BRANCH  14  20
ATOM     17  C   UNL     1      47.855   9.674  17.489  0.00  0.00    +0.000 C 
ATOM     18  C   UNL     1      48.616   8.860  16.483  0.00  0.00    +0.000 A 
ATOM     19  C   UNL     1      48.298   8.929  15.116  0.00  0.00    +0.000 A 
ATOM     20  C   UNL     1      48.992   8.176  14.144  0.00  0.00    +0.000 A 
ATOM     21  C   UNL     1      50.057   7.380  14.596  0.00  0.00    +0.000 A 
ATOM     22  C   UNL     1      50.384   7.289  15.950  0.00  0.00    +0.000 A 
ATOM     23  C   UNL     1      49.652   8.018  16.883  0.00  0.00    +0.000 A 
BRANCH  23  24
ATOM     24  O   UNL     1      49.944   7.919  18.214  0.00  0.00    +0.000 OA
ATOM     25  H   UNL     1      50.881   8.138  18.342  0.00  0.00    +0.000 HD
ENDBRANCH  23  24
ENDBRANCH  14  20
ENDBRANCH   1  14
TORSDOF 4
ENDMDL
