MODEL 1
REMARK VINA RESULT:    -8.510      0.000      0.000
REMARK INTER + INTRA:         -12.670
REMARK INTER:                 -11.495
REMARK INTRA:                  -1.175
REMARK UNBOUND:                -1.175
REMARK  Name = 
REMARK  6 active torsions:
REMARK  status: ('A' for Active; 'I' for Inactive)
REMARK    1  A    between atoms: C_2  and  C_20
REMARK    2  A    between atoms: N_3  and  C_4
REMARK    3  A    between atoms: C_4  and  C_5
REMARK    4  A    between atoms: C_8  and  C_9
REMARK    5  A    between atoms: C_9  and  C_10
REMARK    6  A    between atoms: C_10  and  C_11
REMARK                            x       y       z     vdW  Elec       q    Type
REMARK                         _______ _______ _______ _____ _____    ______ ____
ROOT
ATOM      1  C   UNL     1      46.973   7.997  13.277  0.00  0.00    +0.000 C 
ENDROOT
BRANCH   1   2
ATOM      2  C   UNL     1      46.118   7.083  12.436  0.00  0.00    +0.000 A 
ATOM      3  C   UNL     1      46.580   6.686  11.173  0.00  0.00    +0.000 A 
ATOM      4  C   UNL     1      45.842   5.807  10.372  0.00  0.00    +0.000 A 
ATOM      5  C   UNL     1      44.619   5.293  10.816  0.00  0.00    +0.000 A 
ATOM      6  C   UNL     1      44.143   5.709  12.069  0.00  0.00    +0.000 A 
ATOM      7  C   UNL     1      44.874   6.603  12.864  0.00  0.00    +0.000 A 
BRANCH   5   8
ATOM      8  C   UNL     1      43.767   4.371   9.969  0.00  0.00    +0.000 C 
BRANCH   8   9
ATOM      9  C   UNL     1      44.355   4.030   8.600  0.00  0.00    +0.000 C 
BRANCH   9  10
ATOM     10  C   UNL     1      45.033   2.671   8.599  0.00  0.00    +0.000 C 
ATOM     11  O   UNL     1      44.645   1.731   9.287  0.00  0.00    +0.000 OA
ATOM     12  N   UNL     1      46.110   2.547   7.737  0.00  0.00    +0.000 N 
ATOM     13  C   UNL     1      46.703   3.565   6.892  0.00  0.00    +0.000 C 
ATOM     14  C   UNL     1      47.310   2.764   5.755  0.00  0.00    +0.000 C 
ATOM     15  C   UNL     1      47.781   1.482   6.439  0.00  0.00    +0.000 C 
ATOM     16  C   UNL     1      46.832   1.296   7.620  0.00  0.00    +0.000 C 
ENDBRANCH   9  10
ENDBRANCH   8   9
ENDBRANCH   5   8
ENDBRANCH   1   2
BRANCH   1  19
ATOM     17  O   UNL     1      49.508   6.784  13.662  0.00  0.00    +0.000 OA
ATOM     18  C   UNL     1      48.710   6.850  14.603  0.00  0.00    +0.000 C 
ATOM     19  N   UNL     1      47.461   7.385  14.483  0.00  0.00    +0.000 N 
ATOM     20  H   UNL     1      46.915   7.559  15.321  0.00  0.00    +0.000 HD
BRANCH  18  21
ATOM     21  C   UNL     1      49.029   6.300  15.916  0.00  0.00    +0.000 A 
ATOM     22  C   UNL     1      49.980   6.869  16.750  0.00  0.00    +0.000 A 
ATOM     23  S   UNL     1      50.156   6.026  18.231  0.00  0.00    +0.000 S 
ATOM     24  C   UNL     1      48.950   4.903  17.802  0.00  0.00    +0.000 A 
ATOM     25  N   UNL     1      48.583   3.900  18.643  0.00  0.00    +0.000 NA
ATOM     26  C   UNL     1      47.641   3.142  18.185  0.00  0.00    +0.000 A 
ATOM     27  N   UNL     1      47.033   3.287  16.974  0.00  0.00    +0.000 N 
ATOM     28  C   UNL     1      47.407   4.235  16.066  0.00  0.00    +0.000 A 
ATOM     29  O   UNL     1      46.945   4.234  14.925  0.00  0.00    +0.000 OA
ATOM     30  C   UNL     1      48.439   5.148  16.543  0.00  0.00    +0.000 A 
ATOM     31  H   UNL     1      46.334   2.636  16.649  0.00  0.00    +0.000 HD
ENDBRANCH  18  21
ENDBRANCH   1  19
TORSDOF 6
ENDMDL
MODEL 2
REMARK VINA RESULT:    -7.883      2.292      2.904
REMARK INTER + INTRA:         -11.823
REMARK INTER:                 -10.769
REMARK INTRA:                  -1.054
REMARK UNBOUND:                -1.175
REMARK  Name = 
REMARK  6 active torsions:
REMARK  status: ('A' for Active; 'I' for Inactive)
REMARK    1  A    between atoms: C_2  and  C_20
REMARK    2  A    between atoms: N_3  and  C_4
REMARK    3  A    between atoms: C_4  and  C_5
REMARK    4  A    between atoms: C_8  and  C_9
REMARK    5  A    between atoms: C_9  and  C_10
REMARK    6  A    between atoms: C_10  and  C_11
REMARK                            x       y       z     vdW  Elec       q    Type
REMARK                         _______ _______ _______ _____ _____    ______ ____
ROOT
ATOM      1  C   UNL     1      48.352   6.685  13.899  0.00  0.00    +0.000 C 
ENDROOT
BRANCH   1   2
ATOM      2  C   UNL     1      47.218   6.148  13.061  0.00  0.00    +0.000 A 
ATOM      3  C   UNL     1      46.379   5.162  13.601  0.00  0.00    +0.000 A 
ATOM      4  C   UNL     1      45.290   4.660  12.880  0.00  0.00    +0.000 A 
ATOM      5  C   UNL     1      45.005   5.136  11.595  0.00  0.00    +0.000 A 
ATOM      6  C   UNL     1      45.858   6.104  11.044  0.00  0.00    +0.000 A 
ATOM      7  C   UNL     1      46.959   6.595  11.760  0.00  0.00    +0.000 A 
BRANCH   5   8
ATOM      8  C   UNL     1      43.862   4.595  10.762  0.00  0.00    +0.000 C 
BRANCH   8   9
ATOM      9  C   UNL     1      44.220   4.270   9.312  0.00  0.00    +0.000 C 
BRANCH   9  10
ATOM     10  C   UNL     1      44.774   2.863   9.169  0.00  0.00    +0.000 C 
ATOM     11  O   UNL     1      44.351   1.910   9.817  0.00  0.00    +0.000 OA
ATOM     12  N   UNL     1      45.776   2.714   8.224  0.00  0.00    +0.000 N 
ATOM     13  C   UNL     1      46.398   3.740   7.410  0.00  0.00    +0.000 C 
ATOM     14  C   UNL     1      46.854   2.978   6.179  0.00  0.00    +0.000 C 
ATOM     15  C   UNL     1      47.254   1.614   6.737  0.00  0.00    +0.000 C 
ATOM     16  C   UNL     1      46.374   1.419   7.968  0.00  0.00    +0.000 C 
ENDBRANCH   9  10
ENDBRANCH   8   9
ENDBRANCH   5   8
ENDBRANCH   1   2
BRANCH   1  19
ATOM     17  O   UNL     1      50.330   6.337  15.902  0.00  0.00    +0.000 OA
ATOM     18  C   UNL     1      49.140   6.431  16.224  0.00  0.00    +0.000 C 
ATOM     19  N   UNL     1      48.132   6.563  15.315  0.00  0.00    +0.000 N 
ATOM     20  H   UNL     1      47.199   6.799  15.641  0.00  0.00    +0.000 HD
BRANCH  18  21
ATOM     21  C   UNL     1      48.717   6.350  17.618  0.00  0.00    +0.000 A 
ATOM     22  C   UNL     1      48.785   5.173  18.349  0.00  0.00    +0.000 A 
ATOM     23  S   UNL     1      48.228   5.357  19.958  0.00  0.00    +0.000 S 
ATOM     24  C   UNL     1      47.911   7.013  19.722  0.00  0.00    +0.000 A 
ATOM     25  N   UNL     1      47.425   7.792  20.724  0.00  0.00    +0.000 NA
ATOM     26  C   UNL     1      47.255   9.031  20.396  0.00  0.00    +0.000 A 
ATOM     27  N   UNL     1      47.523   9.566  19.171  0.00  0.00    +0.000 N 
ATOM     28  C   UNL     1      47.950   8.817  18.114  0.00  0.00    +0.000 A 
ATOM     29  O   UNL     1      48.028   9.303  16.985  0.00  0.00    +0.000 OA
ATOM     30  C   UNL     1      48.199   7.416  18.433  0.00  0.00    +0.000 A 
ATOM     31  H   UNL     1      47.328  10.532  18.958  0.00  0.00    +0.000 HD
ENDBRANCH  18  21
ENDBRANCH   1  19
TORSDOF 6
ENDMDL
MODEL 3
REMARK VINA RESULT:    -7.585      1.992      2.173
REMARK INTER + INTRA:         -11.420
REMARK INTER:                 -10.439
REMARK INTRA:                  -0.981
REMARK UNBOUND:                -1.175
REMARK  Name = 
REMARK  6 active torsions:
REMARK  status: ('A' for Active; 'I' for Inactive)
REMARK    1  A    between atoms: C_2  and  C_20
REMARK    2  A    between atoms: N_3  and  C_4
REMARK    3  A    between atoms: C_4  and  C_5
REMARK    4  A    between atoms: C_8  and  C_9
REMARK    5  A    between atoms: C_9  and  C_10
REMARK    6  A    between atoms: C_10  and  C_11
REMARK                            x       y       z     vdW  Elec       q    Type
REMARK                         _______ _______ _______ _____ _____    ______ ____
ROOT
ATOM      1  C   UNL     1      48.425   6.956  13.700  0.00  0.00    +0.000 C 
ENDROOT
BRANCH   1   2
ATOM      2  C   UNL     1      47.261   6.324  12.979  0.00  0.00    +0.000 A 
ATOM      3  C   UNL     1      46.927   6.776  11.694  0.00  0.00    +0.000 A 
ATOM      4  C   UNL     1      45.881   6.196  10.969  0.00  0.00    +0.000 A 
ATOM      5  C   UNL     1      45.140   5.138  11.507  0.00  0.00    +0.000 A 
ATOM      6  C   UNL     1      45.456   4.702  12.803  0.00  0.00    +0.000 A 
ATOM      7  C   UNL     1      46.493   5.295  13.537  0.00  0.00    +0.000 A 
BRANCH   5   8
ATOM      8  C   UNL     1      43.974   4.505  10.776  0.00  0.00    +0.000 C 
BRANCH   8   9
ATOM      9  C   UNL     1      44.235   4.183   9.305  0.00  0.00    +0.000 C 
BRANCH   9  10
ATOM     10  C   UNL     1      44.805   2.787   9.126  0.00  0.00    +0.000 C 
ATOM     11  O   UNL     1      44.393   1.812   9.748  0.00  0.00    +0.000 OA
ATOM     12  N   UNL     1      45.810   2.674   8.179  0.00  0.00    +0.000 N 
ATOM     13  C   UNL     1      46.422   3.728   7.393  0.00  0.00    +0.000 C 
ATOM     14  C   UNL     1      46.888   3.004   6.143  0.00  0.00    +0.000 C 
ATOM     15  C   UNL     1      47.303   1.630   6.666  0.00  0.00    +0.000 C 
ATOM     16  C   UNL     1      46.424   1.393   7.890  0.00  0.00    +0.000 C 
ENDBRANCH   9  10
ENDBRANCH   8   9
ENDBRANCH   5   8
ENDBRANCH   1   2
BRANCH   1  19
ATOM     17  O   UNL     1      50.222   8.101  15.573  0.00  0.00    +0.000 OA
ATOM     18  C   UNL     1      49.057   7.862  15.907  0.00  0.00    +0.000 C 
ATOM     19  N   UNL     1      48.148   7.280  15.073  0.00  0.00    +0.000 N 
ATOM     20  H   UNL     1      47.170   7.257  15.345  0.00  0.00    +0.000 HD
BRANCH  18  21
ATOM     21  C   UNL     1      48.577   8.138  17.257  0.00  0.00    +0.000 A 
ATOM     22  C   UNL     1      48.381   9.428  17.728  0.00  0.00    +0.000 A 
ATOM     23  S   UNL     1      47.812   9.467  19.343  0.00  0.00    +0.000 S 
ATOM     24  C   UNL     1      47.789   7.767  19.438  0.00  0.00    +0.000 A 
ATOM     25  N   UNL     1      47.379   7.125  20.564  0.00  0.00    +0.000 NA
ATOM     26  C   UNL     1      47.399   5.835  20.475  0.00  0.00    +0.000 A 
ATOM     27  N   UNL     1      47.787   5.127  19.376  0.00  0.00    +0.000 N 
ATOM     28  C   UNL     1      48.268   5.720  18.245  0.00  0.00    +0.000 A 
ATOM     29  O   UNL     1      48.756   5.047  17.338  0.00  0.00    +0.000 OA
ATOM     30  C   UNL     1      48.231   7.178  18.270  0.00  0.00    +0.000 A 
ATOM     31  H   UNL     1      47.826   4.119  19.380  0.00  0.00    +0.000 HD
ENDBRANCH  18  21
ENDBRANCH   1  19
TORSDOF 6
ENDMDL
MODEL 4
REMARK VINA RESULT:    -7.504      1.861      2.497
REMARK INTER + INTRA:         -11.310
REMARK INTER:                 -10.080
REMARK INTRA:                  -1.230
REMARK UNBOUND:                -1.175
REMARK  Name = 
REMARK  6 active torsions:
REMARK  status: ('A' for Active; 'I' for Inactive)
REMARK    1  A    between atoms: C_2  and  C_20
REMARK    2  A    between atoms: N_3  and  C_4
REMARK    3  A    between atoms: C_4  and  C_5
REMARK    4  A    between atoms: C_8  and  C_9
REMARK    5  A    between atoms: C_9  and  C_10
REMARK    6  A    between atoms: C_10  and  C_11
REMARK                            x       y       z     vdW  Elec       q    Type
REMARK                         _______ _______ _______ _____ _____    ______ ____
ROOT
ATOM      1  C   UNL     1      48.823   6.985  13.489  0.00  0.00    +0.000 C 
ENDROOT
BRANCH   1   2
ATOM      2  C   UNL     1      47.405   6.504  13.305  0.00  0.00    +0.000 A 
ATOM      3  C   UNL     1      47.087   5.177  13.631  0.00  0.00    +0.000 A 
ATOM      4  C   UNL     1      45.779   4.694  13.516  0.00  0.00    +0.000 A 
ATOM      5  C   UNL     1      44.746   5.529  13.077  0.00  0.00    +0.000 A 
ATOM      6  C   UNL     1      45.067   6.849  12.726  0.00  0.00    +0.000 A 
ATOM      7  C   UNL     1      46.381   7.329  12.825  0.00  0.00    +0.000 A 
BRANCH   5   8
ATOM      8  C   UNL     1      43.324   5.040  12.899  0.00  0.00    +0.000 C 
BRANCH   8   9
ATOM      9  C   UNL     1      42.924   4.733  11.456  0.00  0.00    +0.000 C 
BRANCH   9  10
ATOM     10  C   UNL     1      43.384   3.352  11.024  0.00  0.00    +0.000 C 
ATOM     11  O   UNL     1      42.919   2.317  11.493  0.00  0.00    +0.000 OA
ATOM     12  N   UNL     1      44.350   3.332  10.031  0.00  0.00    +0.000 N 
ATOM     13  C   UNL     1      45.014   4.459   9.406  0.00  0.00    +0.000 C 
ATOM     14  C   UNL     1      45.389   3.926   8.036  0.00  0.00    +0.000 C 
ATOM     15  C   UNL     1      45.717   2.459   8.306  0.00  0.00    +0.000 C 
ATOM     16  C   UNL     1      44.858   2.079   9.509  0.00  0.00    +0.000 C 
ENDBRANCH   9  10
ENDBRANCH   8   9
ENDBRANCH   5   8
ENDBRANCH   1   2
BRANCH   1  19
ATOM     17  O   UNL     1      48.235   8.626  15.727  0.00  0.00    +0.000 OA
ATOM     18  C   UNL     1      48.962   7.637  15.865  0.00  0.00    +0.000 C 
ATOM     19  N   UNL     1      49.318   6.824  14.830  0.00  0.00    +0.000 N 
ATOM     20  H   UNL     1      49.780   5.942  15.029  0.00  0.00    +0.000 HD
BRANCH  18  21
ATOM     21  C   UNL     1      49.549   7.295  17.157  0.00  0.00    +0.000 A 
ATOM     22  C   UNL     1      50.576   8.033  17.727  0.00  0.00    +0.000 A 
ATOM     23  S   UNL     1      51.075   7.416  19.244  0.00  0.00    +0.000 S 
ATOM     24  C   UNL     1      49.916   6.171  19.185  0.00  0.00    +0.000 A 
ATOM     25  N   UNL     1      49.787   5.272  20.198  0.00  0.00    +0.000 NA
ATOM     26  C   UNL     1      48.851   4.400  20.016  0.00  0.00    +0.000 A 
ATOM     27  N   UNL     1      48.033   4.337  18.927  0.00  0.00    +0.000 N 
ATOM     28  C   UNL     1      48.162   5.172  17.856  0.00  0.00    +0.000 A 
ATOM     29  O   UNL     1      47.513   4.984  16.827  0.00  0.00    +0.000 OA
ATOM     30  C   UNL     1      49.177   6.206  18.019  0.00  0.00    +0.000 A 
ATOM     31  H   UNL     1      47.348   3.605  18.818  0.00  0.00    +0.000 HD
ENDBRANCH  18  21
ENDBRANCH   1  19
TORSDOF 6
ENDMDL
MODEL 5
REMARK VINA RESULT:    -7.206      2.718      3.305
REMARK INTER + INTRA:         -10.909
REMARK INTER:                  -9.896
REMARK INTRA:                  -1.012
REMARK UNBOUND:                -1.175
REMARK  Name = 
REMARK  6 active torsions:
REMARK  status: ('A' for Active; 'I' for Inactive)
REMARK    1  A    between atoms: C_2  and  C_20
REMARK    2  A    between atoms: N_3  and  C_4
REMARK    3  A    between atoms: C_4  and  C_5
REMARK    4  A    between atoms: C_8  and  C_9
REMARK    5  A    between atoms: C_9  and  C_10
REMARK    6  A    between atoms: C_10  and  C_11
REMARK                            x       y       z     vdW  Elec       q    Type
REMARK                         _______ _______ _______ _____ _____    ______ ____
ROOT
ATOM      1  C   UNL     1      47.841   5.351  14.626  0.00  0.00    +0.000 C 
ENDROOT
BRANCH   1   2
ATOM      2  C   UNL     1      46.772   5.192  13.574  0.00  0.00    +0.000 A 
ATOM      3  C   UNL     1      46.759   6.064  12.477  0.00  0.00    +0.000 A 
ATOM      4  C   UNL     1      45.813   5.933  11.454  0.00  0.00    +0.000 A 
ATOM      5  C   UNL     1      44.853   4.915  11.498  0.00  0.00    +0.000 A 
ATOM      6  C   UNL     1      44.849   4.057  12.607  0.00  0.00    +0.000 A 
ATOM      7  C   UNL     1      45.786   4.200  13.641  0.00  0.00    +0.000 A 
BRANCH   5   8
ATOM      8  C   UNL     1      43.785   4.758  10.435  0.00  0.00    +0.000 C 
BRANCH   8   9
ATOM      9  C   UNL     1      44.305   4.364   9.053  0.00  0.00    +0.000 C 
BRANCH   9  10
ATOM     10  C   UNL     1      44.812   2.932   9.028  0.00  0.00    +0.000 C 
ATOM     11  O   UNL     1      44.325   2.040   9.716  0.00  0.00    +0.000 OA
ATOM     12  N   UNL     1      45.848   2.686   8.142  0.00  0.00    +0.000 N 
ATOM     13  C   UNL     1      46.544   3.633   7.293  0.00  0.00    +0.000 C 
ATOM     14  C   UNL     1      47.025   2.775   6.138  0.00  0.00    +0.000 C 
ATOM     15  C   UNL     1      47.349   1.438   6.801  0.00  0.00    +0.000 C 
ATOM     16  C   UNL     1      46.408   1.357   8.000  0.00  0.00    +0.000 C 
ENDBRANCH   9  10
ENDBRANCH   8   9
ENDBRANCH   5   8
ENDBRANCH   1   2
BRANCH   1  19
ATOM     17  O   UNL     1      50.175   6.764  15.406  0.00  0.00    +0.000 OA
ATOM     18  C   UNL     1      49.067   7.301  15.514  0.00  0.00    +0.000 C 
ATOM     19  N   UNL     1      47.900   6.671  15.194  0.00  0.00    +0.000 N 
ATOM     20  H   UNL     1      47.042   7.213  15.148  0.00  0.00    +0.000 HD
BRANCH  18  21
ATOM     21  C   UNL     1      48.920   8.649  16.053  0.00  0.00    +0.000 A 
ATOM     22  C   UNL     1      49.317   9.778  15.352  0.00  0.00    +0.000 A 
ATOM     23  S   UNL     1      49.031  11.231  16.213  0.00  0.00    +0.000 S 
ATOM     24  C   UNL     1      48.347  10.387  17.524  0.00  0.00    +0.000 A 
ATOM     25  N   UNL     1      47.869  11.040  18.617  0.00  0.00    +0.000 NA
ATOM     26  C   UNL     1      47.363  10.265  19.519  0.00  0.00    +0.000 A 
ATOM     27  N   UNL     1      47.288   8.906  19.437  0.00  0.00    +0.000 N 
ATOM     28  C   UNL     1      47.810   8.197  18.394  0.00  0.00    +0.000 A 
ATOM     29  O   UNL     1      47.866   6.968  18.431  0.00  0.00    +0.000 OA
ATOM     30  C   UNL     1      48.359   9.021  17.324  0.00  0.00    +0.000 A 
ATOM     31  H   UNL     1      46.924   8.347  20.193  0.00  0.00    +0.000 HD
ENDBRANCH  18  21
ENDBRANCH   1  19
TORSDOF 6
ENDMDL
MODEL 6
REMARK VINA RESULT:    -7.030      2.580      4.330
REMARK INTER + INTRA:         -10.671
REMARK INTER:                  -9.548
REMARK INTRA:                  -1.123
REMARK UNBOUND:                -1.175
REMARK  Name = 
REMARK  6 active torsions:
REMARK  status: ('A' for Active; 'I' for Inactive)
REMARK    1  A    between atoms: C_2  and  C_20
REMARK    2  A    between atoms: N_3  and  C_4
REMARK    3  A    between atoms: C_4  and  C_5
REMARK    4  A    between atoms: C_8  and  C_9
REMARK    5  A    between atoms: C_9  and  C_10
REMARK    6  A    between atoms: C_10  and  C_11
REMARK                            x       y       z     vdW  Elec       q    Type
REMARK                         _______ _______ _______ _____ _____    ______ ____
ROOT
ATOM      1  C   UNL     1      47.593   5.302  15.035  0.00  0.00    +0.000 C 
ENDROOT
BRANCH   1   2
ATOM      2  C   UNL     1      46.644   4.874  13.944  0.00  0.00    +0.000 A 
ATOM      3  C   UNL     1      45.897   5.850  13.268  0.00  0.00    +0.000 A 
ATOM      4  C   UNL     1      45.033   5.509  12.222  0.00  0.00    +0.000 A 
ATOM      5  C   UNL     1      44.897   4.177  11.815  0.00  0.00    +0.000 A 
ATOM      6  C   UNL     1      45.624   3.197  12.506  0.00  0.00    +0.000 A 
ATOM      7  C   UNL     1      46.477   3.537  13.566  0.00  0.00    +0.000 A 
BRANCH   5   8
ATOM      8  C   UNL     1      43.945   3.755  10.715  0.00  0.00    +0.000 C 
BRANCH   8   9
ATOM      9  C   UNL     1      44.537   2.795   9.684  0.00  0.00    +0.000 C 
BRANCH   9  10
ATOM     10  C   UNL     1      45.221   3.537   8.549  0.00  0.00    +0.000 C 
ATOM     11  O   UNL     1      45.093   4.744   8.367  0.00  0.00    +0.000 OA
ATOM     12  N   UNL     1      46.038   2.762   7.742  0.00  0.00    +0.000 N 
ATOM     13  C   UNL     1      46.265   1.331   7.809  0.00  0.00    +0.000 C 
ATOM     14  C   UNL     1      47.654   1.171   7.220  0.00  0.00    +0.000 C 
ATOM     15  C   UNL     1      47.706   2.250   6.140  0.00  0.00    +0.000 C 
ATOM     16  C   UNL     1      46.770   3.348   6.637  0.00  0.00    +0.000 C 
ENDBRANCH   9  10
ENDBRANCH   8   9
ENDBRANCH   5   8
ENDBRANCH   1   2
BRANCH   1  19
ATOM     17  O   UNL     1      50.125   6.293  15.844  0.00  0.00    +0.000 OA
ATOM     18  C   UNL     1      49.328   7.041  15.267  0.00  0.00    +0.000 C 
ATOM     19  N   UNL     1      48.081   6.646  14.882  0.00  0.00    +0.000 N 
ATOM     20  H   UNL     1      47.537   7.249  14.273  0.00  0.00    +0.000 HD
BRANCH  18  21
ATOM     21  C   UNL     1      49.649   8.440  15.002  0.00  0.00    +0.000 A 
ATOM     22  C   UNL     1      49.883   9.355  16.018  0.00  0.00    +0.000 A 
ATOM     23  S   UNL     1      50.239  10.924  15.431  0.00  0.00    +0.000 S 
ATOM     24  C   UNL     1      50.117  10.410  13.813  0.00  0.00    +0.000 A 
ATOM     25  N   UNL     1      50.326  11.267  12.778  0.00  0.00    +0.000 NA
ATOM     26  C   UNL     1      50.216  10.724  11.610  0.00  0.00    +0.000 A 
ATOM     27  N   UNL     1      49.920   9.414  11.375  0.00  0.00    +0.000 N 
ATOM     28  C   UNL     1      49.638   8.528  12.374  0.00  0.00    +0.000 A 
ATOM     29  O   UNL     1      49.220   7.399  12.117  0.00  0.00    +0.000 OA
ATOM     30  C   UNL     1      49.785   9.073  13.718  0.00  0.00    +0.000 A 
ATOM     31  H   UNL     1      49.802   9.055  10.440  0.00  0.00    +0.000 HD
ENDBRANCH  18  21
ENDBRANCH   1  19
TORSDOF 6
ENDMDL
MODEL 7
REMARK VINA RESULT:    -6.948      2.923      8.364
REMARK INTER + INTRA:         -10.559
REMARK INTER:                  -9.175
REMARK INTRA:                  -1.385
REMARK UNBOUND:                -1.175
REMARK  Name = 
REMARK  6 active torsions:
REMARK  status: ('A' for Active; 'I' for Inactive)
REMARK    1  A    between atoms: C_2  and  C_20
REMARK    2  A    between atoms: N_3  and  C_4
REMARK    3  A    between atoms: C_4  and  C_5
REMARK    4  A    between atoms: C_8  and  C_9
REMARK    5  A    between atoms: C_9  and  C_10
REMARK    6  A    between atoms: C_10  and  C_11
REMARK                            x       y       z     vdW  Elec       q    Type
REMARK                         _______ _______ _______ _____ _____    ______ ____
ROOT
ATOM      1  C   UNL     1      47.512   7.753  11.985  0.00  0.00    +0.000 C 
ENDROOT
BRANCH   1   2
ATOM      2  C   UNL     1      48.115   7.918  13.358  0.00  0.00    +0.000 A 
ATOM      3  C   UNL     1      49.156   7.066  13.753  0.00  0.00    +0.000 A 
ATOM      4  C   UNL     1      49.775   7.203  15.001  0.00  0.00    +0.000 A 
ATOM      5  C   UNL     1      49.373   8.207  15.889  0.00  0.00    +0.000 A 
ATOM      6  C   UNL     1      48.315   9.045  15.505  0.00  0.00    +0.000 A 
ATOM      7  C   UNL     1      47.683   8.896  14.263  0.00  0.00    +0.000 A 
BRANCH   5   8
ATOM      8  C   UNL     1      49.986   8.370  17.264  0.00  0.00    +0.000 C 
BRANCH   8   9
ATOM      9  C   UNL     1      49.985   7.106  18.123  0.00  0.00    +0.000 C 
BRANCH   9  10
ATOM     10  C   UNL     1      48.579   6.582  18.356  0.00  0.00    +0.000 C 
ATOM     11  O   UNL     1      47.678   7.272  18.824  0.00  0.00    +0.000 OA
ATOM     12  N   UNL     1      48.364   5.269  17.969  0.00  0.00    +0.000 N 
ATOM     13  C   UNL     1      49.326   4.324  17.436  0.00  0.00    +0.000 C 
ATOM     14  C   UNL     1      48.470   3.389  16.602  0.00  0.00    +0.000 C 
ATOM     15  C   UNL     1      47.163   3.312  17.389  0.00  0.00    +0.000 C 
ATOM     16  C   UNL     1      47.061   4.652  18.113  0.00  0.00    +0.000 C 
ENDBRANCH   9  10
ENDBRANCH   8   9
ENDBRANCH   5   8
ENDBRANCH   1   2
BRANCH   1  19
ATOM     17  O   UNL     1      44.701   7.521  11.681  0.00  0.00    +0.000 OA
ATOM     18  C   UNL     1      45.408   6.508  11.652  0.00  0.00    +0.000 C 
ATOM     19  N   UNL     1      46.760   6.538  11.827  0.00  0.00    +0.000 N 
ATOM     20  H   UNL     1      47.303   5.702  11.632  0.00  0.00    +0.000 HD
BRANCH  18  21
ATOM     21  C   UNL     1      44.831   5.178  11.481  0.00  0.00    +0.000 A 
ATOM     22  C   UNL     1      44.117   4.542  12.486  0.00  0.00    +0.000 A 
ATOM     23  S   UNL     1      43.549   2.995  12.021  0.00  0.00    +0.000 S 
ATOM     24  C   UNL     1      44.217   3.153  10.463  0.00  0.00    +0.000 A 
ATOM     25  N   UNL     1      44.082   2.174   9.530  0.00  0.00    +0.000 NA
ATOM     26  C   UNL     1      44.627   2.449   8.390  0.00  0.00    +0.000 A 
ATOM     27  N   UNL     1      45.291   3.601   8.092  0.00  0.00    +0.000 N 
ATOM     28  C   UNL     1      45.512   4.587   9.010  0.00  0.00    +0.000 A 
ATOM     29  O   UNL     1      46.250   5.537   8.751  0.00  0.00    +0.000 OA
ATOM     30  C   UNL     1      44.885   4.351  10.306  0.00  0.00    +0.000 A 
ATOM     31  H   UNL     1      45.737   3.742   7.199  0.00  0.00    +0.000 HD
ENDBRANCH  18  21
ENDBRANCH   1  19
TORSDOF 6
ENDMDL
MODEL 8
REMARK VINA RESULT:    -6.773      3.696      8.426
REMARK INTER + INTRA:         -10.323
REMARK INTER:                  -9.456
REMARK INTRA:                  -0.867
REMARK UNBOUND:                -1.175
REMARK  Name = 
REMARK  6 active torsions:
REMARK  status: ('A' for Active; 'I' for Inactive)
REMARK    1  A    between atoms: C_2  and  C_20
REMARK    2  A    between atoms: N_3  and  C_4
REMARK    3  A    between atoms: C_4  and  C_5
REMARK    4  A    between atoms: C_8  and  C_9
REMARK    5  A    between atoms: C_9  and  C_10
REMARK    6  A    between atoms: C_10  and  C_11
REMARK                            x       y       z     vdW  Elec       q    Type
REMARK                         _______ _______ _______ _____ _____    ______ ____
ROOT
ATOM      1  C   UNL     1      48.202   7.700  12.666  0.00  0.00    +0.000 C 
ENDROOT
BRANCH   1   2
ATOM      2  C   UNL     1      48.778   7.230  13.978  0.00  0.00    +0.000 A 
ATOM      3  C   UNL     1      48.010   6.393  14.800  0.00  0.00    +0.000 A 
ATOM      4  C   UNL     1      48.513   5.899  16.008  0.00  0.00    +0.000 A 
ATOM      5  C   UNL     1      49.809   6.222  16.427  0.00  0.00    +0.000 A 
ATOM      6  C   UNL     1      50.570   7.079  15.618  0.00  0.00    +0.000 A 
ATOM      7  C   UNL     1      50.059   7.589  14.416  0.00  0.00    +0.000 A 
BRANCH   5   8
ATOM      8  C   UNL     1      50.382   5.743  17.744  0.00  0.00    +0.000 C 
BRANCH   8   9
ATOM      9  C   UNL     1      51.606   4.837  17.622  0.00  0.00    +0.000 C 
BRANCH   9  10
ATOM     10  C   UNL     1      51.215   3.378  17.462  0.00  0.00    +0.000 C 
ATOM     11  O   UNL     1      50.113   3.023  17.053  0.00  0.00    +0.000 OA
ATOM     12  N   UNL     1      52.204   2.461  17.780  0.00  0.00    +0.000 N 
ATOM     13  C   UNL     1      53.531   2.721  18.302  0.00  0.00    +0.000 C 
ATOM     14  C   UNL     1      54.335   1.529  17.816  0.00  0.00    +0.000 C 
ATOM     15  C   UNL     1      53.331   0.380  17.869  0.00  0.00    +0.000 C 
ATOM     16  C   UNL     1      51.971   1.036  17.648  0.00  0.00    +0.000 C 
ENDBRANCH   9  10
ENDBRANCH   8   9
ENDBRANCH   5   8
ENDBRANCH   1   2
BRANCH   1  19
ATOM     17  O   UNL     1      45.526   7.863  11.741  0.00  0.00    +0.000 OA
ATOM     18  C   UNL     1      46.193   6.848  11.514  0.00  0.00    +0.000 C 
ATOM     19  N   UNL     1      47.471   6.683  11.959  0.00  0.00    +0.000 N 
ATOM     20  H   UNL     1      48.021   5.905  11.607  0.00  0.00    +0.000 HD
BRANCH  18  21
ATOM     21  C   UNL     1      45.631   5.710  10.793  0.00  0.00    +0.000 A 
ATOM     22  C   UNL     1      45.843   5.511   9.437  0.00  0.00    +0.000 A 
ATOM     23  S   UNL     1      45.074   4.100   8.844  0.00  0.00    +0.000 S 
ATOM     24  C   UNL     1      44.467   3.712  10.386  0.00  0.00    +0.000 A 
ATOM     25  N   UNL     1      43.721   2.595  10.594  0.00  0.00    +0.000 NA
ATOM     26  C   UNL     1      43.350   2.426  11.821  0.00  0.00    +0.000 A 
ATOM     27  N   UNL     1      43.651   3.261  12.857  0.00  0.00    +0.000 N 
ATOM     28  C   UNL     1      44.340   4.427  12.691  0.00  0.00    +0.000 A 
ATOM     29  O   UNL     1      44.454   5.230  13.617  0.00  0.00    +0.000 OA
ATOM     30  C   UNL     1      44.821   4.652  11.333  0.00  0.00    +0.000 A 
ATOM     31  H   UNL     1      43.295   3.103  13.787  0.00  0.00    +0.000 HD
ENDBRANCH  18  21
ENDBRANCH   1  19
TORSDOF 6
ENDMDL
MODEL 9
REMARK VINA RESULT:    -6.736      1.727      2.071
REMARK INTER + INTRA:         -10.274
REMARK INTER:                  -9.439
REMARK INTRA:                  -0.835
REMARK UNBOUND:                -1.175
REMARK  Name = 
REMARK  6 active torsions:
REMARK  status: ('A' for Active; 'I' for Inactive)
REMARK    1  A    between atoms: C_2  and  C_20
REMARK    2  A    between atoms: N_3  and  C_4
REMARK    3  A    between atoms: C_4  and  C_5
REMARK    4  A    between atoms: C_8  and  C_9
REMARK    5  A    between atoms: C_9  and  C_10
REMARK    6  A    between atoms: C_10  and  C_11
REMARK                            x       y       z     vdW  Elec       q    Type
REMARK                         _______ _______ _______ _____ _____    ______ ____
ROOT
ATOM      1  C   UNL     1      47.107   8.816  13.039  0.00  0.00    +0.000 C 
ENDROOT
BRANCH   1   2
ATOM      2  C   UNL     1      46.302   7.726  12.376  0.00  0.00    +0.000 A 
ATOM      3  C   UNL     1      46.961   6.785  11.571  0.00  0.00    +0.000 A 
ATOM      4  C   UNL     1      46.266   5.732  10.967  0.00  0.00    +0.000 A 
ATOM      5  C   UNL     1      44.887   5.584  11.158  0.00  0.00    +0.000 A 
ATOM      6  C   UNL     1      44.223   6.539  11.942  0.00  0.00    +0.000 A 
ATOM      7  C   UNL     1      44.917   7.604  12.533  0.00  0.00    +0.000 A 
BRANCH   5   8
ATOM      8  C   UNL     1      44.087   4.484  10.493  0.00  0.00    +0.000 C 
BRANCH   8   9
ATOM      9  C   UNL     1      44.482   4.184   9.047  0.00  0.00    +0.000 C 
BRANCH   9  10
ATOM     10  C   UNL     1      45.023   2.774   8.891  0.00  0.00    +0.000 C 
ATOM     11  O   UNL     1      44.573   1.813   9.510  0.00  0.00    +0.000 OA
ATOM     12  N   UNL     1      46.046   2.630   7.968  0.00  0.00    +0.000 N 
ATOM     13  C   UNL     1      46.701   3.664   7.189  0.00  0.00    +0.000 C 
ATOM     14  C   UNL     1      47.178   2.920   5.956  0.00  0.00    +0.000 C 
ATOM     15  C   UNL     1      47.549   1.541   6.497  0.00  0.00    +0.000 C 
ATOM     16  C   UNL     1      46.636   1.334   7.703  0.00  0.00    +0.000 C 
ENDBRANCH   9  10
ENDBRANCH   8   9
ENDBRANCH   5   8
ENDBRANCH   1   2
BRANCH   1  19
ATOM     17  O   UNL     1      47.928   8.997  15.748  0.00  0.00    +0.000 OA
ATOM     18  C   UNL     1      48.663   8.450  14.918  0.00  0.00    +0.000 C 
ATOM     19  N   UNL     1      48.352   8.359  13.594  0.00  0.00    +0.000 N 
ATOM     20  H   UNL     1      48.912   7.761  12.994  0.00  0.00    +0.000 HD
BRANCH  18  21
ATOM     21  C   UNL     1      49.964   7.905  15.293  0.00  0.00    +0.000 A 
ATOM     22  C   UNL     1      51.158   8.493  14.903  0.00  0.00    +0.000 A 
ATOM     23  S   UNL     1      52.533   7.652  15.481  0.00  0.00    +0.000 S 
ATOM     24  C   UNL     1      51.566   6.504  16.285  0.00  0.00    +0.000 A 
ATOM     25  N   UNL     1      52.118   5.492  17.005  0.00  0.00    +0.000 NA
ATOM     26  C   UNL     1      51.255   4.714  17.573  0.00  0.00    +0.000 A 
ATOM     27  N   UNL     1      49.900   4.848  17.491  0.00  0.00    +0.000 N 
ATOM     28  C   UNL     1      49.296   5.806  16.730  0.00  0.00    +0.000 A 
ATOM     29  O   UNL     1      48.078   5.796  16.554  0.00  0.00    +0.000 OA
ATOM     30  C   UNL     1      50.219   6.740  16.096  0.00  0.00    +0.000 A 
ATOM     31  H   UNL     1      49.274   4.183  17.918  0.00  0.00    +0.000 HD
ENDBRANCH  18  21
ENDBRANCH   1  19
TORSDOF 6
ENDMDL
