MODEL 1
REMARK VINA RESULT:    -8.161      0.000      0.000
REMARK INTER + INTRA:         -12.911
REMARK INTER:                 -11.501
REMARK INTRA:                  -1.410
REMARK UNBOUND:                -1.410
REMARK  Name = 
REMARK  9 active torsions:
REMARK  status: ('A' for Active; 'I' for Inactive)
REMARK    1  A    between atoms: C_1  and  C_2
REMARK    2  A    between atoms: C_2  and  N_3
REMARK    3  A    between atoms: C_2  and  C_17
REMARK    4  A    between atoms: C_4  and  C_6
REMARK    5  A    between atoms: N_12  and  C_13
REMARK    6  A    between atoms: C_20  and  O_21
REMARK    7  A    between atoms: O_21  and  C_22
REMARK    8  A    between atoms: C_22  and  C_23
REMARK    9  A    between atoms: C_27  and  C_28
REMARK                            x       y       z     vdW  Elec       q    Type
REMARK                         _______ _______ _______ _____ _____    ______ ____
ROOT
ATOM      1  C   UNL     1      48.128   7.656  13.694  0.00  0.00    +0.000 C 
ATOM      2  C   UNL     1      48.086   6.249  14.291  0.00  0.00    +0.000 C 
ENDROOT
BRANCH   2   3
ATOM      3  C   UNL     1      46.976   5.433  13.633  0.00  0.00    +0.000 A 
ATOM      4  C   UNL     1      47.023   4.034  13.600  0.00  0.00    +0.000 A 
ATOM      5  C   UNL     1      46.023   3.326  12.934  0.00  0.00    +0.000 A 
ATOM      6  C   UNL     1      45.005   4.025  12.301  0.00  0.00    +0.000 A 
ATOM      7  C   UNL     1      45.000   5.408  12.433  0.00  0.00    +0.000 A 
ATOM      8  N   UNL     1      45.960   6.123  13.063  0.00  0.00    +0.000 NA
BRANCH   6   9
ATOM      9  O   UNL     1      44.106   3.288  11.583  0.00  0.00    +0.000 OA
BRANCH   9  10
ATOM     10  C   UNL     1      43.814   3.833  10.291  0.00  0.00    +0.000 C 
BRANCH  10  11
ATOM     11  C   UNL     1      44.885   3.477   9.291  0.00  0.00    +0.000 A 
ATOM     12  C   UNL     1      45.503   4.497   8.552  0.00  0.00    +0.000 A 
ATOM     13  C   UNL     1      46.459   4.198   7.583  0.00  0.00    +0.000 A 
ATOM     14  C   UNL     1      46.805   2.872   7.335  0.00  0.00    +0.000 A 
ATOM     15  C   UNL     1      46.192   1.843   8.058  0.00  0.00    +0.000 A 
ATOM     16  C   UNL     1      45.230   2.144   9.029  0.00  0.00    +0.000 A 
BRANCH  15  17
ATOM     17  C   UNL     1      46.545   0.483   7.803  0.00  0.00    +0.000 C 
ATOM     18  N   UNL     1      46.828  -0.625   7.588  0.00  0.00    +0.000 NA
ENDBRANCH  15  17
ENDBRANCH  10  11
ENDBRANCH   9  10
ENDBRANCH   6   9
ENDBRANCH   2   3
BRANCH   2  19
ATOM     19  N   UNL     1      47.920   6.268  15.736  0.00  0.00    +0.000 N 
ATOM     20  C   UNL     1      48.950   6.116  16.624  0.00  0.00    +0.000 C 
ATOM     21  O   UNL     1      50.093   5.835  16.276  0.00  0.00    +0.000 OA
ATOM     22  H   UNL     1      47.015   6.565  16.079  0.00  0.00    +0.000 HD
BRANCH  20  23
ATOM     23  C   UNL     1      48.604   6.288  18.039  0.00  0.00    +0.000 A 
ATOM     24  C   UNL     1      48.723   5.226  18.924  0.00  0.00    +0.000 A 
ATOM     25  S   UNL     1      48.262   5.618  20.520  0.00  0.00    +0.000 S 
ATOM     26  C   UNL     1      47.925   7.230  20.088  0.00  0.00    +0.000 A 
ATOM     27  N   UNL     1      47.493   8.130  21.009  0.00  0.00    +0.000 NA
ATOM     28  C   UNL     1      47.298   9.322  20.544  0.00  0.00    +0.000 A 
ATOM     29  N   UNL     1      47.492   9.712  19.238  0.00  0.00    +0.000 N 
ATOM     30  C   UNL     1      47.226  11.070  18.812  0.00  0.00    +0.000 C 
ATOM     31  C   UNL     1      47.925   8.815  18.270  0.00  0.00    +0.000 A 
ATOM     32  O   UNL     1      48.077   9.139  17.095  0.00  0.00    +0.000 OA
ATOM     33  C   UNL     1      48.152   7.463  18.747  0.00  0.00    +0.000 A 
ENDBRANCH  20  23
ENDBRANCH   2  19
TORSDOF 7
ENDMDL
MODEL 2
REMARK VINA RESULT:    -8.041      2.387      2.976
REMARK INTER + INTRA:         -12.741
REMARK INTER:                 -11.468
REMARK INTRA:                  -1.273
REMARK UNBOUND:                -1.410
REMARK  Name = 
REMARK  9 active torsions:
REMARK  status: ('A' for Active; 'I' for Inactive)
REMARK    1  A    between atoms: C_1  and  C_2
REMARK    2  A    between atoms: C_2  and  N_3
REMARK    3  A    between atoms: C_2  and  C_17
REMARK    4  A    between atoms: C_4  and  C_6
REMARK    5  A    between atoms: N_12  and  C_13
REMARK    6  A    between atoms: C_20  and  O_21
REMARK    7  A    between atoms: O_21  and  C_22
REMARK    8  A    between atoms: C_22  and  C_23
REMARK    9  A    between atoms: C_27  and  C_28
REMARK                            x       y       z     vdW  Elec       q    Type
REMARK                         _______ _______ _______ _____ _____    ______ ____
ROOT
ATOM      1  C   UNL     1      46.082   8.878  13.218  0.00  0.00    +0.000 C 
ATOM      2  C   UNL     1      46.994   7.651  13.255  0.00  0.00    +0.000 C 
ENDROOT
BRANCH   2   3
ATOM      3  C   UNL     1      46.164   6.377  13.114  0.00  0.00    +0.000 A 
ATOM      4  C   UNL     1      46.762   5.111  13.156  0.00  0.00    +0.000 A 
ATOM      5  C   UNL     1      45.981   3.973  12.958  0.00  0.00    +0.000 A 
ATOM      6  C   UNL     1      44.624   4.118  12.707  0.00  0.00    +0.000 A 
ATOM      7  C   UNL     1      44.100   5.403  12.743  0.00  0.00    +0.000 A 
ATOM      8  N   UNL     1      44.832   6.527  12.921  0.00  0.00    +0.000 NA
BRANCH   6   9
ATOM      9  O   UNL     1      43.925   2.978  12.426  0.00  0.00    +0.000 OA
BRANCH   9  10
ATOM     10  C   UNL     1      43.251   3.012  11.163  0.00  0.00    +0.000 C 
BRANCH  10  11
ATOM     11  C   UNL     1      44.231   3.061  10.018  0.00  0.00    +0.000 A 
ATOM     12  C   UNL     1      44.464   4.281   9.364  0.00  0.00    +0.000 A 
ATOM     13  C   UNL     1      45.325   4.351   8.271  0.00  0.00    +0.000 A 
ATOM     14  C   UNL     1      45.959   3.200   7.812  0.00  0.00    +0.000 A 
ATOM     15  C   UNL     1      45.731   1.975   8.448  0.00  0.00    +0.000 A 
ATOM     16  C   UNL     1      44.865   1.905   9.545  0.00  0.00    +0.000 A 
BRANCH  15  17
ATOM     17  C   UNL     1      46.381   0.794   7.977  0.00  0.00    +0.000 C 
ATOM     18  N   UNL     1      46.918  -0.166   7.597  0.00  0.00    +0.000 NA
ENDBRANCH  15  17
ENDBRANCH  10  11
ENDBRANCH   9  10
ENDBRANCH   6   9
ENDBRANCH   2   3
BRANCH   2  19
ATOM     19  N   UNL     1      47.803   7.603  14.463  0.00  0.00    +0.000 N 
ATOM     20  C   UNL     1      49.153   7.378  14.468  0.00  0.00    +0.000 C 
ATOM     21  O   UNL     1      49.782   7.081  13.458  0.00  0.00    +0.000 OA
ATOM     22  H   UNL     1      47.353   7.909  15.317  0.00  0.00    +0.000 HD
BRANCH  20  23
ATOM     23  C   UNL     1      49.814   7.489  15.773  0.00  0.00    +0.000 A 
ATOM     24  C   UNL     1      50.599   8.594  16.070  0.00  0.00    +0.000 A 
ATOM     25  S   UNL     1      51.291   8.534  17.630  0.00  0.00    +0.000 S 
ATOM     26  C   UNL     1      50.532   7.049  17.973  0.00  0.00    +0.000 A 
ATOM     27  N   UNL     1      50.696   6.436  19.173  0.00  0.00    +0.000 NA
ATOM     28  C   UNL     1      50.044   5.326  19.303  0.00  0.00    +0.000 A 
ATOM     29  N   UNL     1      49.235   4.757  18.343  0.00  0.00    +0.000 N 
ATOM     30  C   UNL     1      48.561   3.498  18.579  0.00  0.00    +0.000 C 
ATOM     31  C   UNL     1      49.052   5.354  17.102  0.00  0.00    +0.000 A 
ATOM     32  O   UNL     1      48.357   4.848  16.226  0.00  0.00    +0.000 OA
ATOM     33  C   UNL     1      49.771   6.601  16.912  0.00  0.00    +0.000 A 
ENDBRANCH  20  23
ENDBRANCH   2  19
TORSDOF 7
ENDMDL
MODEL 3
REMARK VINA RESULT:    -7.440      2.419      3.448
REMARK INTER + INTRA:         -11.895
REMARK INTER:                 -10.654
REMARK INTRA:                  -1.240
REMARK UNBOUND:                -1.410
REMARK  Name = 
REMARK  9 active torsions:
REMARK  status: ('A' for Active; 'I' for Inactive)
REMARK    1  A    between atoms: C_1  and  C_2
REMARK    2  A    between atoms: C_2  and  N_3
REMARK    3  A    between atoms: C_2  and  C_17
REMARK    4  A    between atoms: C_4  and  C_6
REMARK    5  A    between atoms: N_12  and  C_13
REMARK    6  A    between atoms: C_20  and  O_21
REMARK    7  A    between atoms: O_21  and  C_22
REMARK    8  A    between atoms: C_22  and  C_23
REMARK    9  A    between atoms: C_27  and  C_28
REMARK                            x       y       z     vdW  Elec       q    Type
REMARK                         _______ _______ _______ _____ _____    ______ ____
ROOT
ATOM      1  C   UNL     1      47.907   3.057  15.856  0.00  0.00    +0.000 C 
ATOM      2  C   UNL     1      47.159   4.389  15.771  0.00  0.00    +0.000 C 
ENDROOT
BRANCH   2   3
ATOM      3  C   UNL     1      46.681   4.630  14.341  0.00  0.00    +0.000 A 
ATOM      4  C   UNL     1      46.890   5.859  13.701  0.00  0.00    +0.000 A 
ATOM      5  C   UNL     1      46.381   6.063  12.420  0.00  0.00    +0.000 A 
ATOM      6  C   UNL     1      45.662   5.048  11.806  0.00  0.00    +0.000 A 
ATOM      7  C   UNL     1      45.552   3.841  12.484  0.00  0.00    +0.000 A 
ATOM      8  N   UNL     1      46.025   3.614  13.731  0.00  0.00    +0.000 NA
BRANCH   6   9
ATOM      9  O   UNL     1      45.105   5.335  10.592  0.00  0.00    +0.000 OA
BRANCH   9  10
ATOM     10  C   UNL     1      44.503   4.204   9.951  0.00  0.00    +0.000 C 
BRANCH  10  11
ATOM     11  C   UNL     1      45.422   3.610   8.913  0.00  0.00    +0.000 A 
ATOM     12  C   UNL     1      46.055   4.456   7.990  0.00  0.00    +0.000 A 
ATOM     13  C   UNL     1      46.870   3.936   6.986  0.00  0.00    +0.000 A 
ATOM     14  C   UNL     1      47.055   2.560   6.887  0.00  0.00    +0.000 A 
ATOM     15  C   UNL     1      46.424   1.702   7.794  0.00  0.00    +0.000 A 
ATOM     16  C   UNL     1      45.605   2.225   8.801  0.00  0.00    +0.000 A 
BRANCH  15  17
ATOM     17  C   UNL     1      46.613   0.290   7.693  0.00  0.00    +0.000 C 
ATOM     18  N   UNL     1      46.776  -0.859   7.608  0.00  0.00    +0.000 NA
ENDBRANCH  15  17
ENDBRANCH  10  11
ENDBRANCH   9  10
ENDBRANCH   6   9
ENDBRANCH   2   3
BRANCH   2  19
ATOM     19  N   UNL     1      47.969   5.505  16.235  0.00  0.00    +0.000 N 
ATOM     20  C   UNL     1      48.087   5.866  17.550  0.00  0.00    +0.000 C 
ATOM     21  O   UNL     1      47.427   5.348  18.444  0.00  0.00    +0.000 OA
ATOM     22  H   UNL     1      48.589   5.924  15.553  0.00  0.00    +0.000 HD
BRANCH  20  23
ATOM     23  C   UNL     1      49.045   6.941  17.833  0.00  0.00    +0.000 A 
ATOM     24  C   UNL     1      48.601   8.176  18.283  0.00  0.00    +0.000 A 
ATOM     25  S   UNL     1      49.862   9.296  18.544  0.00  0.00    +0.000 S 
ATOM     26  C   UNL     1      51.045   8.154  18.102  0.00  0.00    +0.000 A 
ATOM     27  N   UNL     1      52.366   8.467  18.121  0.00  0.00    +0.000 NA
ATOM     28  C   UNL     1      53.153   7.497  17.783  0.00  0.00    +0.000 A 
ATOM     29  N   UNL     1      52.749   6.230  17.422  0.00  0.00    +0.000 N 
ATOM     30  C   UNL     1      53.710   5.216  17.040  0.00  0.00    +0.000 C 
ATOM     31  C   UNL     1      51.406   5.879  17.385  0.00  0.00    +0.000 A 
ATOM     32  O   UNL     1      51.027   4.764  17.040  0.00  0.00    +0.000 OA
ATOM     33  C   UNL     1      50.487   6.942  17.753  0.00  0.00    +0.000 A 
ENDBRANCH  20  23
ENDBRANCH   2  19
TORSDOF 7
ENDMDL
MODEL 4
REMARK VINA RESULT:    -7.432      3.072      9.030
REMARK INTER + INTRA:         -11.883
REMARK INTER:                 -10.685
REMARK INTRA:                  -1.198
REMARK UNBOUND:                -1.410
REMARK  Name = 
REMARK  9 active torsions:
REMARK  status: ('A' for Active; 'I' for Inactive)
REMARK    1  A    between atoms: C_1  and  C_2
REMARK    2  A    between atoms: C_2  and  N_3
REMARK    3  A    between atoms: C_2  and  C_17
REMARK    4  A    between atoms: C_4  and  C_6
REMARK    5  A    between atoms: N_12  and  C_13
REMARK    6  A    between atoms: C_20  and  O_21
REMARK    7  A    between atoms: O_21  and  C_22
REMARK    8  A    between atoms: C_22  and  C_23
REMARK    9  A    between atoms: C_27  and  C_28
REMARK                            x       y       z     vdW  Elec       q    Type
REMARK                         _______ _______ _______ _____ _____    ______ ____
ROOT
ATOM      1  C   UNL     1      48.520   8.102  11.403  0.00  0.00    +0.000 C 
ATOM      2  C   UNL     1      47.537   7.906  12.558  0.00  0.00    +0.000 C 
ENDROOT
BRANCH   2   3
ATOM      3  C   UNL     1      48.291   7.851  13.885  0.00  0.00    +0.000 A 
ATOM      4  C   UNL     1      49.441   7.067  14.036  0.00  0.00    +0.000 A 
ATOM      5  C   UNL     1      50.065   6.992  15.281  0.00  0.00    +0.000 A 
ATOM      6  C   UNL     1      49.523   7.687  16.353  0.00  0.00    +0.000 A 
ATOM      7  C   UNL     1      48.417   8.489  16.104  0.00  0.00    +0.000 A 
ATOM      8  N   UNL     1      47.783   8.574  14.911  0.00  0.00    +0.000 NA
BRANCH   6   9
ATOM      9  O   UNL     1      50.118   7.502  17.570  0.00  0.00    +0.000 OA
BRANCH   9  10
ATOM     10  C   UNL     1      49.290   6.818  18.518  0.00  0.00    +0.000 C 
BRANCH  10  11
ATOM     11  C   UNL     1      48.897   5.452  18.017  0.00  0.00    +0.000 A 
ATOM     12  C   UNL     1      47.543   5.172  17.774  0.00  0.00    +0.000 A 
ATOM     13  C   UNL     1      47.139   3.904  17.359  0.00  0.00    +0.000 A 
ATOM     14  C   UNL     1      48.085   2.896  17.190  0.00  0.00    +0.000 A 
ATOM     15  C   UNL     1      49.436   3.156  17.436  0.00  0.00    +0.000 A 
ATOM     16  C   UNL     1      49.841   4.430  17.855  0.00  0.00    +0.000 A 
BRANCH  15  17
ATOM     17  C   UNL     1      50.406   2.123  17.264  0.00  0.00    +0.000 C 
ATOM     18  N   UNL     1      51.199   1.283  17.115  0.00  0.00    +0.000 NA
ENDBRANCH  15  17
ENDBRANCH  10  11
ENDBRANCH   9  10
ENDBRANCH   6   9
ENDBRANCH   2   3
BRANCH   2  19
ATOM     19  N   UNL     1      46.716   6.716  12.386  0.00  0.00    +0.000 N 
ATOM     20  C   UNL     1      45.506   6.711  11.747  0.00  0.00    +0.000 C 
ATOM     21  O   UNL     1      44.953   7.735  11.361  0.00  0.00    +0.000 OA
ATOM     22  H   UNL     1      47.152   5.833  12.621  0.00  0.00    +0.000 HD
BRANCH  20  23
ATOM     23  C   UNL     1      44.886   5.394  11.566  0.00  0.00    +0.000 A 
ATOM     24  C   UNL     1      44.071   4.860  12.554  0.00  0.00    +0.000 A 
ATOM     25  S   UNL     1      43.454   3.317  12.164  0.00  0.00    +0.000 S 
ATOM     26  C   UNL     1      44.224   3.330  10.646  0.00  0.00    +0.000 A 
ATOM     27  N   UNL     1      44.093   2.290   9.782  0.00  0.00    +0.000 NA
ATOM     28  C   UNL     1      44.714   2.445   8.658  0.00  0.00    +0.000 A 
ATOM     29  N   UNL     1      45.463   3.545   8.303  0.00  0.00    +0.000 N 
ATOM     30  C   UNL     1      46.137   3.614   7.024  0.00  0.00    +0.000 C 
ATOM     31  C   UNL     1      45.624   4.622   9.166  0.00  0.00    +0.000 A 
ATOM     32  O   UNL     1      46.310   5.598   8.877  0.00  0.00    +0.000 OA
ATOM     33  C   UNL     1      44.947   4.487  10.443  0.00  0.00    +0.000 A 
ENDBRANCH  20  23
ENDBRANCH   2  19
TORSDOF 7
ENDMDL
MODEL 5
REMARK VINA RESULT:    -7.068      3.119      9.476
REMARK INTER + INTRA:         -11.369
REMARK INTER:                 -10.143
REMARK INTRA:                  -1.226
REMARK UNBOUND:                -1.410
REMARK  Name = 
REMARK  9 active torsions:
REMARK  status: ('A' for Active; 'I' for Inactive)
REMARK    1  A    between atoms: C_1  and  C_2
REMARK    2  A    between atoms: C_2  and  N_3
REMARK    3  A    between atoms: C_2  and  C_17
REMARK    4  A    between atoms: C_4  and  C_6
REMARK    5  A    between atoms: N_12  and  C_13
REMARK    6  A    between atoms: C_20  and  O_21
REMARK    7  A    between atoms: O_21  and  C_22
REMARK    8  A    between atoms: C_22  and  C_23
REMARK    9  A    between atoms: C_27  and  C_28
REMARK                            x       y       z     vdW  Elec       q    Type
REMARK                         _______ _______ _______ _____ _____    ______ ____
ROOT
ATOM      1  C   UNL     1      49.234   7.700  11.063  0.00  0.00    +0.000 C 
ATOM      2  C   UNL     1      48.075   7.888  12.043  0.00  0.00    +0.000 C 
ENDROOT
BRANCH   2   3
ATOM      3  C   UNL     1      48.613   8.139  13.449  0.00  0.00    +0.000 A 
ATOM      4  C   UNL     1      47.864   8.844  14.400  0.00  0.00    +0.000 A 
ATOM      5  C   UNL     1      48.415   9.110  15.652  0.00  0.00    +0.000 A 
ATOM      6  C   UNL     1      49.706   8.683  15.929  0.00  0.00    +0.000 A 
ATOM      7  C   UNL     1      50.357   7.938  14.954  0.00  0.00    +0.000 A 
ATOM      8  N   UNL     1      49.854   7.673  13.727  0.00  0.00    +0.000 NA
BRANCH   6   9
ATOM      9  O   UNL     1      50.231   9.053  17.135  0.00  0.00    +0.000 OA
BRANCH   9  10
ATOM     10  C   UNL     1      50.564   7.947  17.983  0.00  0.00    +0.000 C 
BRANCH  10  11
ATOM     11  C   UNL     1      49.326   7.249  18.485  0.00  0.00    +0.000 A 
ATOM     12  C   UNL     1      48.694   7.719  19.646  0.00  0.00    +0.000 A 
ATOM     13  C   UNL     1      47.578   7.067  20.166  0.00  0.00    +0.000 A 
ATOM     14  C   UNL     1      47.083   5.929  19.534  0.00  0.00    +0.000 A 
ATOM     15  C   UNL     1      47.706   5.442  18.381  0.00  0.00    +0.000 A 
ATOM     16  C   UNL     1      48.829   6.097  17.860  0.00  0.00    +0.000 A 
BRANCH  15  17
ATOM     17  C   UNL     1      47.200   4.274  17.733  0.00  0.00    +0.000 C 
ATOM     18  N   UNL     1      46.792   3.317  17.212  0.00  0.00    +0.000 NA
ENDBRANCH  15  17
ENDBRANCH  10  11
ENDBRANCH   9  10
ENDBRANCH   6   9
ENDBRANCH   2   3
BRANCH   2  19
ATOM     19  N   UNL     1      47.162   6.756  12.038  0.00  0.00    +0.000 N 
ATOM     20  C   UNL     1      45.842   6.842  11.688  0.00  0.00    +0.000 C 
ATOM     21  O   UNL     1      45.284   7.909  11.455  0.00  0.00    +0.000 OA
ATOM     22  H   UNL     1      47.581   5.841  12.153  0.00  0.00    +0.000 HD
BRANCH  20  23
ATOM     23  C   UNL     1      45.113   5.570  11.627  0.00  0.00    +0.000 A 
ATOM     24  C   UNL     1      44.339   5.154  12.700  0.00  0.00    +0.000 A 
ATOM     25  S   UNL     1      43.580   3.646  12.444  0.00  0.00    +0.000 S 
ATOM     26  C   UNL     1      44.230   3.520  10.876  0.00  0.00    +0.000 A 
ATOM     27  N   UNL     1      43.956   2.452  10.084  0.00  0.00    +0.000 NA
ATOM     28  C   UNL     1      44.500   2.499   8.911  0.00  0.00    +0.000 A 
ATOM     29  N   UNL     1      45.300   3.518   8.441  0.00  0.00    +0.000 N 
ATOM     30  C   UNL     1      45.877   3.467   7.115  0.00  0.00    +0.000 C 
ATOM     31  C   UNL     1      45.606   4.621   9.228  0.00  0.00    +0.000 A 
ATOM     32  O   UNL     1      46.339   5.524   8.835  0.00  0.00    +0.000 OA
ATOM     33  C   UNL     1      45.020   4.606  10.556  0.00  0.00    +0.000 A 
ENDBRANCH  20  23
ENDBRANCH   2  19
TORSDOF 7
ENDMDL
MODEL 6
REMARK VINA RESULT:    -6.900      3.910      5.486
REMARK INTER + INTRA:         -11.133
REMARK INTER:                 -10.496
REMARK INTRA:                  -0.637
REMARK UNBOUND:                -1.410
REMARK  Name = 
REMARK  9 active torsions:
REMARK  status: ('A' for Active; 'I' for Inactive)
REMARK    1  A    between atoms: C_1  and  C_2
REMARK    2  A    between atoms: C_2  and  N_3
REMARK    3  A    between atoms: C_2  and  C_17
REMARK    4  A    between atoms: C_4  and  C_6
REMARK    5  A    between atoms: N_12  and  C_13
REMARK    6  A    between atoms: C_20  and  O_21
REMARK    7  A    between atoms: O_21  and  C_22
REMARK    8  A    between atoms: C_22  and  C_23
REMARK    9  A    between atoms: C_27  and  C_28
REMARK                            x       y       z     vdW  Elec       q    Type
REMARK                         _______ _______ _______ _____ _____    ______ ____
ROOT
ATOM      1  C   UNL     1      47.132   2.506  17.958  0.00  0.00    +0.000 C 
ATOM      2  C   UNL     1      48.118   3.671  17.866  0.00  0.00    +0.000 C 
ENDROOT
BRANCH   2   3
ATOM      3  C   UNL     1      47.961   4.387  16.526  0.00  0.00    +0.000 A 
ATOM      4  C   UNL     1      48.544   5.640  16.298  0.00  0.00    +0.000 A 
ATOM      5  C   UNL     1      48.324   6.291  15.085  0.00  0.00    +0.000 A 
ATOM      6  C   UNL     1      47.518   5.689  14.129  0.00  0.00    +0.000 A 
ATOM      7  C   UNL     1      47.030   4.420  14.410  0.00  0.00    +0.000 A 
ATOM      8  N   UNL     1      47.216   3.767  15.581  0.00  0.00    +0.000 NA
BRANCH   6   9
ATOM      9  O   UNL     1      47.259   6.413  12.999  0.00  0.00    +0.000 OA
BRANCH   9  10
ATOM     10  C   UNL     1      45.886   6.798  12.863  0.00  0.00    +0.000 C 
BRANCH  10  11
ATOM     11  C   UNL     1      45.157   5.896  11.899  0.00  0.00    +0.000 A 
ATOM     12  C   UNL     1      43.938   5.319  12.285  0.00  0.00    +0.000 A 
ATOM     13  C   UNL     1      43.264   4.441  11.438  0.00  0.00    +0.000 A 
ATOM     14  C   UNL     1      43.805   4.123  10.196  0.00  0.00    +0.000 A 
ATOM     15  C   UNL     1      45.024   4.683   9.799  0.00  0.00    +0.000 A 
ATOM     16  C   UNL     1      45.701   5.564  10.651  0.00  0.00    +0.000 A 
BRANCH  15  17
ATOM     17  C   UNL     1      45.580   4.357   8.526  0.00  0.00    +0.000 C 
ATOM     18  N   UNL     1      46.028   4.096   7.483  0.00  0.00    +0.000 NA
ENDBRANCH  15  17
ENDBRANCH  10  11
ENDBRANCH   9  10
ENDBRANCH   6   9
ENDBRANCH   2   3
BRANCH   2  19
ATOM     19  N   UNL     1      49.495   3.243  18.060  0.00  0.00    +0.000 N 
ATOM     20  C   UNL     1      50.157   2.396  17.213  0.00  0.00    +0.000 C 
ATOM     21  O   UNL     1      49.607   1.831  16.274  0.00  0.00    +0.000 OA
ATOM     22  H   UNL     1      50.019   3.730  18.777  0.00  0.00    +0.000 HD
BRANCH  20  23
ATOM     23  C   UNL     1      51.577   2.178  17.509  0.00  0.00    +0.000 A 
ATOM     24  C   UNL     1      52.086   0.891  17.600  0.00  0.00    +0.000 A 
ATOM     25  S   UNL     1      53.753   0.844  17.962  0.00  0.00    +0.000 S 
ATOM     26  C   UNL     1      53.857   2.544  17.971  0.00  0.00    +0.000 A 
ATOM     27  N   UNL     1      55.036   3.175  18.208  0.00  0.00    +0.000 NA
ATOM     28  C   UNL     1      54.972   4.466  18.163  0.00  0.00    +0.000 A 
ATOM     29  N   UNL     1      53.836   5.202  17.903  0.00  0.00    +0.000 N 
ATOM     30  C   UNL     1      53.865   6.649  17.894  0.00  0.00    +0.000 C 
ATOM     31  C   UNL     1      52.613   4.588  17.665  0.00  0.00    +0.000 A 
ATOM     32  O   UNL     1      51.586   5.228  17.458  0.00  0.00    +0.000 OA
ATOM     33  C   UNL     1      52.639   3.136  17.711  0.00  0.00    +0.000 A 
ENDBRANCH  20  23
ENDBRANCH   2  19
TORSDOF 7
ENDMDL
MODEL 7
REMARK VINA RESULT:    -6.783      3.550      5.136
REMARK INTER + INTRA:         -10.968
REMARK INTER:                  -9.906
REMARK INTRA:                  -1.062
REMARK UNBOUND:                -1.410
REMARK  Name = 
REMARK  9 active torsions:
REMARK  status: ('A' for Active; 'I' for Inactive)
REMARK    1  A    between atoms: C_1  and  C_2
REMARK    2  A    between atoms: C_2  and  N_3
REMARK    3  A    between atoms: C_2  and  C_17
REMARK    4  A    between atoms: C_4  and  C_6
REMARK    5  A    between atoms: N_12  and  C_13
REMARK    6  A    between atoms: C_20  and  O_21
REMARK    7  A    between atoms: O_21  and  C_22
REMARK    8  A    between atoms: C_22  and  C_23
REMARK    9  A    between atoms: C_27  and  C_28
REMARK                            x       y       z     vdW  Elec       q    Type
REMARK                         _______ _______ _______ _____ _____    ______ ____
ROOT
ATOM      1  C   UNL     1      47.564   3.357  16.968  0.00  0.00    +0.000 C 
ATOM      2  C   UNL     1      48.049   4.782  16.700  0.00  0.00    +0.000 C 
ENDROOT
BRANCH   2   3
ATOM      3  C   UNL     1      47.641   5.219  15.295  0.00  0.00    +0.000 A 
ATOM      4  C   UNL     1      46.683   4.508  14.561  0.00  0.00    +0.000 A 
ATOM      5  C   UNL     1      46.385   4.898  13.257  0.00  0.00    +0.000 A 
ATOM      6  C   UNL     1      47.056   5.979  12.703  0.00  0.00    +0.000 A 
ATOM      7  C   UNL     1      47.947   6.666  13.517  0.00  0.00    +0.000 A 
ATOM      8  N   UNL     1      48.265   6.306  14.782  0.00  0.00    +0.000 NA
BRANCH   6   9
ATOM      9  O   UNL     1      46.795   6.259  11.391  0.00  0.00    +0.000 OA
BRANCH   9  10
ATOM     10  C   UNL     1      45.411   6.140  11.040  0.00  0.00    +0.000 C 
BRANCH  10  11
ATOM     11  C   UNL     1      45.162   4.915  10.197  0.00  0.00    +0.000 A 
ATOM     12  C   UNL     1      44.353   3.885  10.700  0.00  0.00    +0.000 A 
ATOM     13  C   UNL     1      44.144   2.718   9.968  0.00  0.00    +0.000 A 
ATOM     14  C   UNL     1      44.750   2.562   8.725  0.00  0.00    +0.000 A 
ATOM     15  C   UNL     1      45.566   3.575   8.212  0.00  0.00    +0.000 A 
ATOM     16  C   UNL     1      45.777   4.747   8.948  0.00  0.00    +0.000 A 
BRANCH  15  17
ATOM     17  C   UNL     1      46.188   3.415   6.936  0.00  0.00    +0.000 C 
ATOM     18  N   UNL     1      46.700   3.277   5.900  0.00  0.00    +0.000 NA
ENDBRANCH  15  17
ENDBRANCH  10  11
ENDBRANCH   9  10
ENDBRANCH   6   9
ENDBRANCH   2   3
BRANCH   2  19
ATOM     19  N   UNL     1      49.486   4.919  16.883  0.00  0.00    +0.000 N 
ATOM     20  C   UNL     1      50.063   5.511  17.974  0.00  0.00    +0.000 C 
ATOM     21  O   UNL     1      49.412   6.081  18.843  0.00  0.00    +0.000 OA
ATOM     22  H   UNL     1      50.071   4.407  16.234  0.00  0.00    +0.000 HD
BRANCH  20  23
ATOM     23  C   UNL     1      51.527   5.444  18.036  0.00  0.00    +0.000 A 
ATOM     24  C   UNL     1      52.274   6.598  18.226  0.00  0.00    +0.000 A 
ATOM     25  S   UNL     1      53.958   6.317  18.258  0.00  0.00    +0.000 S 
ATOM     26  C   UNL     1      53.741   4.641  18.058  0.00  0.00    +0.000 A 
ATOM     27  N   UNL     1      54.801   3.794  18.016  0.00  0.00    +0.000 NA
ATOM     28  C   UNL     1      54.487   2.546  17.882  0.00  0.00    +0.000 A 
ATOM     29  N   UNL     1      53.205   2.050  17.784  0.00  0.00    +0.000 N 
ATOM     30  C   UNL     1      52.959   0.634  17.617  0.00  0.00    +0.000 C 
ATOM     31  C   UNL     1      52.099   2.889  17.816  0.00  0.00    +0.000 A 
ATOM     32  O   UNL     1      50.952   2.468  17.702  0.00  0.00    +0.000 OA
ATOM     33  C   UNL     1      52.407   4.301  17.960  0.00  0.00    +0.000 A 
ENDBRANCH  20  23
ENDBRANCH   2  19
TORSDOF 7
ENDMDL
MODEL 8
REMARK VINA RESULT:    -6.678      2.772      3.602
REMARK INTER + INTRA:         -10.820
REMARK INTER:                  -9.554
REMARK INTRA:                  -1.267
REMARK UNBOUND:                -1.410
REMARK  Name = 
REMARK  9 active torsions:
REMARK  status: ('A' for Active; 'I' for Inactive)
REMARK    1  A    between atoms: C_1  and  C_2
REMARK    2  A    between atoms: C_2  and  N_3
REMARK    3  A    between atoms: C_2  and  C_17
REMARK    4  A    between atoms: C_4  and  C_6
REMARK    5  A    between atoms: N_12  and  C_13
REMARK    6  A    between atoms: C_20  and  O_21
REMARK    7  A    between atoms: O_21  and  C_22
REMARK    8  A    between atoms: C_22  and  C_23
REMARK    9  A    between atoms: C_27  and  C_28
REMARK                            x       y       z     vdW  Elec       q    Type
REMARK                         _______ _______ _______ _____ _____    ______ ____
ROOT
ATOM      1  C   UNL     1      49.005  10.276  14.157  0.00  0.00    +0.000 C 
ATOM      2  C   UNL     1      49.164   8.763  13.997  0.00  0.00    +0.000 C 
ENDROOT
BRANCH   2   3
ATOM      3  C   UNL     1      47.955   8.184  13.265  0.00  0.00    +0.000 A 
ATOM      4  C   UNL     1      48.100   7.169  12.311  0.00  0.00    +0.000 A 
ATOM      5  C   UNL     1      46.982   6.711  11.617  0.00  0.00    +0.000 A 
ATOM      6  C   UNL     1      45.743   7.281  11.875  0.00  0.00    +0.000 A 
ATOM      7  C   UNL     1      45.676   8.239  12.879  0.00  0.00    +0.000 A 
ATOM      8  N   UNL     1      46.744   8.712  13.562  0.00  0.00    +0.000 NA
BRANCH   6   9
ATOM      9  O   UNL     1      44.699   6.862  11.100  0.00  0.00    +0.000 OA
BRANCH   9  10
ATOM     10  C   UNL     1      44.078   5.660  11.570  0.00  0.00    +0.000 C 
BRANCH  10  11
ATOM     11  C   UNL     1      44.330   4.509  10.631  0.00  0.00    +0.000 A 
ATOM     12  C   UNL     1      43.884   3.225  10.980  0.00  0.00    +0.000 A 
ATOM     13  C   UNL     1      44.145   2.130  10.159  0.00  0.00    +0.000 A 
ATOM     14  C   UNL     1      44.865   2.304   8.980  0.00  0.00    +0.000 A 
ATOM     15  C   UNL     1      45.324   3.575   8.621  0.00  0.00    +0.000 A 
ATOM     16  C   UNL     1      45.062   4.674   9.447  0.00  0.00    +0.000 A 
BRANCH  15  17
ATOM     17  C   UNL     1      46.063   3.753   7.412  0.00  0.00    +0.000 C 
ATOM     18  N   UNL     1      46.657   3.901   6.422  0.00  0.00    +0.000 NA
ENDBRANCH  15  17
ENDBRANCH  10  11
ENDBRANCH   9  10
ENDBRANCH   6   9
ENDBRANCH   2   3
BRANCH   2  19
ATOM     19  N   UNL     1      49.360   8.092  15.273  0.00  0.00    +0.000 N 
ATOM     20  C   UNL     1      50.578   7.672  15.734  0.00  0.00    +0.000 C 
ATOM     21  O   UNL     1      51.600   7.723  15.056  0.00  0.00    +0.000 OA
ATOM     22  H   UNL     1      48.567   8.086  15.903  0.00  0.00    +0.000 HD
BRANCH  20  23
ATOM     23  C   UNL     1      50.592   7.127  17.096  0.00  0.00    +0.000 A 
ATOM     24  C   UNL     1      51.399   7.695  18.071  0.00  0.00    +0.000 A 
ATOM     25  S   UNL     1      51.286   6.914  19.584  0.00  0.00    +0.000 S 
ATOM     26  C   UNL     1      50.124   5.817  18.996  0.00  0.00    +0.000 A 
ATOM     27  N   UNL     1      49.583   4.867  19.801  0.00  0.00    +0.000 NA
ATOM     28  C   UNL     1      48.699   4.117  19.227  0.00  0.00    +0.000 A 
ATOM     29  N   UNL     1      48.294   4.220  17.914  0.00  0.00    +0.000 N 
ATOM     30  C   UNL     1      47.308   3.318  17.359  0.00  0.00    +0.000 C 
ATOM     31  C   UNL     1      48.833   5.176  17.062  0.00  0.00    +0.000 A 
ATOM     32  O   UNL     1      48.503   5.265  15.883  0.00  0.00    +0.000 OA
ATOM     33  C   UNL     1      49.835   6.037  17.665  0.00  0.00    +0.000 A 
ENDBRANCH  20  23
ENDBRANCH   2  19
TORSDOF 7
ENDMDL
MODEL 9
REMARK VINA RESULT:    -6.213      4.302      8.167
REMARK INTER + INTRA:         -10.166
REMARK INTER:                  -8.099
REMARK INTRA:                  -2.066
REMARK UNBOUND:                -1.410
REMARK  Name = 
REMARK  9 active torsions:
REMARK  status: ('A' for Active; 'I' for Inactive)
REMARK    1  A    between atoms: C_1  and  C_2
REMARK    2  A    between atoms: C_2  and  N_3
REMARK    3  A    between atoms: C_2  and  C_17
REMARK    4  A    between atoms: C_4  and  C_6
REMARK    5  A    between atoms: N_12  and  C_13
REMARK    6  A    between atoms: C_20  and  O_21
REMARK    7  A    between atoms: O_21  and  C_22
REMARK    8  A    between atoms: C_22  and  C_23
REMARK    9  A    between atoms: C_27  and  C_28
REMARK                            x       y       z     vdW  Elec       q    Type
REMARK                         _______ _______ _______ _____ _____    ______ ____
ROOT
ATOM      1  C   UNL     1      47.124   3.430  17.466  0.00  0.00    +0.000 C 
ATOM      2  C   UNL     1      47.912   4.069  16.322  0.00  0.00    +0.000 C 
ENDROOT
BRANCH   2   3
ATOM      3  C   UNL     1      48.940   5.052  16.878  0.00  0.00    +0.000 A 
ATOM      4  C   UNL     1      48.580   6.359  17.230  0.00  0.00    +0.000 A 
ATOM      5  C   UNL     1      49.559   7.247  17.673  0.00  0.00    +0.000 A 
ATOM      6  C   UNL     1      50.878   6.822  17.743  0.00  0.00    +0.000 A 
ATOM      7  C   UNL     1      51.140   5.493  17.434  0.00  0.00    +0.000 A 
ATOM      8  N   UNL     1      50.215   4.611  16.992  0.00  0.00    +0.000 NA
BRANCH   6   9
ATOM      9  O   UNL     1      51.810   7.759  18.092  0.00  0.00    +0.000 OA
BRANCH   9  10
ATOM     10  C   UNL     1      52.757   8.043  17.056  0.00  0.00    +0.000 C 
BRANCH  10  11
ATOM     11  C   UNL     1      52.125   8.829  15.935  0.00  0.00    +0.000 A 
ATOM     12  C   UNL     1      51.727  10.155  16.164  0.00  0.00    +0.000 A 
ATOM     13  C   UNL     1      51.093  10.893  15.166  0.00  0.00    +0.000 A 
ATOM     14  C   UNL     1      50.842  10.310  13.927  0.00  0.00    +0.000 A 
ATOM     15  C   UNL     1      51.225   8.987  13.685  0.00  0.00    +0.000 A 
ATOM     16  C   UNL     1      51.860   8.246  14.688  0.00  0.00    +0.000 A 
BRANCH  15  17
ATOM     17  C   UNL     1      50.967   8.389  12.414  0.00  0.00    +0.000 C 
ATOM     18  N   UNL     1      50.756   7.894  11.382  0.00  0.00    +0.000 NA
ENDBRANCH  15  17
ENDBRANCH  10  11
ENDBRANCH   9  10
ENDBRANCH   6   9
ENDBRANCH   2   3
BRANCH   2  19
ATOM     19  N   UNL     1      47.044   4.727  15.357  0.00  0.00    +0.000 N 
ATOM     20  C   UNL     1      46.793   4.241  14.102  0.00  0.00    +0.000 C 
ATOM     21  O   UNL     1      47.370   3.262  13.640  0.00  0.00    +0.000 OA
ATOM     22  H   UNL     1      46.488   5.498  15.706  0.00  0.00    +0.000 HD
BRANCH  20  23
ATOM     23  C   UNL     1      45.796   4.980  13.320  0.00  0.00    +0.000 A 
ATOM     24  C   UNL     1      44.601   4.376  12.956  0.00  0.00    +0.000 A 
ATOM     25  S   UNL     1      43.580   5.391  12.039  0.00  0.00    +0.000 S 
ATOM     26  C   UNL     1      44.684   6.684  12.133  0.00  0.00    +0.000 A 
ATOM     27  N   UNL     1      44.413   7.883  11.558  0.00  0.00    +0.000 NA
ATOM     28  C   UNL     1      45.331   8.779  11.727  0.00  0.00    +0.000 A 
ATOM     29  N   UNL     1      46.507   8.597  12.421  0.00  0.00    +0.000 N 
ATOM     30  C   UNL     1      47.482   9.661  12.537  0.00  0.00    +0.000 C 
ATOM     31  C   UNL     1      46.819   7.381  13.014  0.00  0.00    +0.000 A 
ATOM     32  O   UNL     1      47.874   7.193  13.612  0.00  0.00    +0.000 OA
ATOM     33  C   UNL     1      45.817   6.344  12.844  0.00  0.00    +0.000 A 
ENDBRANCH  20  23
ENDBRANCH   2  19
TORSDOF 7
ENDMDL
