MODEL 1
REMARK VINA RESULT:    -9.038      0.000      0.000
REMARK INTER + INTRA:         -11.781
REMARK INTER:                 -11.152
REMARK INTRA:                  -0.629
REMARK UNBOUND:                -0.629
REMARK  Name = 
REMARK  4 active torsions:
REMARK  status: ('A' for Active; 'I' for Inactive)
REMARK    1  A    between atoms: C_2  and  C_4
REMARK    2  A    between atoms: N_8  and  C_9
REMARK    3  A    between atoms: C_9  and  C_10
REMARK    4  A    between atoms: C_14  and  N_15
REMARK                            x       y       z     vdW  Elec       q    Type
REMARK                         _______ _______ _______ _____ _____    ______ ____
ROOT
ATOM      1  C   UNL     1      46.391   2.325   7.707  0.00  0.00    +0.000 A 
ATOM      2  C   UNL     1      45.611   1.799   8.732  0.00  0.00    +0.000 A 
ATOM      3  C   UNL     1      44.780   2.653   9.458  0.00  0.00    +0.000 A 
ATOM      4  C   UNL     1      44.750   4.013   9.159  0.00  0.00    +0.000 A 
ATOM      5  N   UNL     1      43.867   4.889   9.755  0.00  0.00    +0.000 N 
ATOM      6  N   UNL     1      45.532   4.536   8.195  0.00  0.00    +0.000 NA
ATOM      7  C   UNL     1      46.336   3.694   7.498  0.00  0.00    +0.000 A 
ATOM      8  H   UNL     1      44.097   5.845   9.484  0.00  0.00    +0.000 HD
ENDROOT
BRANCH   1  10
ATOM      9  N   UNL     1      48.320   2.101   6.254  0.00  0.00    +0.000 N 
ATOM     10  C   UNL     1      47.252   1.489   6.845  0.00  0.00    +0.000 C 
ATOM     11  O   UNL     1      47.040   0.293   6.703  0.00  0.00    +0.000 OA
ATOM     12  H   UNL     1      48.969   1.494   5.765  0.00  0.00    +0.000 HD
ATOM     13  H   UNL     1      48.670   2.998   6.561  0.00  0.00    +0.000 HD
ENDBRANCH   1  10
BRANCH   5  14
ATOM     14  C   UNL     1      43.558   4.748  11.173  0.00  0.00    +0.000 C 
BRANCH  14  15
ATOM     15  C   UNL     1      44.776   4.956  12.062  0.00  0.00    +0.000 A 
ATOM     16  N   UNL     1      44.967   4.119  13.103  0.00  0.00    +0.000 NA
ATOM     17  C   UNL     1      46.055   4.359  13.853  0.00  0.00    +0.000 A 
ATOM     18  C   UNL     1      46.916   5.406  13.624  0.00  0.00    +0.000 A 
ATOM     19  C   UNL     1      46.639   6.225  12.545  0.00  0.00    +0.000 A 
ATOM     20  N   UNL     1      45.569   6.006  11.765  0.00  0.00    +0.000 NA
BRANCH  19  21
ATOM     21  N   UNL     1      47.549   7.235  12.214  0.00  0.00    +0.000 N 
ATOM     22  C   UNL     1      47.146   8.582  12.627  0.00  0.00    +0.000 C 
ATOM     23  C   UNL     1      47.945   9.579  11.785  0.00  0.00    +0.000 C 
ATOM     24  C   UNL     1      49.449   9.350  11.936  0.00  0.00    +0.000 C 
ATOM     25  C   UNL     1      49.833   7.884  11.720  0.00  0.00    +0.000 C 
ATOM     26  C   UNL     1      48.949   6.933  12.532  0.00  0.00    +0.000 C 
ENDBRANCH  19  21
ENDBRANCH  14  15
ENDBRANCH   5  14
TORSDOF 4
ENDMDL
MODEL 2
REMARK VINA RESULT:    -7.848      1.728      3.198
REMARK INTER + INTRA:         -10.312
REMARK INTER:                  -9.600
REMARK INTRA:                  -0.712
REMARK UNBOUND:                -0.629
REMARK  Name = 
REMARK  4 active torsions:
REMARK  status: ('A' for Active; 'I' for Inactive)
REMARK    1  A    between atoms: C_2  and  C_4
REMARK    2  A    between atoms: N_8  and  C_9
REMARK    3  A    between atoms: C_9  and  C_10
REMARK    4  A    between atoms: C_14  and  N_15
REMARK                            x       y       z     vdW  Elec       q    Type
REMARK                         _______ _______ _______ _____ _____    ______ ____
ROOT
ATOM      1  C   UNL     1      46.347   2.113   7.891  0.00  0.00    +0.000 A 
ATOM      2  C   UNL     1      45.644   1.791   9.047  0.00  0.00    +0.000 A 
ATOM      3  C   UNL     1      44.894   2.783   9.682  0.00  0.00    +0.000 A 
ATOM      4  C   UNL     1      44.867   4.074   9.162  0.00  0.00    +0.000 A 
ATOM      5  N   UNL     1      44.055   5.067   9.667  0.00  0.00    +0.000 N 
ATOM      6  N   UNL     1      45.578   4.402   8.065  0.00  0.00    +0.000 NA
ATOM      7  C   UNL     1      46.303   3.429   7.459  0.00  0.00    +0.000 A 
ATOM      8  H   UNL     1      44.281   5.956   9.222  0.00  0.00    +0.000 HD
ENDROOT
BRANCH   1  10
ATOM      9  N   UNL     1      46.880  -0.201   7.393  0.00  0.00    +0.000 N 
ATOM     10  C   UNL     1      47.116   1.116   7.118  0.00  0.00    +0.000 C 
ATOM     11  O   UNL     1      47.899   1.455   6.242  0.00  0.00    +0.000 OA
ATOM     12  H   UNL     1      47.322  -0.873   6.776  0.00  0.00    +0.000 HD
ATOM     13  H   UNL     1      46.064  -0.510   7.904  0.00  0.00    +0.000 HD
ENDBRANCH   1  10
BRANCH   5  14
ATOM     14  C   UNL     1      43.861   5.174  11.109  0.00  0.00    +0.000 C 
BRANCH  14  15
ATOM     15  C   UNL     1      45.023   5.868  11.807  0.00  0.00    +0.000 A 
ATOM     16  N   UNL     1      45.477   7.034  11.304  0.00  0.00    +0.000 NA
ATOM     17  C   UNL     1      46.507   7.592  11.961  0.00  0.00    +0.000 A 
ATOM     18  C   UNL     1      47.107   7.016  13.056  0.00  0.00    +0.000 A 
ATOM     19  C   UNL     1      46.590   5.813  13.498  0.00  0.00    +0.000 A 
ATOM     20  N   UNL     1      45.551   5.234  12.875  0.00  0.00    +0.000 NA
BRANCH  19  21
ATOM     21  N   UNL     1      47.102   5.248  14.671  0.00  0.00    +0.000 N 
ATOM     22  C   UNL     1      47.281   3.794  14.624  0.00  0.00    +0.000 C 
ATOM     23  C   UNL     1      47.351   3.294  16.068  0.00  0.00    +0.000 C 
ATOM     24  C   UNL     1      48.468   3.992  16.843  0.00  0.00    +0.000 C 
ATOM     25  C   UNL     1      48.402   5.515  16.701  0.00  0.00    +0.000 C 
ATOM     26  C   UNL     1      48.258   5.950  15.239  0.00  0.00    +0.000 C 
ENDBRANCH  19  21
ENDBRANCH  14  15
ENDBRANCH   5  14
TORSDOF 4
ENDMDL
MODEL 3
REMARK VINA RESULT:    -7.486      1.606      2.453
REMARK INTER + INTRA:          -9.866
REMARK INTER:                  -9.630
REMARK INTRA:                  -0.237
REMARK UNBOUND:                -0.629
REMARK  Name = 
REMARK  4 active torsions:
REMARK  status: ('A' for Active; 'I' for Inactive)
REMARK    1  A    between atoms: C_2  and  C_4
REMARK    2  A    between atoms: N_8  and  C_9
REMARK    3  A    between atoms: C_9  and  C_10
REMARK    4  A    between atoms: C_14  and  N_15
REMARK                            x       y       z     vdW  Elec       q    Type
REMARK                         _______ _______ _______ _____ _____    ______ ____
ROOT
ATOM      1  C   UNL     1      46.594   2.480   7.148  0.00  0.00    +0.000 A 
ATOM      2  C   UNL     1      45.999   3.679   7.526  0.00  0.00    +0.000 A 
ATOM      3  C   UNL     1      45.284   3.733   8.723  0.00  0.00    +0.000 A 
ATOM      4  C   UNL     1      45.164   2.592   9.512  0.00  0.00    +0.000 A 
ATOM      5  N   UNL     1      44.575   2.605  10.760  0.00  0.00    +0.000 N 
ATOM      6  N   UNL     1      45.703   1.418   9.133  0.00  0.00    +0.000 NA
ATOM      7  C   UNL     1      46.395   1.380   7.966  0.00  0.00    +0.000 A 
ATOM      8  H   UNL     1      44.485   1.650  11.107  0.00  0.00    +0.000 HD
ENDROOT
BRANCH   1  10
ATOM      9  N   UNL     1      47.209   3.251   4.932  0.00  0.00    +0.000 N 
ATOM     10  C   UNL     1      47.422   2.345   5.931  0.00  0.00    +0.000 C 
ATOM     11  O   UNL     1      48.287   1.485   5.842  0.00  0.00    +0.000 OA
ATOM     12  H   UNL     1      47.863   3.223   4.156  0.00  0.00    +0.000 HD
ATOM     13  H   UNL     1      46.707   4.116   5.081  0.00  0.00    +0.000 HD
ENDBRANCH   1  10
BRANCH   5  14
ATOM     14  C   UNL     1      43.387   3.418  10.987  0.00  0.00    +0.000 C 
BRANCH  14  15
ATOM     15  C   UNL     1      43.718   4.880  11.256  0.00  0.00    +0.000 A 
ATOM     16  N   UNL     1      42.789   5.816  10.974  0.00  0.00    +0.000 NA
ATOM     17  C   UNL     1      43.144   7.086  11.228  0.00  0.00    +0.000 A 
ATOM     18  C   UNL     1      44.382   7.444  11.708  0.00  0.00    +0.000 A 
ATOM     19  C   UNL     1      45.281   6.424  11.956  0.00  0.00    +0.000 A 
ATOM     20  N   UNL     1      44.955   5.142  11.729  0.00  0.00    +0.000 NA
BRANCH  19  21
ATOM     21  N   UNL     1      46.511   6.736  12.545  0.00  0.00    +0.000 N 
ATOM     22  C   UNL     1      47.003   5.740  13.501  0.00  0.00    +0.000 C 
ATOM     23  C   UNL     1      48.036   6.431  14.393  0.00  0.00    +0.000 C 
ATOM     24  C   UNL     1      49.163   7.045  13.562  0.00  0.00    +0.000 C 
ATOM     25  C   UNL     1      48.628   7.912  12.419  0.00  0.00    +0.000 C 
ATOM     26  C   UNL     1      47.545   7.192  11.610  0.00  0.00    +0.000 C 
ENDBRANCH  19  21
ENDBRANCH  14  15
ENDBRANCH   5  14
TORSDOF 4
ENDMDL
MODEL 4
REMARK VINA RESULT:    -7.354      2.769      6.689
REMARK INTER + INTRA:          -9.703
REMARK INTER:                  -9.033
REMARK INTRA:                  -0.670
REMARK UNBOUND:                -0.629
REMARK  Name = 
REMARK  4 active torsions:
REMARK  status: ('A' for Active; 'I' for Inactive)
REMARK    1  A    between atoms: C_2  and  C_4
REMARK    2  A    between atoms: N_8  and  C_9
REMARK    3  A    between atoms: C_9  and  C_10
REMARK    4  A    between atoms: C_14  and  N_15
REMARK                            x       y       z     vdW  Elec       q    Type
REMARK                         _______ _______ _______ _____ _____    ______ ____
ROOT
ATOM      1  C   UNL     1      49.402   8.146  12.240  0.00  0.00    +0.000 A 
ATOM      2  C   UNL     1      48.201   8.727  11.846  0.00  0.00    +0.000 A 
ATOM      3  C   UNL     1      47.002   8.095  12.178  0.00  0.00    +0.000 A 
ATOM      4  C   UNL     1      47.020   6.896  12.884  0.00  0.00    +0.000 A 
ATOM      5  N   UNL     1      45.875   6.282  13.347  0.00  0.00    +0.000 N 
ATOM      6  N   UNL     1      48.181   6.307  13.234  0.00  0.00    +0.000 NA
ATOM      7  C   UNL     1      49.339   6.931  12.904  0.00  0.00    +0.000 A 
ATOM      8  H   UNL     1      46.106   5.364  13.726  0.00  0.00    +0.000 HD
ENDROOT
BRANCH   1  10
ATOM      9  N   UNL     1      51.816   8.128  12.478  0.00  0.00    +0.000 N 
ATOM     10  C   UNL     1      50.716   8.773  11.988  0.00  0.00    +0.000 C 
ATOM     11  O   UNL     1      50.816   9.801  11.334  0.00  0.00    +0.000 OA
ATOM     12  H   UNL     1      52.716   8.502  12.196  0.00  0.00    +0.000 HD
ATOM     13  H   UNL     1      51.791   7.162  12.777  0.00  0.00    +0.000 HD
ENDBRANCH   1  10
BRANCH   5  14
ATOM     14  C   UNL     1      44.674   6.282  12.520  0.00  0.00    +0.000 C 
BRANCH  14  15
ATOM     15  C   UNL     1      44.409   4.931  11.871  0.00  0.00    +0.000 A 
ATOM     16  N   UNL     1      43.455   4.136  12.399  0.00  0.00    +0.000 NA
ATOM     17  C   UNL     1      43.274   2.956  11.784  0.00  0.00    +0.000 A 
ATOM     18  C   UNL     1      44.023   2.540  10.709  0.00  0.00    +0.000 A 
ATOM     19  C   UNL     1      44.989   3.409  10.240  0.00  0.00    +0.000 A 
ATOM     20  N   UNL     1      45.188   4.603  10.819  0.00  0.00    +0.000 NA
BRANCH  19  21
ATOM     21  N   UNL     1      45.699   3.068   9.082  0.00  0.00    +0.000 N 
ATOM     22  C   UNL     1      45.540   1.676   8.654  0.00  0.00    +0.000 C 
ATOM     23  C   UNL     1      46.715   1.343   7.733  0.00  0.00    +0.000 C 
ATOM     24  C   UNL     1      46.784   2.310   6.551  0.00  0.00    +0.000 C 
ATOM     25  C   UNL     1      46.723   3.772   7.000  0.00  0.00    +0.000 C 
ATOM     26  C   UNL     1      45.572   4.025   7.978  0.00  0.00    +0.000 C 
ENDBRANCH  19  21
ENDBRANCH  14  15
ENDBRANCH   5  14
TORSDOF 4
ENDMDL
MODEL 5
REMARK VINA RESULT:    -7.227      2.766      6.760
REMARK INTER + INTRA:          -9.546
REMARK INTER:                  -9.213
REMARK INTRA:                  -0.333
REMARK UNBOUND:                -0.629
REMARK  Name = 
REMARK  4 active torsions:
REMARK  status: ('A' for Active; 'I' for Inactive)
REMARK    1  A    between atoms: C_2  and  C_4
REMARK    2  A    between atoms: N_8  and  C_9
REMARK    3  A    between atoms: C_9  and  C_10
REMARK    4  A    between atoms: C_14  and  N_15
REMARK                            x       y       z     vdW  Elec       q    Type
REMARK                         _______ _______ _______ _____ _____    ______ ____
ROOT
ATOM      1  C   UNL     1      47.893   7.267  13.770  0.00  0.00    +0.000 A 
ATOM      2  C   UNL     1      47.174   6.082  13.656  0.00  0.00    +0.000 A 
ATOM      3  C   UNL     1      46.102   6.023  12.764  0.00  0.00    +0.000 A 
ATOM      4  C   UNL     1      45.761   7.144  12.013  0.00  0.00    +0.000 A 
ATOM      5  N   UNL     1      44.794   7.120  11.029  0.00  0.00    +0.000 N 
ATOM      6  N   UNL     1      46.428   8.307  12.147  0.00  0.00    +0.000 NA
ATOM      7  C   UNL     1      47.467   8.350  13.019  0.00  0.00    +0.000 A 
ATOM      8  H   UNL     1      44.621   8.067  10.694  0.00  0.00    +0.000 HD
ENDROOT
BRANCH   1  10
ATOM      9  N   UNL     1      49.579   8.662  14.817  0.00  0.00    +0.000 N 
ATOM     10  C   UNL     1      49.079   7.403  14.641  0.00  0.00    +0.000 C 
ATOM     11  O   UNL     1      49.564   6.436  15.212  0.00  0.00    +0.000 OA
ATOM     12  H   UNL     1      50.315   8.758  15.508  0.00  0.00    +0.000 HD
ATOM     13  H   UNL     1      49.051   9.492  14.586  0.00  0.00    +0.000 HD
ENDBRANCH   1  10
BRANCH   5  14
ATOM     14  C   UNL     1      43.575   6.348  11.238  0.00  0.00    +0.000 C 
BRANCH  14  15
ATOM     15  C   UNL     1      43.767   4.862  10.967  0.00  0.00    +0.000 A 
ATOM     16  N   UNL     1      43.096   3.974  11.729  0.00  0.00    +0.000 NA
ATOM     17  C   UNL     1      43.313   2.680  11.445  0.00  0.00    +0.000 A 
ATOM     18  C   UNL     1      44.187   2.255  10.472  0.00  0.00    +0.000 A 
ATOM     19  C   UNL     1      44.846   3.230   9.747  0.00  0.00    +0.000 A 
ATOM     20  N   UNL     1      44.641   4.534   9.993  0.00  0.00    +0.000 NA
BRANCH  19  21
ATOM     21  N   UNL     1      45.660   2.842   8.678  0.00  0.00    +0.000 N 
ATOM     22  C   UNL     1      45.682   1.400   8.417  0.00  0.00    +0.000 C 
ATOM     23  C   UNL     1      46.943   1.100   7.605  0.00  0.00    +0.000 C 
ATOM     24  C   UNL     1      46.982   1.923   6.317  0.00  0.00    +0.000 C 
ATOM     25  C   UNL     1      46.733   3.411   6.579  0.00  0.00    +0.000 C 
ATOM     26  C   UNL     1      45.501   3.642   7.459  0.00  0.00    +0.000 C 
ENDBRANCH  19  21
ENDBRANCH  14  15
ENDBRANCH   5  14
TORSDOF 4
ENDMDL
MODEL 6
REMARK VINA RESULT:    -7.023      4.254      7.785
REMARK INTER + INTRA:          -9.295
REMARK INTER:                  -8.819
REMARK INTRA:                  -0.475
REMARK UNBOUND:                -0.629
REMARK  Name = 
REMARK  4 active torsions:
REMARK  status: ('A' for Active; 'I' for Inactive)
REMARK    1  A    between atoms: C_2  and  C_4
REMARK    2  A    between atoms: N_8  and  C_9
REMARK    3  A    between atoms: C_9  and  C_10
REMARK    4  A    between atoms: C_14  and  N_15
REMARK                            x       y       z     vdW  Elec       q    Type
REMARK                         _______ _______ _______ _____ _____    ______ ____
ROOT
ATOM      1  C   UNL     1      49.686   3.850  17.354  0.00  0.00    +0.000 A 
ATOM      2  C   UNL     1      49.064   5.077  17.151  0.00  0.00    +0.000 A 
ATOM      3  C   UNL     1      47.978   5.150  16.278  0.00  0.00    +0.000 A 
ATOM      4  C   UNL     1      47.539   4.005  15.618  0.00  0.00    +0.000 A 
ATOM      5  N   UNL     1      46.401   3.981  14.838  0.00  0.00    +0.000 N 
ATOM      6  N   UNL     1      48.162   2.821  15.779  0.00  0.00    +0.000 NA
ATOM      7  C   UNL     1      49.217   2.766  16.629  0.00  0.00    +0.000 A 
ATOM      8  H   UNL     1      46.334   3.086  14.356  0.00  0.00    +0.000 HD
ENDROOT
BRANCH   1  10
ATOM      9  N   UNL     1      51.604   2.575  18.117  0.00  0.00    +0.000 N 
ATOM     10  C   UNL     1      50.802   3.665  18.304  0.00  0.00    +0.000 C 
ATOM     11  O   UNL     1      51.022   4.475  19.194  0.00  0.00    +0.000 OA
ATOM     12  H   UNL     1      52.434   2.525  18.698  0.00  0.00    +0.000 HD
ATOM     13  H   UNL     1      51.615   2.052  17.252  0.00  0.00    +0.000 HD
ENDBRANCH   1  10
BRANCH   5  14
ATOM     14  C   UNL     1      46.089   5.123  13.986  0.00  0.00    +0.000 C 
BRANCH  14  15
ATOM     15  C   UNL     1      45.160   4.760  12.836  0.00  0.00    +0.000 A 
ATOM     16  N   UNL     1      43.836   4.969  12.984  0.00  0.00    +0.000 NA
ATOM     17  C   UNL     1      43.069   4.622  11.936  0.00  0.00    +0.000 A 
ATOM     18  C   UNL     1      43.569   4.052  10.790  0.00  0.00    +0.000 A 
ATOM     19  C   UNL     1      44.936   3.858  10.726  0.00  0.00    +0.000 A 
ATOM     20  N   UNL     1      45.734   4.207  11.747  0.00  0.00    +0.000 NA
BRANCH  19  21
ATOM     21  N   UNL     1      45.495   3.381   9.535  0.00  0.00    +0.000 N 
ATOM     22  C   UNL     1      45.070   2.030   9.157  0.00  0.00    +0.000 C 
ATOM     23  C   UNL     1      46.105   1.483   8.172  0.00  0.00    +0.000 C 
ATOM     24  C   UNL     1      46.258   2.404   6.961  0.00  0.00    +0.000 C 
ATOM     25  C   UNL     1      46.481   3.862   7.372  0.00  0.00    +0.000 C 
ATOM     26  C   UNL     1      45.460   4.327   8.414  0.00  0.00    +0.000 C 
ENDBRANCH  19  21
ENDBRANCH  14  15
ENDBRANCH   5  14
TORSDOF 4
ENDMDL
MODEL 7
REMARK VINA RESULT:    -6.766      5.310      8.298
REMARK INTER + INTRA:          -8.978
REMARK INTER:                  -8.338
REMARK INTRA:                  -0.640
REMARK UNBOUND:                -0.629
REMARK  Name = 
REMARK  4 active torsions:
REMARK  status: ('A' for Active; 'I' for Inactive)
REMARK    1  A    between atoms: C_2  and  C_4
REMARK    2  A    between atoms: N_8  and  C_9
REMARK    3  A    between atoms: C_9  and  C_10
REMARK    4  A    between atoms: C_14  and  N_15
REMARK                            x       y       z     vdW  Elec       q    Type
REMARK                         _______ _______ _______ _____ _____    ______ ____
ROOT
ATOM      1  C   UNL     1      51.829   2.578  17.874  0.00  0.00    +0.000 A 
ATOM      2  C   UNL     1      51.090   3.605  18.452  0.00  0.00    +0.000 A 
ATOM      3  C   UNL     1      49.742   3.742  18.116  0.00  0.00    +0.000 A 
ATOM      4  C   UNL     1      49.160   2.864  17.206  0.00  0.00    +0.000 A 
ATOM      5  N   UNL     1      47.811   2.867  16.922  0.00  0.00    +0.000 N 
ATOM      6  N   UNL     1      49.880   1.891  16.612  0.00  0.00    +0.000 NA
ATOM      7  C   UNL     1      51.189   1.771  16.947  0.00  0.00    +0.000 A 
ATOM      8  H   UNL     1      47.621   2.232  16.147  0.00  0.00    +0.000 HD
ENDROOT
BRANCH   1  10
ATOM      9  N   UNL     1      53.613   2.510  19.516  0.00  0.00    +0.000 N 
ATOM     10  C   UNL     1      53.243   2.318  18.216  0.00  0.00    +0.000 C 
ATOM     11  O   UNL     1      54.035   1.909  17.379  0.00  0.00    +0.000 OA
ATOM     12  H   UNL     1      54.551   2.214  19.763  0.00  0.00    +0.000 HD
ATOM     13  H   UNL     1      52.940   2.582  20.267  0.00  0.00    +0.000 HD
ENDBRANCH   1  10
BRANCH   5  14
ATOM     14  C   UNL     1      47.100   4.136  16.817  0.00  0.00    +0.000 C 
BRANCH  14  15
ATOM     15  C   UNL     1      47.252   4.783  15.448  0.00  0.00    +0.000 A 
ATOM     16  N   UNL     1      48.229   5.696  15.268  0.00  0.00    +0.000 NA
ATOM     17  C   UNL     1      48.307   6.235  14.040  0.00  0.00    +0.000 A 
ATOM     18  C   UNL     1      47.437   5.924  13.022  0.00  0.00    +0.000 A 
ATOM     19  C   UNL     1      46.455   4.990  13.294  0.00  0.00    +0.000 A 
ATOM     20  N   UNL     1      46.358   4.420  14.505  0.00  0.00    +0.000 NA
BRANCH  19  21
ATOM     21  N   UNL     1      45.619   4.568  12.254  0.00  0.00    +0.000 N 
ATOM     22  C   UNL     1      44.301   4.092  12.684  0.00  0.00    +0.000 C 
ATOM     23  C   UNL     1      43.734   3.231  11.554  0.00  0.00    +0.000 C 
ATOM     24  C   UNL     1      43.670   4.011  10.241  0.00  0.00    +0.000 C 
ATOM     25  C   UNL     1      45.001   4.694   9.913  0.00  0.00    +0.000 C 
ATOM     26  C   UNL     1      45.553   5.479  11.107  0.00  0.00    +0.000 C 
ENDBRANCH  19  21
ENDBRANCH  14  15
ENDBRANCH   5  14
TORSDOF 4
ENDMDL
MODEL 8
REMARK VINA RESULT:    -6.504      5.309      7.051
REMARK INTER + INTRA:          -8.655
REMARK INTER:                  -8.100
REMARK INTRA:                  -0.555
REMARK UNBOUND:                -0.629
REMARK  Name = 
REMARK  4 active torsions:
REMARK  status: ('A' for Active; 'I' for Inactive)
REMARK    1  A    between atoms: C_2  and  C_4
REMARK    2  A    between atoms: N_8  and  C_9
REMARK    3  A    between atoms: C_9  and  C_10
REMARK    4  A    between atoms: C_14  and  N_15
REMARK                            x       y       z     vdW  Elec       q    Type
REMARK                         _______ _______ _______ _____ _____    ______ ____
ROOT
ATOM      1  C   UNL     1      44.971   4.756  11.803  0.00  0.00    +0.000 A 
ATOM      2  C   UNL     1      45.387   5.719  12.716  0.00  0.00    +0.000 A 
ATOM      3  C   UNL     1      46.132   5.323  13.827  0.00  0.00    +0.000 A 
ATOM      4  C   UNL     1      46.438   3.977  14.014  0.00  0.00    +0.000 A 
ATOM      5  N   UNL     1      47.268   3.532  15.022  0.00  0.00    +0.000 N 
ATOM      6  N   UNL     1      46.004   3.034  13.156  0.00  0.00    +0.000 NA
ATOM      7  C   UNL     1      45.280   3.434  12.080  0.00  0.00    +0.000 A 
ATOM      8  H   UNL     1      47.257   2.513  15.051  0.00  0.00    +0.000 HD
ENDROOT
BRANCH   1  10
ATOM      9  N   UNL     1      44.939   5.071   9.398  0.00  0.00    +0.000 N 
ATOM     10  C   UNL     1      44.233   5.089  10.567  0.00  0.00    +0.000 C 
ATOM     11  O   UNL     1      43.034   5.330  10.586  0.00  0.00    +0.000 OA
ATOM     12  H   UNL     1      44.399   5.182   8.547  0.00  0.00    +0.000 HD
ATOM     13  H   UNL     1      45.841   4.622   9.316  0.00  0.00    +0.000 HD
ENDBRANCH   1  10
BRANCH   5  14
ATOM     14  C   UNL     1      47.194   4.150  16.341  0.00  0.00    +0.000 C 
BRANCH  14  15
ATOM     15  C   UNL     1      48.544   4.657  16.828  0.00  0.00    +0.000 A 
ATOM     16  N   UNL     1      48.692   5.976  17.068  0.00  0.00    +0.000 NA
ATOM     17  C   UNL     1      49.908   6.361  17.489  0.00  0.00    +0.000 A 
ATOM     18  C   UNL     1      50.965   5.495  17.639  0.00  0.00    +0.000 A 
ATOM     19  C   UNL     1      50.733   4.162  17.357  0.00  0.00    +0.000 A 
ATOM     20  N   UNL     1      49.526   3.739  16.949  0.00  0.00    +0.000 NA
BRANCH  19  21
ATOM     21  N   UNL     1      51.752   3.233  17.600  0.00  0.00    +0.000 N 
ATOM     22  C   UNL     1      52.572   3.520  18.780  0.00  0.00    +0.000 C 
ATOM     23  C   UNL     1      53.886   2.752  18.622  0.00  0.00    +0.000 C 
ATOM     24  C   UNL     1      53.634   1.255  18.438  0.00  0.00    +0.000 C 
ATOM     25  C   UNL     1      52.599   0.976  17.345  0.00  0.00    +0.000 C 
ATOM     26  C   UNL     1      51.339   1.829  17.516  0.00  0.00    +0.000 C 
ENDBRANCH  19  21
ENDBRANCH  14  15
ENDBRANCH   5  14
TORSDOF 4
ENDMDL
MODEL 9
REMARK VINA RESULT:    -6.502      5.010      8.044
REMARK INTER + INTRA:          -8.652
REMARK INTER:                  -7.975
REMARK INTRA:                  -0.677
REMARK UNBOUND:                -0.629
REMARK  Name = 
REMARK  4 active torsions:
REMARK  status: ('A' for Active; 'I' for Inactive)
REMARK    1  A    between atoms: C_2  and  C_4
REMARK    2  A    between atoms: N_8  and  C_9
REMARK    3  A    between atoms: C_9  and  C_10
REMARK    4  A    between atoms: C_14  and  N_15
REMARK                            x       y       z     vdW  Elec       q    Type
REMARK                         _______ _______ _______ _____ _____    ______ ____
ROOT
ATOM      1  C   UNL     1      51.327   2.486  17.520  0.00  0.00    +0.000 A 
ATOM      2  C   UNL     1      51.718   3.807  17.710  0.00  0.00    +0.000 A 
ATOM      3  C   UNL     1      50.803   4.829  17.452  0.00  0.00    +0.000 A 
ATOM      4  C   UNL     1      49.524   4.517  17.000  0.00  0.00    +0.000 A 
ATOM      5  N   UNL     1      48.535   5.466  16.840  0.00  0.00    +0.000 N 
ATOM      6  N   UNL     1      49.151   3.242  16.775  0.00  0.00    +0.000 NA
ATOM      7  C   UNL     1      50.051   2.259  17.029  0.00  0.00    +0.000 A 
ATOM      8  H   UNL     1      47.724   5.045  16.388  0.00  0.00    +0.000 HD
ENDROOT
BRANCH   1  10
ATOM      9  N   UNL     1      51.597   0.160  18.152  0.00  0.00    +0.000 N 
ATOM     10  C   UNL     1      52.205   1.338  17.827  0.00  0.00    +0.000 C 
ATOM     11  O   UNL     1      53.423   1.430  17.752  0.00  0.00    +0.000 OA
ATOM     12  H   UNL     1      52.204  -0.647  18.242  0.00  0.00    +0.000 HD
ATOM     13  H   UNL     1      50.620  -0.017  17.961  0.00  0.00    +0.000 HD
ENDBRANCH   1  10
BRANCH   5  14
ATOM     14  C   UNL     1      48.878   6.780  16.307  0.00  0.00    +0.000 C 
BRANCH  14  15
ATOM     15  C   UNL     1      48.749   6.851  14.792  0.00  0.00    +0.000 A 
ATOM     16  N   UNL     1      49.637   7.595  14.102  0.00  0.00    +0.000 NA
ATOM     17  C   UNL     1      49.466   7.622  12.770  0.00  0.00    +0.000 A 
ATOM     18  C   UNL     1      48.438   6.975  12.126  0.00  0.00    +0.000 A 
ATOM     19  C   UNL     1      47.563   6.246  12.909  0.00  0.00    +0.000 A 
ATOM     20  N   UNL     1      47.713   6.184  14.242  0.00  0.00    +0.000 NA
BRANCH  19  21
ATOM     21  N   UNL     1      46.569   5.486  12.283  0.00  0.00    +0.000 N 
ATOM     22  C   UNL     1      45.589   4.890  13.195  0.00  0.00    +0.000 C 
ATOM     23  C   UNL     1      44.916   3.734  12.452  0.00  0.00    +0.000 C 
ATOM     24  C   UNL     1      44.280   4.211  11.145  0.00  0.00    +0.000 C 
ATOM     25  C   UNL     1      45.255   5.030  10.296  0.00  0.00    +0.000 C 
ATOM     26  C   UNL     1      45.952   6.122  11.114  0.00  0.00    +0.000 C 
ENDBRANCH  19  21
ENDBRANCH  14  15
ENDBRANCH   5  14
TORSDOF 4
ENDMDL
