MODEL 1
REMARK VINA RESULT:    -7.879      0.000      0.000
REMARK INTER + INTRA:         -11.535
REMARK INTER:                 -10.642
REMARK INTRA:                  -0.893
REMARK UNBOUND:                -0.893
REMARK  Name = 
REMARK  7 active torsions:
REMARK  status: ('A' for Active; 'I' for Inactive)
REMARK    1  A    between atoms: C_1  and  C_2
REMARK    2  A    between atoms: C_2  and  C_3
REMARK    3  A    between atoms: C_2  and  C_14
REMARK    4  A    between atoms: C_3  and  N_4
REMARK    5  A    between atoms: N_4  and  C_5
REMARK    6  A    between atoms: C_8  and  C_9
REMARK    7  A    between atoms: C_19  and  C_20
REMARK                            x       y       z     vdW  Elec       q    Type
REMARK                         _______ _______ _______ _____ _____    ______ ____
ROOT
ATOM      1  C   UNL     1      44.085   3.238  11.764  0.00  0.00    +0.000 C 
ENDROOT
BRANCH   1   3
ATOM      2  C   UNL     1      42.780   5.186  12.806  0.00  0.00    +0.000 C 
ATOM      3  C   UNL     1      44.068   4.430  12.675  0.00  0.00    +0.000 C 
BRANCH   3   4
ATOM      4  C   UNL     1      45.344   5.084  13.001  0.00  0.00    +0.000 A 
ATOM      5  C   UNL     1      46.264   4.448  13.835  0.00  0.00    +0.000 A 
ATOM      6  C   UNL     1      47.428   5.105  14.228  0.00  0.00    +0.000 A 
ATOM      7  C   UNL     1      47.706   6.403  13.782  0.00  0.00    +0.000 A 
ATOM      8 CL   UNL     1      49.159   7.118  14.371  0.00  0.00    +0.000 Cl
ATOM      9  C   UNL     1      46.819   7.053  12.919  0.00  0.00    +0.000 A 
ATOM     10  C   UNL     1      45.638   6.372  12.537  0.00  0.00    +0.000 A 
BRANCH   9  11
ATOM     11  C   UNL     1      47.031   8.435  12.357  0.00  0.00    +0.000 C 
ATOM     12  F   UNL     1      46.021   8.955  11.614  0.00  0.00    +0.000 F 
ATOM     13  F   UNL     1      47.267   9.346  13.345  0.00  0.00    +0.000 F 
ATOM     14  F   UNL     1      48.133   8.483  11.554  0.00  0.00    +0.000 F 
ENDBRANCH   9  11
ENDBRANCH   3   4
ENDBRANCH   1   3
BRANCH   1  15
ATOM     15  N   UNL     1      43.772   3.723  10.424  0.00  0.00    +0.000 N 
ATOM     16  H   UNL     1      43.531   4.714  10.426  0.00  0.00    +0.000 HD
BRANCH  15  17
ATOM     17  C   UNL     1      44.643   3.401   9.384  0.00  0.00    +0.000 A 
ATOM     18  C   UNL     1      45.205   4.314   8.505  0.00  0.00    +0.000 A 
ATOM     19  N   UNL     1      46.108   4.016   7.547  0.00  0.00    +0.000 NA
ATOM     20  C   UNL     1      46.487   2.718   7.496  0.00  0.00    +0.000 A 
ATOM     21  N   UNL     1      46.052   1.738   8.307  0.00  0.00    +0.000 NA
ATOM     22  C   UNL     1      45.153   2.118   9.240  0.00  0.00    +0.000 A 
BRANCH  20  23
ATOM     23  C   UNL     1      47.516   2.371   6.446  0.00  0.00    +0.000 C 
ATOM     24  N   UNL     1      47.492   3.162   5.319  0.00  0.00    +0.000 N 
ATOM     25  O   UNL     1      48.331   1.466   6.553  0.00  0.00    +0.000 OA
ATOM     26  H   UNL     1      46.827   3.925   5.251  0.00  0.00    +0.000 HD
ATOM     27  H   UNL     1      48.173   3.001   4.593  0.00  0.00    +0.000 HD
ENDBRANCH  20  23
ENDBRANCH  15  17
ENDBRANCH   1  15
TORSDOF 6
ENDMDL
MODEL 2
REMARK VINA RESULT:    -7.692      1.824      2.332
REMARK INTER + INTRA:         -11.282
REMARK INTER:                 -10.502
REMARK INTRA:                  -0.780
REMARK UNBOUND:                -0.893
REMARK  Name = 
REMARK  7 active torsions:
REMARK  status: ('A' for Active; 'I' for Inactive)
REMARK    1  A    between atoms: C_1  and  C_2
REMARK    2  A    between atoms: C_2  and  C_3
REMARK    3  A    between atoms: C_2  and  C_14
REMARK    4  A    between atoms: C_3  and  N_4
REMARK    5  A    between atoms: N_4  and  C_5
REMARK    6  A    between atoms: C_8  and  C_9
REMARK    7  A    between atoms: C_19  and  C_20
REMARK                            x       y       z     vdW  Elec       q    Type
REMARK                         _______ _______ _______ _____ _____    ______ ____
ROOT
ATOM      1  C   UNL     1      43.595   4.656  11.315  0.00  0.00    +0.000 C 
ENDROOT
BRANCH   1   3
ATOM      2  C   UNL     1      45.520   3.708  12.723  0.00  0.00    +0.000 C 
ATOM      3  C   UNL     1      44.977   4.819  11.876  0.00  0.00    +0.000 C 
BRANCH   3   4
ATOM      4  C   UNL     1      45.530   6.176  11.995  0.00  0.00    +0.000 A 
ATOM      5  C   UNL     1      44.684   7.284  11.950  0.00  0.00    +0.000 A 
ATOM      6  C   UNL     1      45.211   8.574  11.959  0.00  0.00    +0.000 A 
ATOM      7  C   UNL     1      46.593   8.783  12.032  0.00  0.00    +0.000 A 
ATOM      8 CL   UNL     1      47.120  10.424  11.999  0.00  0.00    +0.000 Cl
ATOM      9  C   UNL     1      47.465   7.694  12.112  0.00  0.00    +0.000 A 
ATOM     10  C   UNL     1      46.911   6.392  12.093  0.00  0.00    +0.000 A 
BRANCH   9  11
ATOM     11  C   UNL     1      48.964   7.804  12.222  0.00  0.00    +0.000 C 
ATOM     12  F   UNL     1      49.623   8.281  11.136  0.00  0.00    +0.000 F 
ATOM     13  F   UNL     1      49.332   8.610  13.260  0.00  0.00    +0.000 F 
ATOM     14  F   UNL     1      49.535   6.593  12.488  0.00  0.00    +0.000 F 
ENDBRANCH   9  11
ENDBRANCH   3   4
ENDBRANCH   1   3
BRANCH   1  15
ATOM     15  N   UNL     1      43.700   4.825   9.870  0.00  0.00    +0.000 N 
ATOM     16  H   UNL     1      43.861   5.798   9.613  0.00  0.00    +0.000 HD
BRANCH  15  17
ATOM     17  C   UNL     1      44.527   3.955   9.160  0.00  0.00    +0.000 A 
ATOM     18  C   UNL     1      45.575   4.345   8.341  0.00  0.00    +0.000 A 
ATOM     19  N   UNL     1      46.426   3.505   7.715  0.00  0.00    +0.000 NA
ATOM     20  C   UNL     1      46.220   2.190   7.957  0.00  0.00    +0.000 A 
ATOM     21  N   UNL     1      45.268   1.676   8.755  0.00  0.00    +0.000 NA
ATOM     22  C   UNL     1      44.460   2.581   9.347  0.00  0.00    +0.000 A 
BRANCH  20  23
ATOM     23  C   UNL     1      47.178   1.235   7.285  0.00  0.00    +0.000 C 
ATOM     24  N   UNL     1      48.295   1.821   6.729  0.00  0.00    +0.000 N 
ATOM     25  O   UNL     1      47.015   0.026   7.221  0.00  0.00    +0.000 OA
ATOM     26  H   UNL     1      48.432   2.823   6.808  0.00  0.00    +0.000 HD
ATOM     27  H   UNL     1      48.988   1.235   6.291  0.00  0.00    +0.000 HD
ENDBRANCH  20  23
ENDBRANCH  15  17
ENDBRANCH   1  15
TORSDOF 6
ENDMDL
MODEL 3
REMARK VINA RESULT:    -7.513      4.817      6.996
REMARK INTER + INTRA:         -11.041
REMARK INTER:                 -10.100
REMARK INTRA:                  -0.942
REMARK UNBOUND:                -0.893
REMARK  Name = 
REMARK  7 active torsions:
REMARK  status: ('A' for Active; 'I' for Inactive)
REMARK    1  A    between atoms: C_1  and  C_2
REMARK    2  A    between atoms: C_2  and  C_3
REMARK    3  A    between atoms: C_2  and  C_14
REMARK    4  A    between atoms: C_3  and  N_4
REMARK    5  A    between atoms: N_4  and  C_5
REMARK    6  A    between atoms: C_8  and  C_9
REMARK    7  A    between atoms: C_19  and  C_20
REMARK                            x       y       z     vdW  Elec       q    Type
REMARK                         _______ _______ _______ _____ _____    ______ ____
ROOT
ATOM      1  C   UNL     1      46.921   6.871  11.874  0.00  0.00    +0.000 C 
ENDROOT
BRANCH   1   3
ATOM      2  C   UNL     1      44.545   7.767  11.505  0.00  0.00    +0.000 C 
ATOM      3  C   UNL     1      45.607   6.768  11.156  0.00  0.00    +0.000 C 
BRANCH   3   4
ATOM      4  C   UNL     1      45.240   5.482  10.546  0.00  0.00    +0.000 A 
ATOM      5  C   UNL     1      44.317   4.646  11.175  0.00  0.00    +0.000 A 
ATOM      6  C   UNL     1      44.043   3.383  10.654  0.00  0.00    +0.000 A 
ATOM      7  C   UNL     1      44.671   2.937   9.485  0.00  0.00    +0.000 A 
ATOM      8 CL   UNL     1      44.274   1.342   8.966  0.00  0.00    +0.000 Cl
ATOM      9  C   UNL     1      45.575   3.765   8.814  0.00  0.00    +0.000 A 
ATOM     10  C   UNL     1      45.847   5.041   9.363  0.00  0.00    +0.000 A 
BRANCH   9  11
ATOM     11  C   UNL     1      46.285   3.398   7.537  0.00  0.00    +0.000 C 
ATOM     12  F   UNL     1      45.508   3.176   6.446  0.00  0.00    +0.000 F 
ATOM     13  F   UNL     1      47.176   4.362   7.163  0.00  0.00    +0.000 F 
ATOM     14  F   UNL     1      47.028   2.263   7.687  0.00  0.00    +0.000 F 
ENDBRANCH   9  11
ENDBRANCH   3   4
ENDBRANCH   1   3
BRANCH   1  15
ATOM     15  N   UNL     1      46.627   6.852  13.302  0.00  0.00    +0.000 N 
ATOM     16  H   UNL     1      45.633   6.982  13.487  0.00  0.00    +0.000 HD
BRANCH  15  17
ATOM     17  C   UNL     1      47.171   5.827  14.076  0.00  0.00    +0.000 A 
ATOM     18  C   UNL     1      48.002   6.012  15.170  0.00  0.00    +0.000 A 
ATOM     19  N   UNL     1      48.467   5.027  15.968  0.00  0.00    +0.000 NA
ATOM     20  C   UNL     1      48.039   3.782  15.657  0.00  0.00    +0.000 A 
ATOM     21  N   UNL     1      47.207   3.465  14.649  0.00  0.00    +0.000 NA
ATOM     22  C   UNL     1      46.784   4.505  13.900  0.00  0.00    +0.000 A 
BRANCH  20  23
ATOM     23  C   UNL     1      48.528   2.671  16.554  0.00  0.00    +0.000 C 
ATOM     24  N   UNL     1      48.180   2.793  17.881  0.00  0.00    +0.000 N 
ATOM     25  O   UNL     1      49.183   1.713  16.170  0.00  0.00    +0.000 OA
ATOM     26  H   UNL     1      47.616   3.580  18.185  0.00  0.00    +0.000 HD
ATOM     27  H   UNL     1      48.451   2.068  18.527  0.00  0.00    +0.000 HD
ENDBRANCH  20  23
ENDBRANCH  15  17
ENDBRANCH   1  15
TORSDOF 6
ENDMDL
MODEL 4
REMARK VINA RESULT:    -7.329      2.044      2.777
REMARK INTER + INTRA:         -10.793
REMARK INTER:                  -9.967
REMARK INTRA:                  -0.826
REMARK UNBOUND:                -0.893
REMARK  Name = 
REMARK  7 active torsions:
REMARK  status: ('A' for Active; 'I' for Inactive)
REMARK    1  A    between atoms: C_1  and  C_2
REMARK    2  A    between atoms: C_2  and  C_3
REMARK    3  A    between atoms: C_2  and  C_14
REMARK    4  A    between atoms: C_3  and  N_4
REMARK    5  A    between atoms: N_4  and  C_5
REMARK    6  A    between atoms: C_8  and  C_9
REMARK    7  A    between atoms: C_19  and  C_20
REMARK                            x       y       z     vdW  Elec       q    Type
REMARK                         _______ _______ _______ _____ _____    ______ ____
ROOT
ATOM      1  C   UNL     1      44.598   5.997  10.902  0.00  0.00    +0.000 C 
ENDROOT
BRANCH   1   3
ATOM      2  C   UNL     1      44.674   4.638  13.078  0.00  0.00    +0.000 C 
ATOM      3  C   UNL     1      45.387   5.497  12.077  0.00  0.00    +0.000 C 
BRANCH   3   4
ATOM      4  C   UNL     1      46.608   6.218  12.460  0.00  0.00    +0.000 A 
ATOM      5  C   UNL     1      47.315   6.955  11.509  0.00  0.00    +0.000 A 
ATOM      6  C   UNL     1      48.527   7.556  11.842  0.00  0.00    +0.000 A 
ATOM      7  C   UNL     1      49.049   7.449  13.136  0.00  0.00    +0.000 A 
ATOM      8 CL   UNL     1      50.574   8.206  13.410  0.00  0.00    +0.000 Cl
ATOM      9  C   UNL     1      48.348   6.746  14.120  0.00  0.00    +0.000 A 
ATOM     10  C   UNL     1      47.123   6.135  13.760  0.00  0.00    +0.000 A 
BRANCH   9  11
ATOM     11  C   UNL     1      48.803   6.591  15.548  0.00  0.00    +0.000 C 
ATOM     12  F   UNL     1      48.651   7.668  16.359  0.00  0.00    +0.000 F 
ATOM     13  F   UNL     1      48.153   5.566  16.173  0.00  0.00    +0.000 F 
ATOM     14  F   UNL     1      50.128   6.270  15.618  0.00  0.00    +0.000 F 
ENDBRANCH   9  11
ENDBRANCH   3   4
ENDBRANCH   1   3
BRANCH   1  15
ATOM     15  N   UNL     1      44.050   4.825  10.228  0.00  0.00    +0.000 N 
ATOM     16  H   UNL     1      43.185   5.040   9.734  0.00  0.00    +0.000 HD
BRANCH  15  17
ATOM     17  C   UNL     1      44.909   4.043   9.457  0.00  0.00    +0.000 A 
ATOM     18  C   UNL     1      44.937   2.657   9.455  0.00  0.00    +0.000 A 
ATOM     19  N   UNL     1      45.712   1.896   8.652  0.00  0.00    +0.000 NA
ATOM     20  C   UNL     1      46.485   2.582   7.779  0.00  0.00    +0.000 A 
ATOM     21  N   UNL     1      46.530   3.920   7.649  0.00  0.00    +0.000 NA
ATOM     22  C   UNL     1      45.724   4.608   8.485  0.00  0.00    +0.000 A 
BRANCH  20  23
ATOM     23  C   UNL     1      47.340   1.747   6.856  0.00  0.00    +0.000 C 
ATOM     24  N   UNL     1      48.390   2.416   6.265  0.00  0.00    +0.000 N 
ATOM     25  O   UNL     1      47.153   0.561   6.628  0.00  0.00    +0.000 OA
ATOM     26  H   UNL     1      48.550   3.394   6.480  0.00  0.00    +0.000 HD
ATOM     27  H   UNL     1      49.016   1.907   5.661  0.00  0.00    +0.000 HD
ENDBRANCH  20  23
ENDBRANCH  15  17
ENDBRANCH   1  15
TORSDOF 6
ENDMDL
MODEL 5
REMARK VINA RESULT:    -7.037      4.702      6.824
REMARK INTER + INTRA:         -10.398
REMARK INTER:                  -9.586
REMARK INTRA:                  -0.812
REMARK UNBOUND:                -0.893
REMARK  Name = 
REMARK  7 active torsions:
REMARK  status: ('A' for Active; 'I' for Inactive)
REMARK    1  A    between atoms: C_1  and  C_2
REMARK    2  A    between atoms: C_2  and  C_3
REMARK    3  A    between atoms: C_2  and  C_14
REMARK    4  A    between atoms: C_3  and  N_4
REMARK    5  A    between atoms: N_4  and  C_5
REMARK    6  A    between atoms: C_8  and  C_9
REMARK    7  A    between atoms: C_19  and  C_20
REMARK                            x       y       z     vdW  Elec       q    Type
REMARK                         _______ _______ _______ _____ _____    ______ ____
ROOT
ATOM      1  C   UNL     1      46.662   8.154  13.220  0.00  0.00    +0.000 C 
ENDROOT
BRANCH   1   3
ATOM      2  C   UNL     1      44.958   9.337  11.708  0.00  0.00    +0.000 C 
ATOM      3  C   UNL     1      45.643   8.069  12.120  0.00  0.00    +0.000 C 
BRANCH   3   4
ATOM      4  C   UNL     1      45.018   6.768  11.842  0.00  0.00    +0.000 A 
ATOM      5  C   UNL     1      44.168   6.183  12.781  0.00  0.00    +0.000 A 
ATOM      6  C   UNL     1      43.654   4.906  12.567  0.00  0.00    +0.000 A 
ATOM      7  C   UNL     1      43.966   4.193  11.403  0.00  0.00    +0.000 A 
ATOM      8 CL   UNL     1      43.298   2.609  11.276  0.00  0.00    +0.000 Cl
ATOM      9  C   UNL     1      44.789   4.765  10.429  0.00  0.00    +0.000 A 
ATOM     10  C   UNL     1      45.307   6.060  10.668  0.00  0.00    +0.000 A 
BRANCH   9  11
ATOM     11  C   UNL     1      45.166   4.100   9.130  0.00  0.00    +0.000 C 
ATOM     12  F   UNL     1      45.594   2.814   9.203  0.00  0.00    +0.000 F 
ATOM     13  F   UNL     1      44.123   4.091   8.251  0.00  0.00    +0.000 F 
ATOM     14  F   UNL     1      46.165   4.778   8.494  0.00  0.00    +0.000 F 
ENDBRANCH   9  11
ENDBRANCH   3   4
ENDBRANCH   1   3
BRANCH   1  15
ATOM     15  N   UNL     1      47.622   7.080  12.993  0.00  0.00    +0.000 N 
ATOM     16  H   UNL     1      48.532   7.438  12.706  0.00  0.00    +0.000 HD
BRANCH  15  17
ATOM     17  C   UNL     1      47.737   6.080  13.959  0.00  0.00    +0.000 A 
ATOM     18  C   UNL     1      48.267   6.257  15.227  0.00  0.00    +0.000 A 
ATOM     19  N   UNL     1      48.308   5.312  16.191  0.00  0.00    +0.000 NA
ATOM     20  C   UNL     1      47.751   4.125  15.858  0.00  0.00    +0.000 A 
ATOM     21  N   UNL     1      47.171   3.829  14.682  0.00  0.00    +0.000 NA
ATOM     22  C   UNL     1      47.168   4.827  13.773  0.00  0.00    +0.000 A 
BRANCH  20  23
ATOM     23  C   UNL     1      47.765   3.064  16.933  0.00  0.00    +0.000 C 
ATOM     24  N   UNL     1      48.991   2.479  17.162  0.00  0.00    +0.000 N 
ATOM     25  O   UNL     1      46.784   2.724  17.579  0.00  0.00    +0.000 OA
ATOM     26  H   UNL     1      49.803   2.785  16.636  0.00  0.00    +0.000 HD
ATOM     27  H   UNL     1      49.074   1.783  17.887  0.00  0.00    +0.000 HD
ENDBRANCH  20  23
ENDBRANCH  15  17
ENDBRANCH   1  15
TORSDOF 6
ENDMDL
MODEL 6
REMARK VINA RESULT:    -6.518      4.325      6.082
REMARK INTER + INTRA:          -9.696
REMARK INTER:                  -8.773
REMARK INTRA:                  -0.923
REMARK UNBOUND:                -0.893
REMARK  Name = 
REMARK  7 active torsions:
REMARK  status: ('A' for Active; 'I' for Inactive)
REMARK    1  A    between atoms: C_1  and  C_2
REMARK    2  A    between atoms: C_2  and  C_3
REMARK    3  A    between atoms: C_2  and  C_14
REMARK    4  A    between atoms: C_3  and  N_4
REMARK    5  A    between atoms: N_4  and  C_5
REMARK    6  A    between atoms: C_8  and  C_9
REMARK    7  A    between atoms: C_19  and  C_20
REMARK                            x       y       z     vdW  Elec       q    Type
REMARK                         _______ _______ _______ _____ _____    ______ ____
ROOT
ATOM      1  C   UNL     1      48.439   6.941  13.782  0.00  0.00    +0.000 C 
ENDROOT
BRANCH   1   3
ATOM      2  C   UNL     1      49.630   8.754  15.153  0.00  0.00    +0.000 C 
ATOM      3  C   UNL     1      48.760   7.534  15.123  0.00  0.00    +0.000 C 
BRANCH   3   4
ATOM      4  C   UNL     1      48.644   6.680  16.314  0.00  0.00    +0.000 A 
ATOM      5  C   UNL     1      48.786   7.230  17.588  0.00  0.00    +0.000 A 
ATOM      6  C   UNL     1      48.779   6.409  18.714  0.00  0.00    +0.000 A 
ATOM      7  C   UNL     1      48.613   5.025  18.592  0.00  0.00    +0.000 A 
ATOM      8 CL   UNL     1      48.661   4.118  20.057  0.00  0.00    +0.000 Cl
ATOM      9  C   UNL     1      48.435   4.448  17.331  0.00  0.00    +0.000 A 
ATOM     10  C   UNL     1      48.453   5.297  16.199  0.00  0.00    +0.000 A 
BRANCH   9  11
ATOM     11  C   UNL     1      48.221   2.976  17.087  0.00  0.00    +0.000 C 
ATOM     12  F   UNL     1      49.246   2.147  17.409  0.00  0.00    +0.000 F 
ATOM     13  F   UNL     1      47.139   2.507  17.772  0.00  0.00    +0.000 F 
ATOM     14  F   UNL     1      47.951   2.722  15.773  0.00  0.00    +0.000 F 
ENDBRANCH   9  11
ENDBRANCH   3   4
ENDBRANCH   1   3
BRANCH   1  15
ATOM     15  N   UNL     1      46.991   7.013  13.621  0.00  0.00    +0.000 N 
ATOM     16  H   UNL     1      46.694   7.915  13.251  0.00  0.00    +0.000 HD
BRANCH  15  17
ATOM     17  C   UNL     1      46.342   5.952  12.990  0.00  0.00    +0.000 A 
ATOM     18  C   UNL     1      45.927   4.787  13.617  0.00  0.00    +0.000 A 
ATOM     19  N   UNL     1      45.229   3.794  13.027  0.00  0.00    +0.000 NA
ATOM     20  C   UNL     1      44.906   4.007  11.730  0.00  0.00    +0.000 A 
ATOM     21  N   UNL     1      45.212   5.102  11.012  0.00  0.00    +0.000 NA
ATOM     22  C   UNL     1      45.907   6.051  11.675  0.00  0.00    +0.000 A 
BRANCH  20  23
ATOM     23  C   UNL     1      44.104   2.917  11.061  0.00  0.00    +0.000 C 
ATOM     24  N   UNL     1      44.729   2.296  10.001  0.00  0.00    +0.000 N 
ATOM     25  O   UNL     1      42.982   2.575  11.406  0.00  0.00    +0.000 OA
ATOM     26  H   UNL     1      45.669   2.571   9.738  0.00  0.00    +0.000 HD
ATOM     27  H   UNL     1      44.258   1.540   9.530  0.00  0.00    +0.000 HD
ENDBRANCH  20  23
ENDBRANCH  15  17
ENDBRANCH   1  15
TORSDOF 6
ENDMDL
MODEL 7
REMARK VINA RESULT:    -6.272      5.125      7.362
REMARK INTER + INTRA:          -9.365
REMARK INTER:                  -8.502
REMARK INTRA:                  -0.862
REMARK UNBOUND:                -0.893
REMARK  Name = 
REMARK  7 active torsions:
REMARK  status: ('A' for Active; 'I' for Inactive)
REMARK    1  A    between atoms: C_1  and  C_2
REMARK    2  A    between atoms: C_2  and  C_3
REMARK    3  A    between atoms: C_2  and  C_14
REMARK    4  A    between atoms: C_3  and  N_4
REMARK    5  A    between atoms: N_4  and  C_5
REMARK    6  A    between atoms: C_8  and  C_9
REMARK    7  A    between atoms: C_19  and  C_20
REMARK                            x       y       z     vdW  Elec       q    Type
REMARK                         _______ _______ _______ _____ _____    ______ ____
ROOT
ATOM      1  C   UNL     1      48.031   7.563  12.513  0.00  0.00    +0.000 C 
ENDROOT
BRANCH   1   3
ATOM      2  C   UNL     1      45.997   9.126  12.568  0.00  0.00    +0.000 C 
ATOM      3  C   UNL     1      46.595   7.814  12.157  0.00  0.00    +0.000 C 
BRANCH   3   4
ATOM      4  C   UNL     1      45.727   6.660  11.886  0.00  0.00    +0.000 A 
ATOM      5  C   UNL     1      44.841   6.204  12.863  0.00  0.00    +0.000 A 
ATOM      6  C   UNL     1      44.090   5.050  12.649  0.00  0.00    +0.000 A 
ATOM      7  C   UNL     1      44.196   4.337  11.449  0.00  0.00    +0.000 A 
ATOM      8 CL   UNL     1      43.243   2.906  11.324  0.00  0.00    +0.000 Cl
ATOM      9  C   UNL     1      45.050   4.787  10.438  0.00  0.00    +0.000 A 
ATOM     10  C   UNL     1      45.810   5.957  10.677  0.00  0.00    +0.000 A 
BRANCH   9  11
ATOM     11  C   UNL     1      45.220   4.115   9.100  0.00  0.00    +0.000 C 
ATOM     12  F   UNL     1      45.514   2.790   9.114  0.00  0.00    +0.000 F 
ATOM     13  F   UNL     1      44.098   4.235   8.333  0.00  0.00    +0.000 F 
ATOM     14  F   UNL     1      46.217   4.698   8.372  0.00  0.00    +0.000 F 
ENDBRANCH   9  11
ENDBRANCH   3   4
ENDBRANCH   1   3
BRANCH   1  15
ATOM     15  N   UNL     1      48.190   7.923  13.917  0.00  0.00    +0.000 N 
ATOM     16  H   UNL     1      47.535   8.651  14.199  0.00  0.00    +0.000 HD
BRANCH  15  17
ATOM     17  C   UNL     1      48.266   6.898  14.859  0.00  0.00    +0.000 A 
ATOM     18  C   UNL     1      47.787   5.611  14.674  0.00  0.00    +0.000 A 
ATOM     19  N   UNL     1      47.928   4.595  15.552  0.00  0.00    +0.000 NA
ATOM     20  C   UNL     1      48.625   4.894  16.673  0.00  0.00    +0.000 A 
ATOM     21  N   UNL     1      49.174   6.087  16.964  0.00  0.00    +0.000 NA
ATOM     22  C   UNL     1      48.991   7.048  16.034  0.00  0.00    +0.000 A 
BRANCH  20  23
ATOM     23  C   UNL     1      48.814   3.763  17.656  0.00  0.00    +0.000 C 
ATOM     24  N   UNL     1      49.041   2.528  17.090  0.00  0.00    +0.000 N 
ATOM     25  O   UNL     1      48.782   3.894  18.871  0.00  0.00    +0.000 OA
ATOM     26  H   UNL     1      49.089   2.436  16.081  0.00  0.00    +0.000 HD
ATOM     27  H   UNL     1      49.205   1.736  17.692  0.00  0.00    +0.000 HD
ENDBRANCH  20  23
ENDBRANCH  15  17
ENDBRANCH   1  15
TORSDOF 6
ENDMDL
MODEL 8
REMARK VINA RESULT:    -6.025      5.468      7.610
REMARK INTER + INTRA:          -9.031
REMARK INTER:                  -8.174
REMARK INTRA:                  -0.856
REMARK UNBOUND:                -0.893
REMARK  Name = 
REMARK  7 active torsions:
REMARK  status: ('A' for Active; 'I' for Inactive)
REMARK    1  A    between atoms: C_1  and  C_2
REMARK    2  A    between atoms: C_2  and  C_3
REMARK    3  A    between atoms: C_2  and  C_14
REMARK    4  A    between atoms: C_3  and  N_4
REMARK    5  A    between atoms: N_4  and  C_5
REMARK    6  A    between atoms: C_8  and  C_9
REMARK    7  A    between atoms: C_19  and  C_20
REMARK                            x       y       z     vdW  Elec       q    Type
REMARK                         _______ _______ _______ _____ _____    ______ ____
ROOT
ATOM      1  C   UNL     1      48.806   7.065  12.600  0.00  0.00    +0.000 C 
ENDROOT
BRANCH   1   3
ATOM      2  C   UNL     1      47.652   9.317  12.172  0.00  0.00    +0.000 C 
ATOM      3  C   UNL     1      47.637   7.824  12.042  0.00  0.00    +0.000 C 
BRANCH   3   4
ATOM      4  C   UNL     1      46.365   7.111  11.850  0.00  0.00    +0.000 A 
ATOM      5  C   UNL     1      45.195   7.825  11.591  0.00  0.00    +0.000 A 
ATOM      6  C   UNL     1      43.971   7.164  11.510  0.00  0.00    +0.000 A 
ATOM      7  C   UNL     1      43.894   5.775  11.668  0.00  0.00    +0.000 A 
ATOM      8 CL   UNL     1      42.317   5.083  11.583  0.00  0.00    +0.000 Cl
ATOM      9  C   UNL     1      45.054   5.029  11.896  0.00  0.00    +0.000 A 
ATOM     10  C   UNL     1      46.286   5.719  11.983  0.00  0.00    +0.000 A 
BRANCH   9  11
ATOM     11  C   UNL     1      45.089   3.531  12.054  0.00  0.00    +0.000 C 
ATOM     12  F   UNL     1      44.028   2.955  12.673  0.00  0.00    +0.000 F 
ATOM     13  F   UNL     1      45.196   2.902  10.847  0.00  0.00    +0.000 F 
ATOM     14  F   UNL     1      46.183   3.130  12.765  0.00  0.00    +0.000 F 
ENDBRANCH   9  11
ENDBRANCH   3   4
ENDBRANCH   1   3
BRANCH   1  15
ATOM     15  N   UNL     1      48.995   7.527  13.971  0.00  0.00    +0.000 N 
ATOM     16  H   UNL     1      48.588   8.449  14.121  0.00  0.00    +0.000 HD
BRANCH  15  17
ATOM     17  C   UNL     1      48.695   6.649  15.013  0.00  0.00    +0.000 A 
ATOM     18  C   UNL     1      47.960   5.481  14.881  0.00  0.00    +0.000 A 
ATOM     19  N   UNL     1      47.734   4.590  15.870  0.00  0.00    +0.000 NA
ATOM     20  C   UNL     1      48.313   4.886  17.057  0.00  0.00    +0.000 A 
ATOM     21  N   UNL     1      49.078   5.962  17.313  0.00  0.00    +0.000 NA
ATOM     22  C   UNL     1      49.259   6.802  16.272  0.00  0.00    +0.000 A 
BRANCH  20  23
ATOM     23  C   UNL     1      48.092   3.887  18.168  0.00  0.00    +0.000 C 
ATOM     24  N   UNL     1      47.167   2.903  17.895  0.00  0.00    +0.000 N 
ATOM     25  O   UNL     1      48.674   3.913  19.243  0.00  0.00    +0.000 OA
ATOM     26  H   UNL     1      46.708   2.878  16.991  0.00  0.00    +0.000 HD
ATOM     27  H   UNL     1      46.995   2.189  18.585  0.00  0.00    +0.000 HD
ENDBRANCH  20  23
ENDBRANCH  15  17
ENDBRANCH   1  15
TORSDOF 6
ENDMDL
MODEL 9
REMARK VINA RESULT:    -5.402      5.169      6.758
REMARK INTER + INTRA:          -8.190
REMARK INTER:                  -7.438
REMARK INTRA:                  -0.752
REMARK UNBOUND:                -0.893
REMARK  Name = 
REMARK  7 active torsions:
REMARK  status: ('A' for Active; 'I' for Inactive)
REMARK    1  A    between atoms: C_1  and  C_2
REMARK    2  A    between atoms: C_2  and  C_3
REMARK    3  A    between atoms: C_2  and  C_14
REMARK    4  A    between atoms: C_3  and  N_4
REMARK    5  A    between atoms: N_4  and  C_5
REMARK    6  A    between atoms: C_8  and  C_9
REMARK    7  A    between atoms: C_19  and  C_20
REMARK                            x       y       z     vdW  Elec       q    Type
REMARK                         _______ _______ _______ _____ _____    ______ ____
ROOT
ATOM      1  C   UNL     1      47.593   7.594  13.061  0.00  0.00    +0.000 C 
ENDROOT
BRANCH   1   3
ATOM      2  C   UNL     1      45.554   9.041  12.485  0.00  0.00    +0.000 C 
ATOM      3  C   UNL     1      46.266   7.727  12.373  0.00  0.00    +0.000 C 
BRANCH   3   4
ATOM      4  C   UNL     1      45.513   6.504  12.058  0.00  0.00    +0.000 A 
ATOM      5  C   UNL     1      44.730   5.891  13.037  0.00  0.00    +0.000 A 
ATOM      6  C   UNL     1      44.097   4.678  12.774  0.00  0.00    +0.000 A 
ATOM      7  C   UNL     1      44.219   4.061  11.523  0.00  0.00    +0.000 A 
ATOM      8 CL   UNL     1      43.419   2.546  11.338  0.00  0.00    +0.000 Cl
ATOM      9  C   UNL     1      44.970   4.667  10.512  0.00  0.00    +0.000 A 
ATOM     10  C   UNL     1      45.611   5.895  10.800  0.00  0.00    +0.000 A 
BRANCH   9  11
ATOM     11  C   UNL     1      45.145   4.106   9.124  0.00  0.00    +0.000 C 
ATOM     12  F   UNL     1      45.454   2.788   9.031  0.00  0.00    +0.000 F 
ATOM     13  F   UNL     1      44.020   4.274   8.370  0.00  0.00    +0.000 F 
ATOM     14  F   UNL     1      46.132   4.758   8.443  0.00  0.00    +0.000 F 
ENDBRANCH   9  11
ENDBRANCH   3   4
ENDBRANCH   1   3
BRANCH   1  15
ATOM     15  N   UNL     1      48.282   8.870  12.904  0.00  0.00    +0.000 N 
ATOM     16  H   UNL     1      48.456   9.320  13.802  0.00  0.00    +0.000 HD
BRANCH  15  17
ATOM     17  C   UNL     1      49.399   8.921  12.071  0.00  0.00    +0.000 A 
ATOM     18  C   UNL     1      50.035  10.084  11.664  0.00  0.00    +0.000 A 
ATOM     19  N   UNL     1      51.162  10.134  10.922  0.00  0.00    +0.000 NA
ATOM     20  C   UNL     1      51.694   8.933  10.600  0.00  0.00    +0.000 A 
ATOM     21  N   UNL     1      51.205   7.733  10.958  0.00  0.00    +0.000 NA
ATOM     22  C   UNL     1      50.078   7.768  11.701  0.00  0.00    +0.000 A 
BRANCH  20  23
ATOM     23  C   UNL     1      52.970   8.971   9.792  0.00  0.00    +0.000 C 
ATOM     24  N   UNL     1      54.044   8.324  10.363  0.00  0.00    +0.000 N 
ATOM     25  O   UNL     1      53.081   9.519   8.705  0.00  0.00    +0.000 OA
ATOM     26  H   UNL     1      53.934   7.852  11.254  0.00  0.00    +0.000 HD
ATOM     27  H   UNL     1      54.917   8.287   9.860  0.00  0.00    +0.000 HD
ENDBRANCH  20  23
ENDBRANCH  15  17
ENDBRANCH   1  15
TORSDOF 6
ENDMDL
