MODEL 1
REMARK VINA RESULT:    -8.375      0.000      0.000
REMARK INTER + INTRA:         -13.359
REMARK INTER:                 -12.292
REMARK INTRA:                  -1.067
REMARK UNBOUND:                -1.067
REMARK  Name = 
REMARK  12 active torsions:
REMARK  status: ('A' for Active; 'I' for Inactive)
REMARK    1  A    between atoms: C_1  and  C_2
REMARK    2  A    between atoms: C_2  and  C_3
REMARK    3  A    between atoms: C_5  and  N_6
REMARK    4  A    between atoms: C_9  and  C_10
REMARK    5  A    between atoms: C_10  and  C_11
REMARK    6  A    between atoms: C_10  and  C_12
REMARK    7  A    between atoms: C_10  and  C_13
REMARK    8  A    between atoms: C_16  and  N_17
REMARK    9  A    between atoms: N_17  and  C_18
REMARK   10  A    between atoms: C_18  and  C_19
REMARK   11  A    between atoms: C_19  and  C_22
REMARK   12  A    between atoms: C_25  and  C_26
REMARK                            x       y       z     vdW  Elec       q    Type
REMARK                         _______ _______ _______ _____ _____    ______ ____
ROOT
ATOM      1  N   UNL     1      48.074   7.906  14.613  0.00  0.00    +0.000 N 
ATOM      2  C   UNL     1      47.675   6.546  14.633  0.00  0.00    +0.000 A 
ATOM      3  C   UNL     1      48.067   5.788  15.737  0.00  0.00    +0.000 A 
ATOM      4  C   UNL     1      47.773   4.422  15.790  0.00  0.00    +0.000 A 
ATOM      5  C   UNL     1      47.080   3.896  14.688  0.00  0.00    +0.000 A 
ATOM      6  C   UNL     1      46.652   4.719  13.646  0.00  0.00    +0.000 A 
ATOM      7  N   UNL     1      46.954   6.030  13.614  0.00  0.00    +0.000 NA
ATOM      8  H   UNL     1      47.495   8.404  15.284  0.00  0.00    +0.000 HD
ENDROOT
BRANCH   1  13
ATOM      9  C   UNL     1      49.347  10.277  11.075  0.00  0.00    +0.000 C 
ATOM     10  C   UNL     1      49.816   9.776  12.441  0.00  0.00    +0.000 C 
ATOM     11  C   UNL     1      51.250  10.214  12.731  0.00  0.00    +0.000 C 
ATOM     12  C   UNL     1      49.560   8.261  12.667  0.00  0.00    +0.000 C 
ATOM     13  C   UNL     1      48.237   8.628  13.387  0.00  0.00    +0.000 C 
ATOM     14  C   UNL     1      48.822  10.043  13.612  0.00  0.00    +0.000 C 
ENDBRANCH   1  13
BRANCH   4  15
ATOM     15  C   UNL     1      48.212   3.528  16.961  0.00  0.00    +0.000 C 
ATOM     16  C   UNL     1      48.940   4.395  18.005  0.00  0.00    +0.000 C 
ATOM     17  C   UNL     1      47.023   2.815  17.644  0.00  0.00    +0.000 C 
BRANCH  15  18
ATOM     18  C   UNL     1      49.144   2.454  16.520  0.00  0.00    +0.000 C 
ATOM     19  N   UNL     1      49.870   1.612  16.189  0.00  0.00    +0.000 NA
ENDBRANCH  15  18
ENDBRANCH   4  15
BRANCH   6  20
ATOM     20  N   UNL     1      45.814   4.143  12.690  0.00  0.00    +0.000 N 
ATOM     21  H   UNL     1      46.211   3.325  12.238  0.00  0.00    +0.000 HD
BRANCH  20  22
ATOM     22  C   UNL     1      45.014   5.029  11.832  0.00  0.00    +0.000 C 
BRANCH  22  23
ATOM     23  C   UNL     1      44.135   4.243  10.818  0.00  0.00    +0.000 C 
ATOM     24  F   UNL     1      43.493   3.244  11.503  0.00  0.00    +0.000 F 
ATOM     25  F   UNL     1      43.131   5.059  10.375  0.00  0.00    +0.000 F 
BRANCH  23  26
ATOM     26  C   UNL     1      44.954   3.700   9.670  0.00  0.00    +0.000 A 
ATOM     27  C   UNL     1      45.117   2.326   9.468  0.00  0.00    +0.000 A 
ATOM     28  C   UNL     1      45.888   1.877   8.392  0.00  0.00    +0.000 A 
ATOM     29  C   UNL     1      46.474   2.819   7.552  0.00  0.00    +0.000 A 
ATOM     30  N   UNL     1      46.337   4.163   7.723  0.00  0.00    +0.000 NA
ATOM     31  C   UNL     1      45.575   4.565   8.773  0.00  0.00    +0.000 A 
BRANCH  29  32
ATOM     32  C   UNL     1      47.314   2.354   6.405  0.00  0.00    +0.000 C 
ATOM     33  N   UNL     1      47.252   3.120   5.272  0.00  0.00    +0.000 N 
ATOM     34  O   UNL     1      48.015   1.351   6.464  0.00  0.00    +0.000 OA
ATOM     35  H   UNL     1      46.652   3.936   5.246  0.00  0.00    +0.000 HD
ATOM     36  H   UNL     1      47.779   2.846   4.458  0.00  0.00    +0.000 HD
ENDBRANCH  29  32
ENDBRANCH  23  26
ENDBRANCH  22  23
ENDBRANCH  20  22
ENDBRANCH   6  20
TORSDOF 8
ENDMDL
MODEL 2
REMARK VINA RESULT:    -8.228      3.009      3.989
REMARK INTER + INTRA:         -13.144
REMARK INTER:                 -12.469
REMARK INTRA:                  -0.674
REMARK UNBOUND:                -1.067
REMARK  Name = 
REMARK  12 active torsions:
REMARK  status: ('A' for Active; 'I' for Inactive)
REMARK    1  A    between atoms: C_1  and  C_2
REMARK    2  A    between atoms: C_2  and  C_3
REMARK    3  A    between atoms: C_5  and  N_6
REMARK    4  A    between atoms: C_9  and  C_10
REMARK    5  A    between atoms: C_10  and  C_11
REMARK    6  A    between atoms: C_10  and  C_12
REMARK    7  A    between atoms: C_10  and  C_13
REMARK    8  A    between atoms: C_16  and  N_17
REMARK    9  A    between atoms: N_17  and  C_18
REMARK   10  A    between atoms: C_18  and  C_19
REMARK   11  A    between atoms: C_19  and  C_22
REMARK   12  A    between atoms: C_25  and  C_26
REMARK                            x       y       z     vdW  Elec       q    Type
REMARK                         _______ _______ _______ _____ _____    ______ ____
ROOT
ATOM      1  N   UNL     1      45.141   9.820  12.370  0.00  0.00    +0.000 N 
ATOM      2  C   UNL     1      45.838   8.612  12.624  0.00  0.00    +0.000 A 
ATOM      3  C   UNL     1      46.807   8.642  13.628  0.00  0.00    +0.000 A 
ATOM      4  C   UNL     1      47.586   7.509  13.884  0.00  0.00    +0.000 A 
ATOM      5  C   UNL     1      47.324   6.385  13.084  0.00  0.00    +0.000 A 
ATOM      6  C   UNL     1      46.293   6.394  12.144  0.00  0.00    +0.000 A 
ATOM      7  N   UNL     1      45.562   7.500  11.910  0.00  0.00    +0.000 NA
ATOM      8  H   UNL     1      44.486   9.962  13.134  0.00  0.00    +0.000 HD
ENDROOT
BRANCH   1  13
ATOM      9  C   UNL     1      42.702  10.973   8.836  0.00  0.00    +0.000 C 
ATOM     10  C   UNL     1      42.676  10.892  10.363  0.00  0.00    +0.000 C 
ATOM     11  C   UNL     1      41.350  11.399  10.924  0.00  0.00    +0.000 C 
ATOM     12  C   UNL     1      43.928  11.516  11.038  0.00  0.00    +0.000 C 
ATOM     13  C   UNL     1      44.561  10.102  11.091  0.00  0.00    +0.000 C 
ATOM     14  C   UNL     1      43.133   9.522  10.952  0.00  0.00    +0.000 C 
ENDBRANCH   1  13
BRANCH   4  15
ATOM     15  C   UNL     1      48.694   7.492  14.949  0.00  0.00    +0.000 C 
ATOM     16  C   UNL     1      50.058   7.658  14.253  0.00  0.00    +0.000 C 
ATOM     17  C   UNL     1      48.528   8.614  15.999  0.00  0.00    +0.000 C 
BRANCH  15  18
ATOM     18  C   UNL     1      48.715   6.211  15.708  0.00  0.00    +0.000 C 
ATOM     19  N   UNL     1      48.738   5.208  16.290  0.00  0.00    +0.000 NA
ENDBRANCH  15  18
ENDBRANCH   4  15
BRANCH   6  20
ATOM     20  N   UNL     1      45.989   5.179  11.530  0.00  0.00    +0.000 N 
ATOM     21  H   UNL     1      46.243   5.142  10.547  0.00  0.00    +0.000 HD
BRANCH  20  22
ATOM     22  C   UNL     1      44.737   4.501  11.896  0.00  0.00    +0.000 C 
BRANCH  22  23
ATOM     23  C   UNL     1      43.927   4.031  10.654  0.00  0.00    +0.000 C 
ATOM     24  F   UNL     1      43.056   3.055  11.064  0.00  0.00    +0.000 F 
ATOM     25  F   UNL     1      43.126   5.056  10.233  0.00  0.00    +0.000 F 
BRANCH  23  26
ATOM     26  C   UNL     1      44.832   3.546   9.545  0.00  0.00    +0.000 A 
ATOM     27  C   UNL     1      45.132   2.190   9.380  0.00  0.00    +0.000 A 
ATOM     28  C   UNL     1      45.978   1.795   8.340  0.00  0.00    +0.000 A 
ATOM     29  C   UNL     1      46.500   2.773   7.497  0.00  0.00    +0.000 A 
ATOM     30  N   UNL     1      46.229   4.101   7.633  0.00  0.00    +0.000 NA
ATOM     31  C   UNL     1      45.398   4.448   8.649  0.00  0.00    +0.000 A 
BRANCH  29  32
ATOM     32  C   UNL     1      47.418   2.367   6.388  0.00  0.00    +0.000 C 
ATOM     33  N   UNL     1      47.290   3.071   5.222  0.00  0.00    +0.000 N 
ATOM     34  O   UNL     1      48.235   1.462   6.506  0.00  0.00    +0.000 OA
ATOM     35  H   UNL     1      46.595   3.805   5.148  0.00  0.00    +0.000 HD
ATOM     36  H   UNL     1      47.866   2.830   4.430  0.00  0.00    +0.000 HD
ENDBRANCH  29  32
ENDBRANCH  23  26
ENDBRANCH  22  23
ENDBRANCH  20  22
ENDBRANCH   6  20
TORSDOF 8
ENDMDL
MODEL 3
REMARK VINA RESULT:    -8.129      1.405      5.283
REMARK INTER + INTRA:         -12.998
REMARK INTER:                 -12.030
REMARK INTRA:                  -0.968
REMARK UNBOUND:                -1.067
REMARK  Name = 
REMARK  12 active torsions:
REMARK  status: ('A' for Active; 'I' for Inactive)
REMARK    1  A    between atoms: C_1  and  C_2
REMARK    2  A    between atoms: C_2  and  C_3
REMARK    3  A    between atoms: C_5  and  N_6
REMARK    4  A    between atoms: C_9  and  C_10
REMARK    5  A    between atoms: C_10  and  C_11
REMARK    6  A    between atoms: C_10  and  C_12
REMARK    7  A    between atoms: C_10  and  C_13
REMARK    8  A    between atoms: C_16  and  N_17
REMARK    9  A    between atoms: N_17  and  C_18
REMARK   10  A    between atoms: C_18  and  C_19
REMARK   11  A    between atoms: C_19  and  C_22
REMARK   12  A    between atoms: C_25  and  C_26
REMARK                            x       y       z     vdW  Elec       q    Type
REMARK                         _______ _______ _______ _____ _____    ______ ____
ROOT
ATOM      1  N   UNL     1      48.394   5.967  15.149  0.00  0.00    +0.000 N 
ATOM      2  C   UNL     1      47.703   6.610  14.093  0.00  0.00    +0.000 A 
ATOM      3  C   UNL     1      48.187   7.855  13.687  0.00  0.00    +0.000 A 
ATOM      4  C   UNL     1      47.512   8.582  12.701  0.00  0.00    +0.000 A 
ATOM      5  C   UNL     1      46.357   7.983  12.173  0.00  0.00    +0.000 A 
ATOM      6  C   UNL     1      45.963   6.703  12.568  0.00  0.00    +0.000 A 
ATOM      7  N   UNL     1      46.625   6.026  13.525  0.00  0.00    +0.000 NA
ATOM      8  H   UNL     1      49.270   5.613  14.772  0.00  0.00    +0.000 HD
ENDROOT
BRANCH   1  13
ATOM      9  C   UNL     1      47.102   2.630  17.788  0.00  0.00    +0.000 C 
ATOM     10  C   UNL     1      48.265   3.126  16.928  0.00  0.00    +0.000 C 
ATOM     11  C   UNL     1      49.445   2.158  16.978  0.00  0.00    +0.000 C 
ATOM     12  C   UNL     1      48.651   4.606  17.200  0.00  0.00    +0.000 C 
ATOM     13  C   UNL     1      47.748   5.022  16.010  0.00  0.00    +0.000 C 
ATOM     14  C   UNL     1      47.870   3.570  15.487  0.00  0.00    +0.000 C 
ENDBRANCH   1  13
BRANCH   4  15
ATOM     15  C   UNL     1      47.973   9.974  12.241  0.00  0.00    +0.000 C 
ATOM     16  C   UNL     1      48.473  10.764  13.465  0.00  0.00    +0.000 C 
ATOM     17  C   UNL     1      49.105   9.909  11.191  0.00  0.00    +0.000 C 
BRANCH  15  18
ATOM     18  C   UNL     1      46.866  10.746  11.612  0.00  0.00    +0.000 C 
ATOM     19  N   UNL     1      46.012  11.353  11.115  0.00  0.00    +0.000 NA
ENDBRANCH  15  18
ENDBRANCH   4  15
BRANCH   6  20
ATOM     20  N   UNL     1      44.915   6.118  11.858  0.00  0.00    +0.000 N 
ATOM     21  H   UNL     1      44.057   6.661  11.874  0.00  0.00    +0.000 HD
BRANCH  20  22
ATOM     22  C   UNL     1      44.754   4.659  11.918  0.00  0.00    +0.000 C 
BRANCH  22  23
ATOM     23  C   UNL     1      43.923   4.100  10.728  0.00  0.00    +0.000 C 
ATOM     24  F   UNL     1      43.111   3.107  11.211  0.00  0.00    +0.000 F 
ATOM     25  F   UNL     1      43.062   5.070  10.294  0.00  0.00    +0.000 F 
BRANCH  23  26
ATOM     26  C   UNL     1      44.810   3.606   9.609  0.00  0.00    +0.000 A 
ATOM     27  C   UNL     1      45.081   2.246   9.430  0.00  0.00    +0.000 A 
ATOM     28  C   UNL     1      45.911   1.843   8.380  0.00  0.00    +0.000 A 
ATOM     29  C   UNL     1      46.446   2.817   7.541  0.00  0.00    +0.000 A 
ATOM     30  N   UNL     1      46.203   4.149   7.690  0.00  0.00    +0.000 NA
ATOM     31  C   UNL     1      45.386   4.505   8.715  0.00  0.00    +0.000 A 
BRANCH  29  32
ATOM     32  C   UNL     1      47.347   2.403   6.422  0.00  0.00    +0.000 C 
ATOM     33  N   UNL     1      47.317   3.197   5.308  0.00  0.00    +0.000 N 
ATOM     34  O   UNL     1      48.069   1.415   6.487  0.00  0.00    +0.000 OA
ATOM     35  H   UNL     1      46.699   3.999   5.276  0.00  0.00    +0.000 HD
ATOM     36  H   UNL     1      47.886   2.957   4.511  0.00  0.00    +0.000 HD
ENDBRANCH  29  32
ENDBRANCH  23  26
ENDBRANCH  22  23
ENDBRANCH  20  22
ENDBRANCH   6  20
TORSDOF 8
ENDMDL
MODEL 4
REMARK VINA RESULT:    -7.829      3.724      7.511
REMARK INTER + INTRA:         -12.558
REMARK INTER:                 -11.603
REMARK INTRA:                  -0.956
REMARK UNBOUND:                -1.067
REMARK  Name = 
REMARK  12 active torsions:
REMARK  status: ('A' for Active; 'I' for Inactive)
REMARK    1  A    between atoms: C_1  and  C_2
REMARK    2  A    between atoms: C_2  and  C_3
REMARK    3  A    between atoms: C_5  and  N_6
REMARK    4  A    between atoms: C_9  and  C_10
REMARK    5  A    between atoms: C_10  and  C_11
REMARK    6  A    between atoms: C_10  and  C_12
REMARK    7  A    between atoms: C_10  and  C_13
REMARK    8  A    between atoms: C_16  and  N_17
REMARK    9  A    between atoms: N_17  and  C_18
REMARK   10  A    between atoms: C_18  and  C_19
REMARK   11  A    between atoms: C_19  and  C_22
REMARK   12  A    between atoms: C_25  and  C_26
REMARK                            x       y       z     vdW  Elec       q    Type
REMARK                         _______ _______ _______ _____ _____    ______ ____
ROOT
ATOM      1  N   UNL     1      47.922   7.331  11.542  0.00  0.00    +0.000 N 
ATOM      2  C   UNL     1      47.091   6.329  12.101  0.00  0.00    +0.000 A 
ATOM      3  C   UNL     1      45.995   5.920  11.341  0.00  0.00    +0.000 A 
ATOM      4  C   UNL     1      45.089   4.989  11.860  0.00  0.00    +0.000 A 
ATOM      5  C   UNL     1      45.362   4.517  13.154  0.00  0.00    +0.000 A 
ATOM      6  C   UNL     1      46.514   4.909  13.837  0.00  0.00    +0.000 A 
ATOM      7  N   UNL     1      47.367   5.813  13.319  0.00  0.00    +0.000 NA
ATOM      8  H   UNL     1      48.471   6.897  10.804  0.00  0.00    +0.000 HD
ENDROOT
BRANCH   1  13
ATOM      9  C   UNL     1      50.631  10.345  13.370  0.00  0.00    +0.000 C 
ATOM     10  C   UNL     1      50.201   9.744  12.032  0.00  0.00    +0.000 C 
ATOM     11  C   UNL     1      50.933  10.402  10.865  0.00  0.00    +0.000 C 
ATOM     12  C   UNL     1      48.660   9.672  11.851  0.00  0.00    +0.000 C 
ATOM     13  C   UNL     1      48.703   8.209  12.361  0.00  0.00    +0.000 C 
ATOM     14  C   UNL     1      50.204   8.185  11.985  0.00  0.00    +0.000 C 
ENDBRANCH   1  13
BRANCH   4  15
ATOM     15  C   UNL     1      43.843   4.530  11.087  0.00  0.00    +0.000 C 
ATOM     16  C   UNL     1      42.690   5.512  11.370  0.00  0.00    +0.000 C 
ATOM     17  C   UNL     1      44.080   4.463   9.561  0.00  0.00    +0.000 C 
BRANCH  15  18
ATOM     18  C   UNL     1      43.404   3.168  11.500  0.00  0.00    +0.000 C 
ATOM     19  N   UNL     1      43.050   2.111  11.818  0.00  0.00    +0.000 NA
ENDBRANCH  15  18
ENDBRANCH   4  15
BRANCH   6  20
ATOM     20  N   UNL     1      46.794   4.250  15.034  0.00  0.00    +0.000 N 
ATOM     21  H   UNL     1      45.983   3.806  15.456  0.00  0.00    +0.000 HD
BRANCH  20  22
ATOM     22  C   UNL     1      47.750   4.862  15.967  0.00  0.00    +0.000 C 
BRANCH  22  23
ATOM     23  C   UNL     1      47.881   4.065  17.296  0.00  0.00    +0.000 C 
ATOM     24  F   UNL     1      47.660   4.935  18.332  0.00  0.00    +0.000 F 
ATOM     25  F   UNL     1      46.854   3.165  17.377  0.00  0.00    +0.000 F 
BRANCH  23  26
ATOM     26  C   UNL     1      49.224   3.384  17.412  0.00  0.00    +0.000 A 
ATOM     27  C   UNL     1      50.317   4.009  18.019  0.00  0.00    +0.000 A 
ATOM     28  C   UNL     1      51.539   3.336  18.097  0.00  0.00    +0.000 A 
ATOM     29  C   UNL     1      51.629   2.054  17.560  0.00  0.00    +0.000 A 
ATOM     30  N   UNL     1      50.584   1.419  16.960  0.00  0.00    +0.000 NA
ATOM     31  C   UNL     1      49.410   2.099  16.909  0.00  0.00    +0.000 A 
BRANCH  29  32
ATOM     32  C   UNL     1      52.934   1.326  17.622  0.00  0.00    +0.000 C 
ATOM     33  N   UNL     1      52.873   0.031  18.060  0.00  0.00    +0.000 N 
ATOM     34  O   UNL     1      53.997   1.848  17.307  0.00  0.00    +0.000 OA
ATOM     35  H   UNL     1      51.982  -0.370  18.329  0.00  0.00    +0.000 HD
ATOM     36  H   UNL     1      53.722  -0.506  18.144  0.00  0.00    +0.000 HD
ENDBRANCH  29  32
ENDBRANCH  23  26
ENDBRANCH  22  23
ENDBRANCH  20  22
ENDBRANCH   6  20
TORSDOF 8
ENDMDL
MODEL 5
REMARK VINA RESULT:    -7.454      3.370      8.313
REMARK INTER + INTRA:         -12.007
REMARK INTER:                 -11.214
REMARK INTRA:                  -0.793
REMARK UNBOUND:                -1.067
REMARK  Name = 
REMARK  12 active torsions:
REMARK  status: ('A' for Active; 'I' for Inactive)
REMARK    1  A    between atoms: C_1  and  C_2
REMARK    2  A    between atoms: C_2  and  C_3
REMARK    3  A    between atoms: C_5  and  N_6
REMARK    4  A    between atoms: C_9  and  C_10
REMARK    5  A    between atoms: C_10  and  C_11
REMARK    6  A    between atoms: C_10  and  C_12
REMARK    7  A    between atoms: C_10  and  C_13
REMARK    8  A    between atoms: C_16  and  N_17
REMARK    9  A    between atoms: N_17  and  C_18
REMARK   10  A    between atoms: C_18  and  C_19
REMARK   11  A    between atoms: C_19  and  C_22
REMARK   12  A    between atoms: C_25  and  C_26
REMARK                            x       y       z     vdW  Elec       q    Type
REMARK                         _______ _______ _______ _____ _____    ______ ____
ROOT
ATOM      1  N   UNL     1      45.117   5.607  10.276  0.00  0.00    +0.000 N 
ATOM      2  C   UNL     1      45.895   5.828  11.439  0.00  0.00    +0.000 A 
ATOM      3  C   UNL     1      46.814   6.877  11.395  0.00  0.00    +0.000 A 
ATOM      4  C   UNL     1      47.669   7.107  12.478  0.00  0.00    +0.000 A 
ATOM      5  C   UNL     1      47.531   6.235  13.569  0.00  0.00    +0.000 A 
ATOM      6  C   UNL     1      46.544   5.248  13.585  0.00  0.00    +0.000 A 
ATOM      7  N   UNL     1      45.739   5.041  12.526  0.00  0.00    +0.000 NA
ATOM      8  H   UNL     1      44.420   6.345  10.229  0.00  0.00    +0.000 HD
ENDROOT
BRANCH   1  13
ATOM      9  C   UNL     1      44.137   1.492   8.907  0.00  0.00    +0.000 C 
ATOM     10  C   UNL     1      45.196   2.590   8.811  0.00  0.00    +0.000 C 
ATOM     11  C   UNL     1      46.378   2.148   7.951  0.00  0.00    +0.000 C 
ATOM     12  C   UNL     1      45.603   3.182  10.188  0.00  0.00    +0.000 C 
ATOM     13  C   UNL     1      44.573   4.319   9.964  0.00  0.00    +0.000 C 
ATOM     14  C   UNL     1      44.643   4.002   8.450  0.00  0.00    +0.000 C 
ENDBRANCH   1  13
BRANCH   4  15
ATOM     15  C   UNL     1      48.726   8.222  12.473  0.00  0.00    +0.000 C 
ATOM     16  C   UNL     1      48.103   9.498  11.876  0.00  0.00    +0.000 C 
ATOM     17  C   UNL     1      49.264   8.541  13.886  0.00  0.00    +0.000 C 
BRANCH  15  18
ATOM     18  C   UNL     1      49.912   7.857  11.649  0.00  0.00    +0.000 C 
ATOM     19  N   UNL     1      50.835   7.585  11.001  0.00  0.00    +0.000 NA
ENDBRANCH  15  18
ENDBRANCH   4  15
BRANCH   6  20
ATOM     20  N   UNL     1      46.364   4.554  14.781  0.00  0.00    +0.000 N 
ATOM     21  H   UNL     1      45.909   5.101  15.507  0.00  0.00    +0.000 HD
BRANCH  20  22
ATOM     22  C   UNL     1      47.425   3.642  15.232  0.00  0.00    +0.000 C 
BRANCH  22  23
ATOM     23  C   UNL     1      47.718   3.774  16.754  0.00  0.00    +0.000 C 
ATOM     24  F   UNL     1      47.529   5.084  17.107  0.00  0.00    +0.000 F 
ATOM     25  F   UNL     1      46.763   3.087  17.451  0.00  0.00    +0.000 F 
BRANCH  23  26
ATOM     26  C   UNL     1      49.108   3.293  17.100  0.00  0.00    +0.000 A 
ATOM     27  C   UNL     1      50.032   4.119  17.747  0.00  0.00    +0.000 A 
ATOM     28  C   UNL     1      51.307   3.626  18.041  0.00  0.00    +0.000 A 
ATOM     29  C   UNL     1      51.617   2.319  17.676  0.00  0.00    +0.000 A 
ATOM     30  N   UNL     1      50.740   1.491  17.043  0.00  0.00    +0.000 NA
ATOM     31  C   UNL     1      49.509   1.999  16.780  0.00  0.00    +0.000 A 
BRANCH  29  32
ATOM     32  C   UNL     1      52.981   1.782  17.971  0.00  0.00    +0.000 C 
ATOM     33  N   UNL     1      53.499   2.111  19.194  0.00  0.00    +0.000 N 
ATOM     34  O   UNL     1      53.606   1.092  17.174  0.00  0.00    +0.000 OA
ATOM     35  H   UNL     1      52.966   2.696  19.828  0.00  0.00    +0.000 HD
ATOM     36  H   UNL     1      54.423   1.797  19.443  0.00  0.00    +0.000 HD
ENDBRANCH  29  32
ENDBRANCH  23  26
ENDBRANCH  22  23
ENDBRANCH  20  22
ENDBRANCH   6  20
TORSDOF 8
ENDMDL
MODEL 6
REMARK VINA RESULT:    -7.121      2.798      5.288
REMARK INTER + INTRA:         -11.518
REMARK INTER:                 -10.318
REMARK INTRA:                  -1.200
REMARK UNBOUND:                -1.067
REMARK  Name = 
REMARK  12 active torsions:
REMARK  status: ('A' for Active; 'I' for Inactive)
REMARK    1  A    between atoms: C_1  and  C_2
REMARK    2  A    between atoms: C_2  and  C_3
REMARK    3  A    between atoms: C_5  and  N_6
REMARK    4  A    between atoms: C_9  and  C_10
REMARK    5  A    between atoms: C_10  and  C_11
REMARK    6  A    between atoms: C_10  and  C_12
REMARK    7  A    between atoms: C_10  and  C_13
REMARK    8  A    between atoms: C_16  and  N_17
REMARK    9  A    between atoms: N_17  and  C_18
REMARK   10  A    between atoms: C_18  and  C_19
REMARK   11  A    between atoms: C_19  and  C_22
REMARK   12  A    between atoms: C_25  and  C_26
REMARK                            x       y       z     vdW  Elec       q    Type
REMARK                         _______ _______ _______ _____ _____    ______ ____
ROOT
ATOM      1  N   UNL     1      48.246   8.079  12.751  0.00  0.00    +0.000 N 
ATOM      2  C   UNL     1      46.874   7.964  12.417  0.00  0.00    +0.000 A 
ATOM      3  C   UNL     1      46.278   9.067  11.805  0.00  0.00    +0.000 A 
ATOM      4  C   UNL     1      44.910   9.055  11.515  0.00  0.00    +0.000 A 
ATOM      5  C   UNL     1      44.213   7.890  11.874  0.00  0.00    +0.000 A 
ATOM      6  C   UNL     1      44.878   6.791  12.419  0.00  0.00    +0.000 A 
ATOM      7  N   UNL     1      46.195   6.830  12.696  0.00  0.00    +0.000 NA
ATOM      8  H   UNL     1      48.778   8.010  11.886  0.00  0.00    +0.000 HD
ENDROOT
BRANCH   1  13
ATOM      9  C   UNL     1      50.236   6.461  16.382  0.00  0.00    +0.000 C 
ATOM     10  C   UNL     1      49.899   7.762  15.652  0.00  0.00    +0.000 C 
ATOM     11  C   UNL     1      50.394   8.979  16.429  0.00  0.00    +0.000 C 
ATOM     12  C   UNL     1      48.413   7.857  15.209  0.00  0.00    +0.000 C 
ATOM     13  C   UNL     1      48.831   7.321  13.816  0.00  0.00    +0.000 C 
ATOM     14  C   UNL     1      50.274   7.778  14.140  0.00  0.00    +0.000 C 
ENDBRANCH   1  13
BRANCH   4  15
ATOM     15  C   UNL     1      44.190  10.253  10.877  0.00  0.00    +0.000 C 
ATOM     16  C   UNL     1      44.485  11.514  11.711  0.00  0.00    +0.000 C 
ATOM     17  C   UNL     1      44.630  10.505   9.417  0.00  0.00    +0.000 C 
BRANCH  15  18
ATOM     18  C   UNL     1      42.714  10.058  10.839  0.00  0.00    +0.000 C 
ATOM     19  N   UNL     1      41.564   9.911  10.797  0.00  0.00    +0.000 NA
ENDBRANCH  15  18
ENDBRANCH   4  15
BRANCH   6  20
ATOM     20  N   UNL     1      44.139   5.617  12.571  0.00  0.00    +0.000 N 
ATOM     21  H   UNL     1      43.706   5.522  13.485  0.00  0.00    +0.000 HD
BRANCH  20  22
ATOM     22  C   UNL     1      44.657   4.379  11.972  0.00  0.00    +0.000 C 
BRANCH  22  23
ATOM     23  C   UNL     1      43.891   3.975  10.680  0.00  0.00    +0.000 C 
ATOM     24  F   UNL     1      42.980   3.007  11.016  0.00  0.00    +0.000 F 
ATOM     25  F   UNL     1      43.132   5.034  10.265  0.00  0.00    +0.000 F 
BRANCH  23  26
ATOM     26  C   UNL     1      44.832   3.508   9.594  0.00  0.00    +0.000 A 
ATOM     27  C   UNL     1      45.477   4.410   8.742  0.00  0.00    +0.000 A 
ATOM     28  C   UNL     1      46.335   3.925   7.751  0.00  0.00    +0.000 A 
ATOM     29  C   UNL     1      46.518   2.549   7.642  0.00  0.00    +0.000 A 
ATOM     30  N   UNL     1      45.902   1.646   8.454  0.00  0.00    +0.000 NA
ATOM     31  C   UNL     1      45.082   2.151   9.411  0.00  0.00    +0.000 A 
BRANCH  29  32
ATOM     32  C   UNL     1      47.422   2.014   6.577  0.00  0.00    +0.000 C 
ATOM     33  N   UNL     1      48.283   2.919   6.018  0.00  0.00    +0.000 N 
ATOM     34  O   UNL     1      47.399   0.843   6.218  0.00  0.00    +0.000 OA
ATOM     35  H   UNL     1      48.270   3.885   6.324  0.00  0.00    +0.000 HD
ATOM     36  H   UNL     1      48.903   2.624   5.280  0.00  0.00    +0.000 HD
ENDBRANCH  29  32
ENDBRANCH  23  26
ENDBRANCH  22  23
ENDBRANCH  20  22
ENDBRANCH   6  20
TORSDOF 8
ENDMDL
MODEL 7
REMARK VINA RESULT:    -7.028      4.087      6.575
REMARK INTER + INTRA:         -11.382
REMARK INTER:                  -9.846
REMARK INTRA:                  -1.536
REMARK UNBOUND:                -1.067
REMARK  Name = 
REMARK  12 active torsions:
REMARK  status: ('A' for Active; 'I' for Inactive)
REMARK    1  A    between atoms: C_1  and  C_2
REMARK    2  A    between atoms: C_2  and  C_3
REMARK    3  A    between atoms: C_5  and  N_6
REMARK    4  A    between atoms: C_9  and  C_10
REMARK    5  A    between atoms: C_10  and  C_11
REMARK    6  A    between atoms: C_10  and  C_12
REMARK    7  A    between atoms: C_10  and  C_13
REMARK    8  A    between atoms: C_16  and  N_17
REMARK    9  A    between atoms: N_17  and  C_18
REMARK   10  A    between atoms: C_18  and  C_19
REMARK   11  A    between atoms: C_19  and  C_22
REMARK   12  A    between atoms: C_25  and  C_26
REMARK                            x       y       z     vdW  Elec       q    Type
REMARK                         _______ _______ _______ _____ _____    ______ ____
ROOT
ATOM      1  N   UNL     1      45.973   4.047  14.169  0.00  0.00    +0.000 N 
ATOM      2  C   UNL     1      47.028   4.731  14.822  0.00  0.00    +0.000 A 
ATOM      3  C   UNL     1      47.430   4.236  16.063  0.00  0.00    +0.000 A 
ATOM      4  C   UNL     1      48.414   4.903  16.799  0.00  0.00    +0.000 A 
ATOM      5  C   UNL     1      48.944   6.063  16.213  0.00  0.00    +0.000 A 
ATOM      6  C   UNL     1      48.553   6.470  14.937  0.00  0.00    +0.000 A 
ATOM      7  N   UNL     1      47.598   5.815  14.251  0.00  0.00    +0.000 NA
ATOM      8  H   UNL     1      46.351   3.175  13.808  0.00  0.00    +0.000 HD
ENDROOT
BRANCH   1  13
ATOM      9  C   UNL     1      43.299   5.357  10.868  0.00  0.00    +0.000 C 
ATOM     10  C   UNL     1      44.120   4.171  11.376  0.00  0.00    +0.000 C 
ATOM     11  C   UNL     1      43.990   2.966  10.447  0.00  0.00    +0.000 C 
ATOM     12  C   UNL     1      43.875   3.843  12.874  0.00  0.00    +0.000 C 
ATOM     13  C   UNL     1      45.114   4.703  13.229  0.00  0.00    +0.000 C 
ATOM     14  C   UNL     1      45.589   4.514  11.768  0.00  0.00    +0.000 C 
ENDBRANCH   1  13
BRANCH   4  15
ATOM     15  C   UNL     1      48.871   4.427  18.188  0.00  0.00    +0.000 C 
ATOM     16  C   UNL     1      48.294   3.023  18.449  0.00  0.00    +0.000 C 
ATOM     17  C   UNL     1      50.410   4.369  18.321  0.00  0.00    +0.000 C 
BRANCH  15  18
ATOM     18  C   UNL     1      48.393   5.333  19.269  0.00  0.00    +0.000 C 
ATOM     19  N   UNL     1      48.034   6.043  20.113  0.00  0.00    +0.000 NA
ENDBRANCH  15  18
ENDBRANCH   4  15
BRANCH   6  20
ATOM     20  N   UNL     1      49.265   7.523  14.363  0.00  0.00    +0.000 N 
ATOM     21  H   UNL     1      49.131   8.413  14.836  0.00  0.00    +0.000 HD
BRANCH  20  22
ATOM     22  C   UNL     1      49.374   7.583  12.899  0.00  0.00    +0.000 C 
BRANCH  22  23
ATOM     23  C   UNL     1      49.091   9.005  12.337  0.00  0.00    +0.000 C 
ATOM     24  F   UNL     1      49.625   9.917  13.210  0.00  0.00    +0.000 F 
ATOM     25  F   UNL     1      49.802   9.176  11.181  0.00  0.00    +0.000 F 
BRANCH  23  26
ATOM     26  C   UNL     1      47.614   9.237  12.117  0.00  0.00    +0.000 A 
ATOM     27  C   UNL     1      46.696   8.183  12.116  0.00  0.00    +0.000 A 
ATOM     28  C   UNL     1      45.341   8.452  11.905  0.00  0.00    +0.000 A 
ATOM     29  C   UNL     1      44.947   9.772  11.698  0.00  0.00    +0.000 A 
ATOM     30  N   UNL     1      45.817  10.820  11.690  0.00  0.00    +0.000 NA
ATOM     31  C   UNL     1      47.124  10.523  11.907  0.00  0.00    +0.000 A 
BRANCH  29  32
ATOM     32  C   UNL     1      43.503  10.074  11.455  0.00  0.00    +0.000 C 
ATOM     33  N   UNL     1      42.816   9.146  10.721  0.00  0.00    +0.000 N 
ATOM     34  O   UNL     1      42.959  11.086  11.881  0.00  0.00    +0.000 OA
ATOM     35  H   UNL     1      43.294   8.325  10.369  0.00  0.00    +0.000 HD
ATOM     36  H   UNL     1      41.844   9.303  10.505  0.00  0.00    +0.000 HD
ENDBRANCH  29  32
ENDBRANCH  23  26
ENDBRANCH  22  23
ENDBRANCH  20  22
ENDBRANCH   6  20
TORSDOF 8
ENDMDL
MODEL 8
REMARK VINA RESULT:    -6.869      3.947      8.072
REMARK INTER + INTRA:         -11.149
REMARK INTER:                 -10.014
REMARK INTRA:                  -1.135
REMARK UNBOUND:                -1.067
REMARK  Name = 
REMARK  12 active torsions:
REMARK  status: ('A' for Active; 'I' for Inactive)
REMARK    1  A    between atoms: C_1  and  C_2
REMARK    2  A    between atoms: C_2  and  C_3
REMARK    3  A    between atoms: C_5  and  N_6
REMARK    4  A    between atoms: C_9  and  C_10
REMARK    5  A    between atoms: C_10  and  C_11
REMARK    6  A    between atoms: C_10  and  C_12
REMARK    7  A    between atoms: C_10  and  C_13
REMARK    8  A    between atoms: C_16  and  N_17
REMARK    9  A    between atoms: N_17  and  C_18
REMARK   10  A    between atoms: C_18  and  C_19
REMARK   11  A    between atoms: C_19  and  C_22
REMARK   12  A    between atoms: C_25  and  C_26
REMARK                            x       y       z     vdW  Elec       q    Type
REMARK                         _______ _______ _______ _____ _____    ______ ____
ROOT
ATOM      1  N   UNL     1      47.871   7.118  11.641  0.00  0.00    +0.000 N 
ATOM      2  C   UNL     1      46.988   6.179  12.229  0.00  0.00    +0.000 A 
ATOM      3  C   UNL     1      45.922   5.736  11.444  0.00  0.00    +0.000 A 
ATOM      4  C   UNL     1      44.968   4.867  11.982  0.00  0.00    +0.000 A 
ATOM      5  C   UNL     1      45.161   4.491  13.321  0.00  0.00    +0.000 A 
ATOM      6  C   UNL     1      46.285   4.910  14.033  0.00  0.00    +0.000 A 
ATOM      7  N   UNL     1      47.186   5.753  13.495  0.00  0.00    +0.000 NA
ATOM      8  H   UNL     1      48.447   6.617  10.969  0.00  0.00    +0.000 HD
ENDROOT
BRANCH   1  13
ATOM      9  C   UNL     1      50.373  10.355  13.379  0.00  0.00    +0.000 C 
ATOM     10  C   UNL     1      49.852   9.793  12.057  0.00  0.00    +0.000 C 
ATOM     11  C   UNL     1      50.328  10.629  10.871  0.00  0.00    +0.000 C 
ATOM     12  C   UNL     1      48.324   9.514  12.060  0.00  0.00    +0.000 C 
ATOM     13  C   UNL     1      48.630   8.040  12.432  0.00  0.00    +0.000 C 
ATOM     14  C   UNL     1      50.057   8.258  11.874  0.00  0.00    +0.000 C 
ENDBRANCH   1  13
BRANCH   4  15
ATOM     15  C   UNL     1      43.753   4.376  11.180  0.00  0.00    +0.000 C 
ATOM     16  C   UNL     1      43.340   2.986  11.700  0.00  0.00    +0.000 C 
ATOM     17  C   UNL     1      42.542   5.330  11.288  0.00  0.00    +0.000 C 
BRANCH  15  18
ATOM     18  C   UNL     1      44.059   4.255   9.728  0.00  0.00    +0.000 C 
ATOM     19  N   UNL     1      44.310   4.155   8.600  0.00  0.00    +0.000 NA
ENDBRANCH  15  18
ENDBRANCH   4  15
BRANCH   6  20
ATOM     20  N   UNL     1      46.486   4.339  15.290  0.00  0.00    +0.000 N 
ATOM     21  H   UNL     1      46.206   4.938  16.061  0.00  0.00    +0.000 HD
BRANCH  20  22
ATOM     22  C   UNL     1      47.693   3.529  15.509  0.00  0.00    +0.000 C 
BRANCH  22  23
ATOM     23  C   UNL     1      47.957   3.248  17.016  0.00  0.00    +0.000 C 
ATOM     24  F   UNL     1      46.855   2.613  17.525  0.00  0.00    +0.000 F 
ATOM     25  F   UNL     1      48.966   2.331  17.126  0.00  0.00    +0.000 F 
BRANCH  23  26
ATOM     26  C   UNL     1      48.276   4.515  17.775  0.00  0.00    +0.000 A 
ATOM     27  C   UNL     1      47.315   5.169  18.552  0.00  0.00    +0.000 A 
ATOM     28  C   UNL     1      47.662   6.340  19.232  0.00  0.00    +0.000 A 
ATOM     29  C   UNL     1      48.962   6.822  19.110  0.00  0.00    +0.000 A 
ATOM     30  N   UNL     1      49.920   6.210  18.359  0.00  0.00    +0.000 NA
ATOM     31  C   UNL     1      49.551   5.070  17.720  0.00  0.00    +0.000 A 
BRANCH  29  32
ATOM     32  C   UNL     1      49.344   8.082  19.819  0.00  0.00    +0.000 C 
ATOM     33  N   UNL     1      48.305   8.871  20.233  0.00  0.00    +0.000 N 
ATOM     34  O   UNL     1      50.510   8.400  20.020  0.00  0.00    +0.000 OA
ATOM     35  H   UNL     1      47.350   8.590  20.040  0.00  0.00    +0.000 HD
ATOM     36  H   UNL     1      48.498   9.744  20.698  0.00  0.00    +0.000 HD
ENDBRANCH  29  32
ENDBRANCH  23  26
ENDBRANCH  22  23
ENDBRANCH  20  22
ENDBRANCH   6  20
TORSDOF 8
ENDMDL
MODEL 9
REMARK VINA RESULT:    -6.647      3.871      8.200
REMARK INTER + INTRA:         -10.824
REMARK INTER:                  -9.351
REMARK INTRA:                  -1.473
REMARK UNBOUND:                -1.067
REMARK  Name = 
REMARK  12 active torsions:
REMARK  status: ('A' for Active; 'I' for Inactive)
REMARK    1  A    between atoms: C_1  and  C_2
REMARK    2  A    between atoms: C_2  and  C_3
REMARK    3  A    between atoms: C_5  and  N_6
REMARK    4  A    between atoms: C_9  and  C_10
REMARK    5  A    between atoms: C_10  and  C_11
REMARK    6  A    between atoms: C_10  and  C_12
REMARK    7  A    between atoms: C_10  and  C_13
REMARK    8  A    between atoms: C_16  and  N_17
REMARK    9  A    between atoms: N_17  and  C_18
REMARK   10  A    between atoms: C_18  and  C_19
REMARK   11  A    between atoms: C_19  and  C_22
REMARK   12  A    between atoms: C_25  and  C_26
REMARK                            x       y       z     vdW  Elec       q    Type
REMARK                         _______ _______ _______ _____ _____    ______ ____
ROOT
ATOM      1  N   UNL     1      46.311   7.064  11.712  0.00  0.00    +0.000 N 
ATOM      2  C   UNL     1      47.313   7.632  12.537  0.00  0.00    +0.000 A 
ATOM      3  C   UNL     1      48.535   7.931  11.932  0.00  0.00    +0.000 A 
ATOM      4  C   UNL     1      49.595   8.424  12.699  0.00  0.00    +0.000 A 
ATOM      5  C   UNL     1      49.341   8.588  14.070  0.00  0.00    +0.000 A 
ATOM      6  C   UNL     1      48.077   8.339  14.605  0.00  0.00    +0.000 A 
ATOM      7  N   UNL     1      47.074   7.857  13.847  0.00  0.00    +0.000 NA
ATOM      8  H   UNL     1      45.947   7.805  11.118  0.00  0.00    +0.000 HD
ENDROOT
BRANCH   1  13
ATOM      9  C   UNL     1      43.355   3.931  12.814  0.00  0.00    +0.000 C 
ATOM     10  C   UNL     1      44.477   4.257  11.828  0.00  0.00    +0.000 C 
ATOM     11  C   UNL     1      44.716   3.104  10.856  0.00  0.00    +0.000 C 
ATOM     12  C   UNL     1      45.769   4.786  12.510  0.00  0.00    +0.000 C 
ATOM     13  C   UNL     1      45.275   6.231  12.246  0.00  0.00    +0.000 C 
ATOM     14  C   UNL     1      44.358   5.652  11.141  0.00  0.00    +0.000 C 
ENDBRANCH   1  13
BRANCH   4  15
ATOM     15  C   UNL     1      50.975   8.735  12.098  0.00  0.00    +0.000 C 
ATOM     16  C   UNL     1      51.254   7.744  10.951  0.00  0.00    +0.000 C 
ATOM     17  C   UNL     1      51.074  10.176  11.548  0.00  0.00    +0.000 C 
BRANCH  15  18
ATOM     18  C   UNL     1      52.063   8.597  13.105  0.00  0.00    +0.000 C 
ATOM     19  N   UNL     1      52.903   8.481  13.896  0.00  0.00    +0.000 NA
ENDBRANCH  15  18
ENDBRANCH   4  15
BRANCH   6  20
ATOM     20  N   UNL     1      47.870   8.706  15.935  0.00  0.00    +0.000 N 
ATOM     21  H   UNL     1      47.219   9.477  16.050  0.00  0.00    +0.000 HD
BRANCH  20  22
ATOM     22  C   UNL     1      49.016   8.688  16.855  0.00  0.00    +0.000 C 
BRANCH  22  23
ATOM     23  C   UNL     1      48.763   7.799  18.106  0.00  0.00    +0.000 C 
ATOM     24  F   UNL     1      49.555   8.267  19.122  0.00  0.00    +0.000 F 
ATOM     25  F   UNL     1      47.484   8.002  18.544  0.00  0.00    +0.000 F 
BRANCH  23  26
ATOM     26  C   UNL     1      49.024   6.339  17.817  0.00  0.00    +0.000 A 
ATOM     27  C   UNL     1      48.042   5.363  18.012  0.00  0.00    +0.000 A 
ATOM     28  C   UNL     1      48.337   4.025  17.733  0.00  0.00    +0.000 A 
ATOM     29  C   UNL     1      49.610   3.706  17.268  0.00  0.00    +0.000 A 
ATOM     30  N   UNL     1      50.589   4.633  17.070  0.00  0.00    +0.000 NA
ATOM     31  C   UNL     1      50.266   5.923  17.344  0.00  0.00    +0.000 A 
BRANCH  29  32
ATOM     32  C   UNL     1      49.945   2.278  16.979  0.00  0.00    +0.000 C 
ATOM     33  N   UNL     1      50.838   1.691  17.834  0.00  0.00    +0.000 N 
ATOM     34  O   UNL     1      49.460   1.663  16.036  0.00  0.00    +0.000 OA
ATOM     35  H   UNL     1      51.235   2.228  18.597  0.00  0.00    +0.000 HD
ATOM     36  H   UNL     1      51.120   0.736  17.679  0.00  0.00    +0.000 HD
ENDBRANCH  29  32
ENDBRANCH  23  26
ENDBRANCH  22  23
ENDBRANCH  20  22
ENDBRANCH   6  20
TORSDOF 8
ENDMDL
