MODEL 1
REMARK VINA RESULT:    -8.295      0.000      0.000
REMARK INTER + INTRA:         -12.297
REMARK INTER:                 -11.204
REMARK INTRA:                  -1.093
REMARK UNBOUND:                -1.093
REMARK  Name = 
REMARK  6 active torsions:
REMARK  status: ('A' for Active; 'I' for Inactive)
REMARK    1  A    between atoms: C_2  and  C_20
REMARK    2  A    between atoms: N_3  and  C_4
REMARK    3  A    between atoms: C_4  and  C_5
REMARK    4  A    between atoms: C_8  and  C_9
REMARK    5  A    between atoms: C_9  and  N_10
REMARK    6  A    between atoms: C_11  and  C_13
REMARK                            x       y       z     vdW  Elec       q    Type
REMARK                         _______ _______ _______ _____ _____    ______ ____
ROOT
ATOM      1  C   UNL     1      47.516   8.262  13.718  0.00  0.00    +0.000 C 
ENDROOT
BRANCH   1   2
ATOM      2  C   UNL     1      46.537   7.485  12.873  0.00  0.00    +0.000 A 
ATOM      3  C   UNL     1      46.663   6.096  12.732  0.00  0.00    +0.000 A 
ATOM      4  C   UNL     1      45.728   5.364  11.990  0.00  0.00    +0.000 A 
ATOM      5  C   UNL     1      44.659   6.006  11.350  0.00  0.00    +0.000 A 
ATOM      6  C   UNL     1      44.542   7.397  11.479  0.00  0.00    +0.000 A 
ATOM      7  C   UNL     1      45.476   8.129  12.223  0.00  0.00    +0.000 A 
BRANCH   5   8
ATOM      8  C   UNL     1      43.665   5.222  10.530  0.00  0.00    +0.000 C 
BRANCH   8   9
ATOM      9  N   UNL     1      44.266   4.591   9.375  0.00  0.00    +0.000 N 
ATOM     10  C   UNL     1      44.463   3.225   9.354  0.00  0.00    +0.000 C 
ATOM     11  O   UNL     1      44.150   2.496  10.290  0.00  0.00    +0.000 OA
ATOM     12  H   UNL     1      44.659   5.173   8.648  0.00  0.00    +0.000 HD
BRANCH  10  13
ATOM     13  C   UNL     1      45.124   2.709   8.083  0.00  0.00    +0.000 C 
ATOM     14  C   UNL     1      45.971   1.464   8.333  0.00  0.00    +0.000 C 
ATOM     15  C   UNL     1      46.984   1.421   7.192  0.00  0.00    +0.000 C 
ATOM     16  C   UNL     1      46.986   2.812   6.564  0.00  0.00    +0.000 C 
ATOM     17  C   UNL     1      46.141   3.682   7.486  0.00  0.00    +0.000 C 
ENDBRANCH  10  13
ENDBRANCH   8   9
ENDBRANCH   5   8
ENDBRANCH   1   2
BRANCH   1  20
ATOM     18  O   UNL     1      49.993   7.156  14.207  0.00  0.00    +0.000 OA
ATOM     19  C   UNL     1      49.158   7.109  15.108  0.00  0.00    +0.000 C 
ATOM     20  N   UNL     1      47.875   7.575  14.934  0.00  0.00    +0.000 N 
ATOM     21  H   UNL     1      47.287   7.726  15.747  0.00  0.00    +0.000 HD
BRANCH  19  22
ATOM     22  C   UNL     1      49.480   6.512  16.409  0.00  0.00    +0.000 A 
ATOM     23  C   UNL     1      50.340   7.172  17.279  0.00  0.00    +0.000 A 
ATOM     24  S   UNL     1      50.610   6.333  18.740  0.00  0.00    +0.000 S 
ATOM     25  C   UNL     1      49.549   5.085  18.284  0.00  0.00    +0.000 A 
ATOM     26  N   UNL     1      49.291   4.043  19.119  0.00  0.00    +0.000 NA
ATOM     27  C   UNL     1      48.436   3.192  18.662  0.00  0.00    +0.000 A 
ATOM     28  N   UNL     1      47.821   3.282  17.439  0.00  0.00    +0.000 N 
ATOM     29  C   UNL     1      48.080   4.292  16.545  0.00  0.00    +0.000 A 
ATOM     30  O   UNL     1      47.562   4.312  15.434  0.00  0.00    +0.000 OA
ATOM     31  C   UNL     1      49.018   5.291  17.022  0.00  0.00    +0.000 A 
ATOM     32  H   UNL     1      47.172   2.572  17.133  0.00  0.00    +0.000 HD
ENDBRANCH  19  22
ENDBRANCH   1  20
TORSDOF 6
ENDMDL
MODEL 2
REMARK VINA RESULT:    -7.962      2.246      2.884
REMARK INTER + INTRA:         -11.848
REMARK INTER:                 -10.817
REMARK INTRA:                  -1.031
REMARK UNBOUND:                -1.093
REMARK  Name = 
REMARK  6 active torsions:
REMARK  status: ('A' for Active; 'I' for Inactive)
REMARK    1  A    between atoms: C_2  and  C_20
REMARK    2  A    between atoms: N_3  and  C_4
REMARK    3  A    between atoms: C_4  and  C_5
REMARK    4  A    between atoms: C_8  and  C_9
REMARK    5  A    between atoms: C_9  and  N_10
REMARK    6  A    between atoms: C_11  and  C_13
REMARK                            x       y       z     vdW  Elec       q    Type
REMARK                         _______ _______ _______ _____ _____    ______ ____
ROOT
ATOM      1  C   UNL     1      48.577   6.736  14.237  0.00  0.00    +0.000 C 
ENDROOT
BRANCH   1   2
ATOM      2  C   UNL     1      47.451   6.339  13.316  0.00  0.00    +0.000 A 
ATOM      3  C   UNL     1      47.289   6.968  12.074  0.00  0.00    +0.000 A 
ATOM      4  C   UNL     1      46.277   6.568  11.193  0.00  0.00    +0.000 A 
ATOM      5  C   UNL     1      45.384   5.546  11.545  0.00  0.00    +0.000 A 
ATOM      6  C   UNL     1      45.536   4.927  12.793  0.00  0.00    +0.000 A 
ATOM      7  C   UNL     1      46.550   5.325  13.673  0.00  0.00    +0.000 A 
BRANCH   5   8
ATOM      8  C   UNL     1      44.276   5.131  10.609  0.00  0.00    +0.000 C 
BRANCH   8   9
ATOM      9  N   UNL     1      44.771   4.531   9.388  0.00  0.00    +0.000 N 
ATOM     10  C   UNL     1      44.842   3.159   9.268  0.00  0.00    +0.000 C 
ATOM     11  O   UNL     1      44.502   2.396  10.167  0.00  0.00    +0.000 OA
ATOM     12  H   UNL     1      45.185   5.126   8.683  0.00  0.00    +0.000 HD
BRANCH  10  13
ATOM     13  C   UNL     1      45.402   2.677   7.936  0.00  0.00    +0.000 C 
ATOM     14  C   UNL     1      46.275   1.433   8.089  0.00  0.00    +0.000 C 
ATOM     15  C   UNL     1      47.193   1.425   6.869  0.00  0.00    +0.000 C 
ATOM     16  C   UNL     1      47.134   2.830   6.275  0.00  0.00    +0.000 C 
ATOM     17  C   UNL     1      46.360   3.671   7.281  0.00  0.00    +0.000 C 
ENDBRANCH  10  13
ENDBRANCH   8   9
ENDBRANCH   5   8
ENDBRANCH   1   2
BRANCH   1  20
ATOM     18  O   UNL     1      50.187   5.792  16.267  0.00  0.00    +0.000 OA
ATOM     19  C   UNL     1      49.098   6.272  16.576  0.00  0.00    +0.000 C 
ATOM     20  N   UNL     1      48.200   6.707  15.629  0.00  0.00    +0.000 N 
ATOM     21  H   UNL     1      47.422   7.293  15.913  0.00  0.00    +0.000 HD
BRANCH  19  22
ATOM     22  C   UNL     1      48.684   6.367  17.981  0.00  0.00    +0.000 A 
ATOM     23  C   UNL     1      48.835   5.271  18.822  0.00  0.00    +0.000 A 
ATOM     24  S   UNL     1      48.296   5.553  20.416  0.00  0.00    +0.000 S 
ATOM     25  C   UNL     1      47.889   7.164  20.052  0.00  0.00    +0.000 A 
ATOM     26  N   UNL     1      47.396   7.997  21.008  0.00  0.00    +0.000 NA
ATOM     27  C   UNL     1      47.171   9.200  20.603  0.00  0.00    +0.000 A 
ATOM     28  N   UNL     1      47.385   9.647  19.324  0.00  0.00    +0.000 N 
ATOM     29  C   UNL     1      47.842   8.834  18.315  0.00  0.00    +0.000 A 
ATOM     30  O   UNL     1      47.964   9.246  17.166  0.00  0.00    +0.000 OA
ATOM     31  C   UNL     1      48.135   7.474  18.725  0.00  0.00    +0.000 A 
ATOM     32  H   UNL     1      47.173  10.600  19.066  0.00  0.00    +0.000 HD
ENDBRANCH  19  22
ENDBRANCH   1  20
TORSDOF 6
ENDMDL
MODEL 3
REMARK VINA RESULT:    -7.923      2.106      3.691
REMARK INTER + INTRA:         -11.795
REMARK INTER:                 -10.749
REMARK INTRA:                  -1.047
REMARK UNBOUND:                -1.093
REMARK  Name = 
REMARK  6 active torsions:
REMARK  status: ('A' for Active; 'I' for Inactive)
REMARK    1  A    between atoms: C_2  and  C_20
REMARK    2  A    between atoms: N_3  and  C_4
REMARK    3  A    between atoms: C_4  and  C_5
REMARK    4  A    between atoms: C_8  and  C_9
REMARK    5  A    between atoms: C_9  and  N_10
REMARK    6  A    between atoms: C_11  and  C_13
REMARK                            x       y       z     vdW  Elec       q    Type
REMARK                         _______ _______ _______ _____ _____    ______ ____
ROOT
ATOM      1  C   UNL     1      47.148   4.751  15.014  0.00  0.00    +0.000 C 
ENDROOT
BRANCH   1   2
ATOM      2  C   UNL     1      46.303   4.696  13.766  0.00  0.00    +0.000 A 
ATOM      3  C   UNL     1      46.013   3.468  13.155  0.00  0.00    +0.000 A 
ATOM      4  C   UNL     1      45.186   3.406  12.027  0.00  0.00    +0.000 A 
ATOM      5  C   UNL     1      44.651   4.574  11.466  0.00  0.00    +0.000 A 
ATOM      6  C   UNL     1      44.953   5.803  12.069  0.00  0.00    +0.000 A 
ATOM      7  C   UNL     1      45.777   5.864  13.199  0.00  0.00    +0.000 A 
BRANCH   5   8
ATOM      8  C   UNL     1      43.780   4.513  10.235  0.00  0.00    +0.000 C 
BRANCH   8   9
ATOM      9  N   UNL     1      44.298   3.612   9.229  0.00  0.00    +0.000 N 
ATOM     10  C   UNL     1      45.327   4.011   8.402  0.00  0.00    +0.000 C 
ATOM     11  O   UNL     1      45.840   5.124   8.473  0.00  0.00    +0.000 OA
ATOM     12  H   UNL     1      43.811   2.743   9.052  0.00  0.00    +0.000 HD
BRANCH  10  13
ATOM     13  C   UNL     1      45.750   2.964   7.380  0.00  0.00    +0.000 C 
ATOM     14  C   UNL     1      46.330   1.714   8.035  0.00  0.00    +0.000 C 
ATOM     15  C   UNL     1      47.207   1.062   6.969  0.00  0.00    +0.000 C 
ATOM     16  C   UNL     1      47.451   2.125   5.901  0.00  0.00    +0.000 C 
ATOM     17  C   UNL     1      46.895   3.421   6.476  0.00  0.00    +0.000 C 
ENDBRANCH  10  13
ENDBRANCH   8   9
ENDBRANCH   5   8
ENDBRANCH   1   2
BRANCH   1  20
ATOM     18  O   UNL     1      49.359   5.110  16.621  0.00  0.00    +0.000 OA
ATOM     19  C   UNL     1      48.989   6.061  15.937  0.00  0.00    +0.000 C 
ATOM     20  N   UNL     1      47.858   5.998  15.156  0.00  0.00    +0.000 N 
ATOM     21  H   UNL     1      47.706   6.705  14.444  0.00  0.00    +0.000 HD
BRANCH  19  22
ATOM     22  C   UNL     1      49.718   7.335  15.953  0.00  0.00    +0.000 A 
ATOM     23  C   UNL     1      50.109   7.893  17.164  0.00  0.00    +0.000 A 
ATOM     24  S   UNL     1      50.938   9.376  16.999  0.00  0.00    +0.000 S 
ATOM     25  C   UNL     1      50.849   9.298  15.302  0.00  0.00    +0.000 A 
ATOM     26  N   UNL     1      51.413  10.261  14.525  0.00  0.00    +0.000 NA
ATOM     27  C   UNL     1      51.307  10.054  13.257  0.00  0.00    +0.000 A 
ATOM     28  N   UNL     1      50.678   8.974  12.691  0.00  0.00    +0.000 N 
ATOM     29  C   UNL     1      50.059   7.997  13.433  0.00  0.00    +0.000 A 
ATOM     30  O   UNL     1      49.451   7.076  12.899  0.00  0.00    +0.000 OA
ATOM     31  C   UNL     1      50.171   8.171  14.868  0.00  0.00    +0.000 A 
ATOM     32  H   UNL     1      50.615   8.878  11.688  0.00  0.00    +0.000 HD
ENDBRANCH  19  22
ENDBRANCH   1  20
TORSDOF 6
ENDMDL
MODEL 4
REMARK VINA RESULT:    -7.877      2.441      3.170
REMARK INTER + INTRA:         -11.733
REMARK INTER:                 -10.910
REMARK INTRA:                  -0.823
REMARK UNBOUND:                -1.093
REMARK  Name = 
REMARK  6 active torsions:
REMARK  status: ('A' for Active; 'I' for Inactive)
REMARK    1  A    between atoms: C_2  and  C_20
REMARK    2  A    between atoms: N_3  and  C_4
REMARK    3  A    between atoms: C_4  and  C_5
REMARK    4  A    between atoms: C_8  and  C_9
REMARK    5  A    between atoms: C_9  and  N_10
REMARK    6  A    between atoms: C_11  and  C_13
REMARK                            x       y       z     vdW  Elec       q    Type
REMARK                         _______ _______ _______ _____ _____    ______ ____
ROOT
ATOM      1  C   UNL     1      47.207   4.355  15.070  0.00  0.00    +0.000 C 
ENDROOT
BRANCH   1   2
ATOM      2  C   UNL     1      46.380   4.435  13.811  0.00  0.00    +0.000 A 
ATOM      3  C   UNL     1      46.033   3.272  13.110  0.00  0.00    +0.000 A 
ATOM      4  C   UNL     1      45.222   3.336  11.970  0.00  0.00    +0.000 A 
ATOM      5  C   UNL     1      44.760   4.569  11.489  0.00  0.00    +0.000 A 
ATOM      6  C   UNL     1      45.118   5.733  12.182  0.00  0.00    +0.000 A 
ATOM      7  C   UNL     1      45.927   5.669  13.323  0.00  0.00    +0.000 A 
BRANCH   5   8
ATOM      8  C   UNL     1      43.906   4.643  10.247  0.00  0.00    +0.000 C 
BRANCH   8   9
ATOM      9  N   UNL     1      44.358   3.748   9.204  0.00  0.00    +0.000 N 
ATOM     10  C   UNL     1      45.420   4.100   8.398  0.00  0.00    +0.000 C 
ATOM     11  O   UNL     1      46.018   5.165   8.517  0.00  0.00    +0.000 OA
ATOM     12  H   UNL     1      43.805   2.928   8.990  0.00  0.00    +0.000 HD
BRANCH  10  13
ATOM     13  C   UNL     1      45.765   3.067   7.333  0.00  0.00    +0.000 C 
ATOM     14  C   UNL     1      46.368   1.798   7.929  0.00  0.00    +0.000 C 
ATOM     15  C   UNL     1      47.170   1.156   6.799  0.00  0.00    +0.000 C 
ATOM     16  C   UNL     1      47.361   2.236   5.737  0.00  0.00    +0.000 C 
ATOM     17  C   UNL     1      46.858   3.528   6.368  0.00  0.00    +0.000 C 
ENDBRANCH  10  13
ENDBRANCH   8   9
ENDBRANCH   5   8
ENDBRANCH   1   2
BRANCH   1  20
ATOM     18  O   UNL     1      49.410   4.864  16.646  0.00  0.00    +0.000 OA
ATOM     19  C   UNL     1      48.701   5.817  16.330  0.00  0.00    +0.000 C 
ATOM     20  N   UNL     1      47.545   5.652  15.602  0.00  0.00    +0.000 N 
ATOM     21  H   UNL     1      47.109   6.461  15.173  0.00  0.00    +0.000 HD
BRANCH  19  22
ATOM     22  C   UNL     1      49.034   7.182  16.753  0.00  0.00    +0.000 A 
ATOM     23  C   UNL     1      49.863   7.968  15.962  0.00  0.00    +0.000 A 
ATOM     24  S   UNL     1      50.152   9.522  16.607  0.00  0.00    +0.000 S 
ATOM     25  C   UNL     1      49.137   9.217  17.938  0.00  0.00    +0.000 A 
ATOM     26  N   UNL     1      48.909  10.172  18.879  0.00  0.00    +0.000 NA
ATOM     27  C   UNL     1      48.088   9.820  19.809  0.00  0.00    +0.000 A 
ATOM     28  N   UNL     1      47.480   8.593  19.890  0.00  0.00    +0.000 N 
ATOM     29  C   UNL     1      47.710   7.583  18.987  0.00  0.00    +0.000 A 
ATOM     30  O   UNL     1      47.201   6.476  19.121  0.00  0.00    +0.000 OA
ATOM     31  C   UNL     1      48.609   7.938  17.906  0.00  0.00    +0.000 A 
ATOM     32  H   UNL     1      46.858   8.373  20.655  0.00  0.00    +0.000 HD
ENDBRANCH  19  22
ENDBRANCH   1  20
TORSDOF 6
ENDMDL
MODEL 5
REMARK VINA RESULT:    -7.701      2.223      3.552
REMARK INTER + INTRA:         -11.496
REMARK INTER:                 -10.464
REMARK INTRA:                  -1.032
REMARK UNBOUND:                -1.093
REMARK  Name = 
REMARK  6 active torsions:
REMARK  status: ('A' for Active; 'I' for Inactive)
REMARK    1  A    between atoms: C_2  and  C_20
REMARK    2  A    between atoms: N_3  and  C_4
REMARK    3  A    between atoms: C_4  and  C_5
REMARK    4  A    between atoms: C_8  and  C_9
REMARK    5  A    between atoms: C_9  and  N_10
REMARK    6  A    between atoms: C_11  and  C_13
REMARK                            x       y       z     vdW  Elec       q    Type
REMARK                         _______ _______ _______ _____ _____    ______ ____
ROOT
ATOM      1  C   UNL     1      47.613   4.328  15.193  0.00  0.00    +0.000 C 
ENDROOT
BRANCH   1   2
ATOM      2  C   UNL     1      46.678   4.428  14.015  0.00  0.00    +0.000 A 
ATOM      3  C   UNL     1      46.222   5.677  13.570  0.00  0.00    +0.000 A 
ATOM      4  C   UNL     1      45.395   5.780  12.445  0.00  0.00    +0.000 A 
ATOM      5  C   UNL     1      44.982   4.633  11.753  0.00  0.00    +0.000 A 
ATOM      6  C   UNL     1      45.426   3.384  12.206  0.00  0.00    +0.000 A 
ATOM      7  C   UNL     1      46.255   3.281  13.329  0.00  0.00    +0.000 A 
BRANCH   5   8
ATOM      8  C   UNL     1      44.070   4.740  10.555  0.00  0.00    +0.000 C 
BRANCH   8   9
ATOM      9  N   UNL     1      44.452   3.850   9.480  0.00  0.00    +0.000 N 
ATOM     10  C   UNL     1      45.460   4.207   8.608  0.00  0.00    +0.000 C 
ATOM     11  O   UNL     1      46.064   5.272   8.694  0.00  0.00    +0.000 OA
ATOM     12  H   UNL     1      43.887   3.032   9.298  0.00  0.00    +0.000 HD
BRANCH  10  13
ATOM     13  C   UNL     1      45.735   3.180   7.517  0.00  0.00    +0.000 C 
ATOM     14  C   UNL     1      46.328   1.888   8.072  0.00  0.00    +0.000 C 
ATOM     15  C   UNL     1      47.066   1.241   6.903  0.00  0.00    +0.000 C 
ATOM     16  C   UNL     1      47.243   2.330   5.848  0.00  0.00    +0.000 C 
ATOM     17  C   UNL     1      46.800   3.625   6.515  0.00  0.00    +0.000 C 
ENDBRANCH  10  13
ENDBRANCH   8   9
ENDBRANCH   5   8
ENDBRANCH   1   2
BRANCH   1  20
ATOM     18  O   UNL     1      49.245   4.726  17.379  0.00  0.00    +0.000 OA
ATOM     19  C   UNL     1      48.434   5.608  17.102  0.00  0.00    +0.000 C 
ATOM     20  N   UNL     1      47.534   5.469  16.071  0.00  0.00    +0.000 N 
ATOM     21  H   UNL     1      47.039   6.287  15.730  0.00  0.00    +0.000 HD
BRANCH  19  22
ATOM     22  C   UNL     1      48.359   6.843  17.891  0.00  0.00    +0.000 A 
ATOM     23  C   UNL     1      48.322   6.777  19.279  0.00  0.00    +0.000 A 
ATOM     24  S   UNL     1      48.228   8.303  20.035  0.00  0.00    +0.000 S 
ATOM     25  C   UNL     1      48.286   9.109  18.538  0.00  0.00    +0.000 A 
ATOM     26  N   UNL     1      48.282  10.467  18.471  0.00  0.00    +0.000 NA
ATOM     27  C   UNL     1      48.372  10.943  17.276  0.00  0.00    +0.000 A 
ATOM     28  N   UNL     1      48.456  10.184  16.137  0.00  0.00    +0.000 N 
ATOM     29  C   UNL     1      48.423   8.810  16.150  0.00  0.00    +0.000 A 
ATOM     30  O   UNL     1      48.437   8.159  15.111  0.00  0.00    +0.000 OA
ATOM     31  C   UNL     1      48.347   8.224  17.474  0.00  0.00    +0.000 A 
ATOM     32  H   UNL     1      48.509  10.619  15.227  0.00  0.00    +0.000 HD
ENDBRANCH  19  22
ENDBRANCH   1  20
TORSDOF 6
ENDMDL
MODEL 6
REMARK VINA RESULT:    -7.545      1.820      2.184
REMARK INTER + INTRA:         -11.285
REMARK INTER:                 -10.343
REMARK INTRA:                  -0.942
REMARK UNBOUND:                -1.093
REMARK  Name = 
REMARK  6 active torsions:
REMARK  status: ('A' for Active; 'I' for Inactive)
REMARK    1  A    between atoms: C_2  and  C_20
REMARK    2  A    between atoms: N_3  and  C_4
REMARK    3  A    between atoms: C_4  and  C_5
REMARK    4  A    between atoms: C_8  and  C_9
REMARK    5  A    between atoms: C_9  and  N_10
REMARK    6  A    between atoms: C_11  and  C_13
REMARK                            x       y       z     vdW  Elec       q    Type
REMARK                         _______ _______ _______ _____ _____    ______ ____
ROOT
ATOM      1  C   UNL     1      47.923   7.649  14.025  0.00  0.00    +0.000 C 
ENDROOT
BRANCH   1   2
ATOM      2  C   UNL     1      47.045   6.549  13.483  0.00  0.00    +0.000 A 
ATOM      3  C   UNL     1      45.896   6.855  12.739  0.00  0.00    +0.000 A 
ATOM      4  C   UNL     1      45.106   5.837  12.190  0.00  0.00    +0.000 A 
ATOM      5  C   UNL     1      45.431   4.489  12.393  0.00  0.00    +0.000 A 
ATOM      6  C   UNL     1      46.571   4.184  13.149  0.00  0.00    +0.000 A 
ATOM      7  C   UNL     1      47.362   5.201  13.697  0.00  0.00    +0.000 A 
BRANCH   5   8
ATOM      8  C   UNL     1      44.567   3.391  11.824  0.00  0.00    +0.000 C 
BRANCH   8   9
ATOM      9  N   UNL     1      45.065   2.885  10.563  0.00  0.00    +0.000 N 
ATOM     10  C   UNL     1      44.666   3.462   9.376  0.00  0.00    +0.000 C 
ATOM     11  O   UNL     1      43.885   4.408   9.329  0.00  0.00    +0.000 OA
ATOM     12  H   UNL     1      45.599   2.026  10.558  0.00  0.00    +0.000 HD
BRANCH  10  13
ATOM     13  C   UNL     1      45.256   2.808   8.133  0.00  0.00    +0.000 C 
ATOM     14  C   UNL     1      45.993   1.510   8.455  0.00  0.00    +0.000 C 
ATOM     15  C   UNL     1      46.977   1.304   7.306  0.00  0.00    +0.000 C 
ATOM     16  C   UNL     1      47.091   2.646   6.588  0.00  0.00    +0.000 C 
ATOM     17  C   UNL     1      46.344   3.645   7.461  0.00  0.00    +0.000 C 
ENDBRANCH  10  13
ENDBRANCH   8   9
ENDBRANCH   5   8
ENDBRANCH   1   2
BRANCH   1  20
ATOM     18  O   UNL     1      48.654   7.711  16.682  0.00  0.00    +0.000 OA
ATOM     19  C   UNL     1      49.429   7.182  15.888  0.00  0.00    +0.000 C 
ATOM     20  N   UNL     1      49.181   7.162  14.535  0.00  0.00    +0.000 N 
ATOM     21  H   UNL     1      49.714   6.535  13.941  0.00  0.00    +0.000 HD
BRANCH  19  22
ATOM     22  C   UNL     1      50.685   6.577  16.345  0.00  0.00    +0.000 A 
ATOM     23  C   UNL     1      51.885   7.255  16.166  0.00  0.00    +0.000 A 
ATOM     24  S   UNL     1      53.245   6.404  16.747  0.00  0.00    +0.000 S 
ATOM     25  C   UNL     1      52.274   5.124  17.305  0.00  0.00    +0.000 A 
ATOM     26  N   UNL     1      52.820   4.059  17.953  0.00  0.00    +0.000 NA
ATOM     27  C   UNL     1      51.964   3.184  18.357  0.00  0.00    +0.000 A 
ATOM     28  N   UNL     1      50.608   3.270  18.163  0.00  0.00    +0.000 N 
ATOM     29  C   UNL     1      50.015   4.304  17.480  0.00  0.00    +0.000 A 
ATOM     30  O   UNL     1      48.807   4.322  17.269  0.00  0.00    +0.000 OA
ATOM     31  C   UNL     1      50.933   5.329  17.026  0.00  0.00    +0.000 A 
ATOM     32  H   UNL     1      49.991   2.541  18.491  0.00  0.00    +0.000 HD
ENDBRANCH  19  22
ENDBRANCH   1  20
TORSDOF 6
ENDMDL
MODEL 7
REMARK VINA RESULT:    -7.380      4.477      9.429
REMARK INTER + INTRA:         -11.062
REMARK INTER:                 -10.156
REMARK INTRA:                  -0.906
REMARK UNBOUND:                -1.093
REMARK  Name = 
REMARK  6 active torsions:
REMARK  status: ('A' for Active; 'I' for Inactive)
REMARK    1  A    between atoms: C_2  and  C_20
REMARK    2  A    between atoms: N_3  and  C_4
REMARK    3  A    between atoms: C_4  and  C_5
REMARK    4  A    between atoms: C_8  and  C_9
REMARK    5  A    between atoms: C_9  and  N_10
REMARK    6  A    between atoms: C_11  and  C_13
REMARK                            x       y       z     vdW  Elec       q    Type
REMARK                         _______ _______ _______ _____ _____    ______ ____
ROOT
ATOM      1  C   UNL     1      47.185   3.380  16.738  0.00  0.00    +0.000 C 
ENDROOT
BRANCH   1   2
ATOM      2  C   UNL     1      48.656   3.401  17.071  0.00  0.00    +0.000 A 
ATOM      3  C   UNL     1      49.279   4.589  17.478  0.00  0.00    +0.000 A 
ATOM      4  C   UNL     1      50.632   4.602  17.837  0.00  0.00    +0.000 A 
ATOM      5  C   UNL     1      51.402   3.433  17.773  0.00  0.00    +0.000 A 
ATOM      6  C   UNL     1      50.783   2.248  17.353  0.00  0.00    +0.000 A 
ATOM      7  C   UNL     1      49.429   2.234  16.996  0.00  0.00    +0.000 A 
BRANCH   5   8
ATOM      8  C   UNL     1      52.866   3.451  18.136  0.00  0.00    +0.000 C 
BRANCH   8   9
ATOM      9  N   UNL     1      53.564   2.258  17.706  0.00  0.00    +0.000 N 
ATOM     10  C   UNL     1      54.235   1.477  18.624  0.00  0.00    +0.000 C 
ATOM     11  O   UNL     1      54.277   1.749  19.820  0.00  0.00    +0.000 OA
ATOM     12  H   UNL     1      53.664   2.079  16.716  0.00  0.00    +0.000 HD
BRANCH  10  13
ATOM     13  C   UNL     1      54.938   0.268  18.021  0.00  0.00    +0.000 C 
ATOM     14  C   UNL     1      54.695   0.145  16.519  0.00  0.00    +0.000 C 
ATOM     15  C   UNL     1      54.927  -1.327  16.187  0.00  0.00    +0.000 C 
ATOM     16  C   UNL     1      54.883  -2.082  17.513  0.00  0.00    +0.000 C 
ATOM     17  C   UNL     1      54.415  -1.068  18.548  0.00  0.00    +0.000 C 
ENDBRANCH  10  13
ENDBRANCH   8   9
ENDBRANCH   5   8
ENDBRANCH   1   2
BRANCH   1  20
ATOM     18  O   UNL     1      47.239   3.132  13.993  0.00  0.00    +0.000 OA
ATOM     19  C   UNL     1      46.807   4.182  14.465  0.00  0.00    +0.000 C 
ATOM     20  N   UNL     1      46.803   4.424  15.819  0.00  0.00    +0.000 N 
ATOM     21  H   UNL     1      46.247   5.188  16.186  0.00  0.00    +0.000 HD
BRANCH  19  22
ATOM     22  C   UNL     1      46.310   5.255  13.595  0.00  0.00    +0.000 A 
ATOM     23  C   UNL     1      47.118   6.350  13.315  0.00  0.00    +0.000 A 
ATOM     24  S   UNL     1      46.380   7.503  12.297  0.00  0.00    +0.000 S 
ATOM     25  C   UNL     1      44.975   6.555  12.151  0.00  0.00    +0.000 A 
ATOM     26  N   UNL     1      43.937   6.955  11.369  0.00  0.00    +0.000 NA
ATOM     27  C   UNL     1      42.955   6.121  11.317  0.00  0.00    +0.000 A 
ATOM     28  N   UNL     1      42.911   4.924  11.986  0.00  0.00    +0.000 N 
ATOM     29  C   UNL     1      43.916   4.496  12.820  0.00  0.00    +0.000 A 
ATOM     30  O   UNL     1      43.821   3.450  13.454  0.00  0.00    +0.000 OA
ATOM     31  C   UNL     1      45.057   5.389  12.893  0.00  0.00    +0.000 A 
ATOM     32  H   UNL     1      42.104   4.321  11.917  0.00  0.00    +0.000 HD
ENDBRANCH  19  22
ENDBRANCH   1  20
TORSDOF 6
ENDMDL
MODEL 8
REMARK VINA RESULT:    -7.242      2.400      3.579
REMARK INTER + INTRA:         -10.876
REMARK INTER:                 -10.140
REMARK INTRA:                  -0.736
REMARK UNBOUND:                -1.093
REMARK  Name = 
REMARK  6 active torsions:
REMARK  status: ('A' for Active; 'I' for Inactive)
REMARK    1  A    between atoms: C_2  and  C_20
REMARK    2  A    between atoms: N_3  and  C_4
REMARK    3  A    between atoms: C_4  and  C_5
REMARK    4  A    between atoms: C_8  and  C_9
REMARK    5  A    between atoms: C_9  and  N_10
REMARK    6  A    between atoms: C_11  and  C_13
REMARK                            x       y       z     vdW  Elec       q    Type
REMARK                         _______ _______ _______ _____ _____    ______ ____
ROOT
ATOM      1  C   UNL     1      47.435   4.928  14.927  0.00  0.00    +0.000 C 
ENDROOT
BRANCH   1   2
ATOM      2  C   UNL     1      46.528   4.835  13.725  0.00  0.00    +0.000 A 
ATOM      3  C   UNL     1      46.110   3.588  13.241  0.00  0.00    +0.000 A 
ATOM      4  C   UNL     1      45.227   3.499  12.157  0.00  0.00    +0.000 A 
ATOM      5  C   UNL     1      44.762   4.655  11.515  0.00  0.00    +0.000 A 
ATOM      6  C   UNL     1      45.192   5.901  11.990  0.00  0.00    +0.000 A 
ATOM      7  C   UNL     1      46.073   5.991  13.074  0.00  0.00    +0.000 A 
BRANCH   5   8
ATOM      8  C   UNL     1      43.831   4.560  10.331  0.00  0.00    +0.000 C 
BRANCH   8   9
ATOM      9  N   UNL     1      44.318   3.662   9.307  0.00  0.00    +0.000 N 
ATOM     10  C   UNL     1      45.343   4.052   8.470  0.00  0.00    +0.000 C 
ATOM     11  O   UNL     1      45.877   5.154   8.548  0.00  0.00    +0.000 OA
ATOM     12  H   UNL     1      43.812   2.804   9.127  0.00  0.00    +0.000 HD
BRANCH  10  13
ATOM     13  C   UNL     1      45.732   3.010   7.430  0.00  0.00    +0.000 C 
ATOM     14  C   UNL     1      46.322   1.752   8.061  0.00  0.00    +0.000 C 
ATOM     15  C   UNL     1      47.167   1.103   6.967  0.00  0.00    +0.000 C 
ATOM     16  C   UNL     1      47.388   2.172   5.901  0.00  0.00    +0.000 C 
ATOM     17  C   UNL     1      46.855   3.467   6.499  0.00  0.00    +0.000 C 
ENDBRANCH  10  13
ENDBRANCH   8   9
ENDBRANCH   5   8
ENDBRANCH   1   2
BRANCH   1  20
ATOM     18  O   UNL     1      48.801   5.712  17.188  0.00  0.00    +0.000 OA
ATOM     19  C   UNL     1      48.644   6.544  16.298  0.00  0.00    +0.000 C 
ATOM     20  N   UNL     1      47.919   6.266  15.162  0.00  0.00    +0.000 N 
ATOM     21  H   UNL     1      47.994   6.883  14.360  0.00  0.00    +0.000 HD
BRANCH  19  22
ATOM     22  C   UNL     1      49.192   7.900  16.423  0.00  0.00    +0.000 A 
ATOM     23  C   UNL     1      48.334   8.983  16.565  0.00  0.00    +0.000 A 
ATOM     24  S   UNL     1      49.138  10.483  16.688  0.00  0.00    +0.000 S 
ATOM     25  C   UNL     1      50.663   9.733  16.608  0.00  0.00    +0.000 A 
ATOM     26  N   UNL     1      51.809  10.461  16.698  0.00  0.00    +0.000 NA
ATOM     27  C   UNL     1      52.890   9.760  16.664  0.00  0.00    +0.000 A 
ATOM     28  N   UNL     1      52.932   8.394  16.539  0.00  0.00    +0.000 N 
ATOM     29  C   UNL     1      51.805   7.621  16.403  0.00  0.00    +0.000 A 
ATOM     30  O   UNL     1      51.877   6.409  16.230  0.00  0.00    +0.000 OA
ATOM     31  C   UNL     1      50.559   8.360  16.460  0.00  0.00    +0.000 A 
ATOM     32  H   UNL     1      53.815   7.905  16.502  0.00  0.00    +0.000 HD
ENDBRANCH  19  22
ENDBRANCH   1  20
TORSDOF 6
ENDMDL
MODEL 9
REMARK VINA RESULT:    -6.937      1.898      2.155
REMARK INTER + INTRA:         -10.464
REMARK INTER:                  -9.665
REMARK INTRA:                  -0.799
REMARK UNBOUND:                -1.093
REMARK  Name = 
REMARK  6 active torsions:
REMARK  status: ('A' for Active; 'I' for Inactive)
REMARK    1  A    between atoms: C_2  and  C_20
REMARK    2  A    between atoms: N_3  and  C_4
REMARK    3  A    between atoms: C_4  and  C_5
REMARK    4  A    between atoms: C_8  and  C_9
REMARK    5  A    between atoms: C_9  and  N_10
REMARK    6  A    between atoms: C_11  and  C_13
REMARK                            x       y       z     vdW  Elec       q    Type
REMARK                         _______ _______ _______ _____ _____    ______ ____
ROOT
ATOM      1  C   UNL     1      47.576   8.698  13.534  0.00  0.00    +0.000 C 
ENDROOT
BRANCH   1   2
ATOM      2  C   UNL     1      46.591   7.839  12.780  0.00  0.00    +0.000 A 
ATOM      3  C   UNL     1      45.382   8.377  12.320  0.00  0.00    +0.000 A 
ATOM      4  C   UNL     1      44.488   7.598  11.575  0.00  0.00    +0.000 A 
ATOM      5  C   UNL     1      44.771   6.254  11.295  0.00  0.00    +0.000 A 
ATOM      6  C   UNL     1      45.973   5.713  11.767  0.00  0.00    +0.000 A 
ATOM      7  C   UNL     1      46.868   6.492  12.510  0.00  0.00    +0.000 A 
BRANCH   5   8
ATOM      8  C   UNL     1      43.797   5.406  10.514  0.00  0.00    +0.000 C 
BRANCH   8   9
ATOM      9  N   UNL     1      44.411   4.752   9.378  0.00  0.00    +0.000 N 
ATOM     10  C   UNL     1      44.509   3.376   9.339  0.00  0.00    +0.000 C 
ATOM     11  O   UNL     1      44.095   2.657  10.243  0.00  0.00    +0.000 OA
ATOM     12  H   UNL     1      44.882   5.316   8.684  0.00  0.00    +0.000 HD
BRANCH  10  13
ATOM     13  C   UNL     1      45.197   2.834   8.093  0.00  0.00    +0.000 C 
ATOM     14  C   UNL     1      46.020   1.582   8.382  0.00  0.00    +0.000 C 
ATOM     15  C   UNL     1      47.062   1.510   7.269  0.00  0.00    +0.000 C 
ATOM     16  C   UNL     1      47.099   2.893   6.623  0.00  0.00    +0.000 C 
ATOM     17  C   UNL     1      46.241   3.785   7.510  0.00  0.00    +0.000 C 
ENDBRANCH  10  13
ENDBRANCH   8   9
ENDBRANCH   5   8
ENDBRANCH   1   2
BRANCH   1  20
ATOM     18  O   UNL     1      48.785   9.665  15.815  0.00  0.00    +0.000 OA
ATOM     19  C   UNL     1      48.968   8.484  15.527  0.00  0.00    +0.000 C 
ATOM     20  N   UNL     1      48.461   7.930  14.375  0.00  0.00    +0.000 N 
ATOM     21  H   UNL     1      48.438   6.920  14.277  0.00  0.00    +0.000 HD
BRANCH  19  22
ATOM     22  C   UNL     1      49.778   7.612  16.387  0.00  0.00    +0.000 A 
ATOM     23  C   UNL     1      50.945   7.044  15.891  0.00  0.00    +0.000 A 
ATOM     24  S   UNL     1      51.757   6.054  17.020  0.00  0.00    +0.000 S 
ATOM     25  C   UNL     1      50.605   6.391  18.225  0.00  0.00    +0.000 A 
ATOM     26  N   UNL     1      50.729   5.875  19.478  0.00  0.00    +0.000 NA
ATOM     27  C   UNL     1      49.809   6.246  20.301  0.00  0.00    +0.000 A 
ATOM     28  N   UNL     1      48.766   7.079  19.984  0.00  0.00    +0.000 N 
ATOM     29  C   UNL     1      48.576   7.592  18.723  0.00  0.00    +0.000 A 
ATOM     30  O   UNL     1      47.599   8.283  18.454  0.00  0.00    +0.000 OA
ATOM     31  C   UNL     1      49.600   7.224  17.764  0.00  0.00    +0.000 A 
ATOM     32  H   UNL     1      48.067   7.319  20.672  0.00  0.00    +0.000 HD
ENDBRANCH  19  22
ENDBRANCH   1  20
TORSDOF 6
ENDMDL
