MODEL 1
REMARK VINA RESULT:    -7.371      0.000      0.000
REMARK INTER + INTRA:         -13.427
REMARK INTER:                 -11.895
REMARK INTRA:                  -1.532
REMARK UNBOUND:                -1.532
REMARK  Name = 
REMARK  12 active torsions:
REMARK  status: ('A' for Active; 'I' for Inactive)
REMARK    1  A    between atoms: N_1  and  C_2
REMARK    2  A    between atoms: N_5  and  C_6
REMARK    3  A    between atoms: C_6  and  C_7
REMARK    4  A    between atoms: C_7  and  O_8
REMARK    5  A    between atoms: C_9  and  C_10
REMARK    6  A    between atoms: N_12  and  C_13
REMARK    7  A    between atoms: C_13  and  C_14
REMARK    8  A    between atoms: C_17  and  C_18
REMARK    9  A    between atoms: C_18  and  N_19
REMARK   10  A    between atoms: C_18  and  C_20
REMARK   11  A    between atoms: C_20  and  N_21
REMARK   12  A    between atoms: C_22  and  C_24
REMARK                            x       y       z     vdW  Elec       q    Type
REMARK                         _______ _______ _______ _____ _____    ______ ____
ROOT
ATOM      1  C   UNL     1      52.096   2.142  17.865  0.00  0.00    +0.000 A 
ATOM      2  C   UNL     1      51.114   1.311  17.315  0.00  0.00    +0.000 A 
ATOM      3  C   UNL     1      49.856   1.822  16.983  0.00  0.00    +0.000 A 
ATOM      4  C   UNL     1      49.549   3.179  17.186  0.00  0.00    +0.000 A 
ATOM      5  C   UNL     1      50.535   3.999  17.758  0.00  0.00    +0.000 A 
ATOM      6  C   UNL     1      51.798   3.492  18.073  0.00  0.00    +0.000 A 
ENDROOT
BRANCH   1   7
ATOM      7  C   UNL     1      53.459   1.606  18.207  0.00  0.00    +0.000 C 
BRANCH   7  10
ATOM      8  C   UNL     1      54.259  -0.568  19.066  0.00  0.00    +0.000 C 
ATOM      9  O   UNL     1      55.013  -0.039  19.876  0.00  0.00    +0.000 OA
ATOM     10  N   UNL     1      53.476   0.164  18.208  0.00  0.00    +0.000 N 
ATOM     11  H   UNL     1      53.065  -0.325  17.421  0.00  0.00    +0.000 HD
BRANCH   8  16
ATOM     12  C   UNL     1      53.361  -2.915  19.659  0.00  0.00    +0.000 A 
ATOM     13  N   UNL     1      53.541  -4.192  19.243  0.00  0.00    +0.000 NA
ATOM     14  C   UNL     1      54.415  -4.105  18.271  0.00  0.00    +0.000 A 
ATOM     15  N   UNL     1      54.782  -2.807  18.041  0.00  0.00    +0.000 N 
ATOM     16  C   UNL     1      54.117  -2.002  18.950  0.00  0.00    +0.000 A 
BRANCH  12  17
ATOM     17  N   UNL     1      52.539  -2.701  20.697  0.00  0.00    +0.000 N 
ATOM     18  H   UNL     1      51.599  -3.056  20.525  0.00  0.00    +0.000 HD
ATOM     19  H   UNL     1      52.852  -3.011  21.611  0.00  0.00    +0.000 HD
ENDBRANCH  12  17
BRANCH  15  20
ATOM     20  C   UNL     1      55.688  -2.399  16.980  0.00  0.00    +0.000 C 
BRANCH  20  21
ATOM     21  C   UNL     1      55.014  -2.339  15.615  0.00  0.00    +0.000 C 
BRANCH  21  22
ATOM     22  O   UNL     1      54.122  -1.228  15.539  0.00  0.00    +0.000 OA
ATOM     23  H   UNL     1      54.528  -0.493  16.035  0.00  0.00    +0.000 HD
ENDBRANCH  21  22
ENDBRANCH  20  21
ENDBRANCH  15  20
ENDBRANCH   8  16
ENDBRANCH   7  10
ENDBRANCH   1   7
BRANCH   4  24
ATOM     24  C   UNL     1      48.157   3.689  16.825  0.00  0.00    +0.000 C 
BRANCH  24  25
ATOM     25  N   UNL     1      47.271   3.561  17.992  0.00  0.00    +0.000 NA
ATOM     26  H   UNL     1      46.344   3.896  17.740  0.00  0.00    +0.000 HD
ATOM     27  H   UNL     1      47.606   4.188  18.721  0.00  0.00    +0.000 HD
ENDBRANCH  24  25
BRANCH  24  28
ATOM     28  C   UNL     1      48.110   5.143  16.288  0.00  0.00    +0.000 C 
BRANCH  28  29
ATOM     29  N   UNL     1      47.154   5.324  15.214  0.00  0.00    +0.000 N 
ATOM     30  C   UNL     1      47.481   5.866  14.000  0.00  0.00    +0.000 C 
ATOM     31  O   UNL     1      48.627   6.216  13.733  0.00  0.00    +0.000 OA
ATOM     32  H   UNL     1      46.176   5.213  15.464  0.00  0.00    +0.000 HD
BRANCH  30  33
ATOM     33  C   UNL     1      46.393   5.981  13.012  0.00  0.00    +0.000 A 
ATOM     34  C   UNL     1      45.993   7.239  12.586  0.00  0.00    +0.000 A 
ATOM     35  S   UNL     1      44.800   7.206  11.366  0.00  0.00    +0.000 S 
ATOM     36  C   UNL     1      44.782   5.506  11.356  0.00  0.00    +0.000 A 
ATOM     37  N   UNL     1      44.002   4.823  10.475  0.00  0.00    +0.000 NA
ATOM     38  C   UNL     1      44.071   3.539  10.584  0.00  0.00    +0.000 A 
ATOM     39  N   UNL     1      44.831   2.876  11.509  0.00  0.00    +0.000 N 
ATOM     40  C   UNL     1      45.624   3.522  12.425  0.00  0.00    +0.000 A 
ATOM     41  O   UNL     1      46.263   2.888  13.258  0.00  0.00    +0.000 OA
ATOM     42  C   UNL     1      45.627   4.970  12.313  0.00  0.00    +0.000 A 
ATOM     43  H   UNL     1      44.819   1.869  11.571  0.00  0.00    +0.000 HD
ENDBRANCH  30  33
ENDBRANCH  28  29
ENDBRANCH  24  28
ENDBRANCH   4  24
TORSDOF 12
ENDMDL
MODEL 2
REMARK VINA RESULT:    -6.926      3.696     10.581
REMARK INTER + INTRA:         -12.708
REMARK INTER:                 -12.563
REMARK INTRA:                  -0.146
REMARK UNBOUND:                -1.532
REMARK  Name = 
REMARK  12 active torsions:
REMARK  status: ('A' for Active; 'I' for Inactive)
REMARK    1  A    between atoms: N_1  and  C_2
REMARK    2  A    between atoms: N_5  and  C_6
REMARK    3  A    between atoms: C_6  and  C_7
REMARK    4  A    between atoms: C_7  and  O_8
REMARK    5  A    between atoms: C_9  and  C_10
REMARK    6  A    between atoms: N_12  and  C_13
REMARK    7  A    between atoms: C_13  and  C_14
REMARK    8  A    between atoms: C_17  and  C_18
REMARK    9  A    between atoms: C_18  and  N_19
REMARK   10  A    between atoms: C_18  and  C_20
REMARK   11  A    between atoms: C_20  and  N_21
REMARK   12  A    between atoms: C_22  and  C_24
REMARK                            x       y       z     vdW  Elec       q    Type
REMARK                         _______ _______ _______ _____ _____    ______ ____
ROOT
ATOM      1  C   UNL     1      45.896   6.856  12.040  0.00  0.00    +0.000 A 
ATOM      2  C   UNL     1      46.368   5.806  12.836  0.00  0.00    +0.000 A 
ATOM      3  C   UNL     1      47.453   6.001  13.696  0.00  0.00    +0.000 A 
ATOM      4  C   UNL     1      48.089   7.251  13.789  0.00  0.00    +0.000 A 
ATOM      5  C   UNL     1      47.619   8.292  12.971  0.00  0.00    +0.000 A 
ATOM      6  C   UNL     1      46.524   8.102  12.125  0.00  0.00    +0.000 A 
ENDROOT
BRANCH   1   7
ATOM      7  C   UNL     1      44.717   6.663  11.126  0.00  0.00    +0.000 C 
BRANCH   7  10
ATOM      8  C   UNL     1      45.450   4.951   9.503  0.00  0.00    +0.000 C 
ATOM      9  O   UNL     1      46.199   5.732   8.925  0.00  0.00    +0.000 OA
ATOM     10  N   UNL     1      44.685   5.329  10.578  0.00  0.00    +0.000 N 
ATOM     11  H   UNL     1      43.929   4.712  10.851  0.00  0.00    +0.000 HD
BRANCH   8  16
ATOM     12  C   UNL     1      44.645   2.505   9.695  0.00  0.00    +0.000 A 
ATOM     13  N   UNL     1      44.799   1.342   9.016  0.00  0.00    +0.000 NA
ATOM     14  C   UNL     1      45.573   1.649   8.004  0.00  0.00    +0.000 A 
ATOM     15  N   UNL     1      45.899   2.978   8.005  0.00  0.00    +0.000 N 
ATOM     16  C   UNL     1      45.316   3.565   9.116  0.00  0.00    +0.000 A 
BRANCH  12  17
ATOM     17  N   UNL     1      43.926   2.482  10.826  0.00  0.00    +0.000 N 
ATOM     18  H   UNL     1      43.834   3.407  11.245  0.00  0.00    +0.000 HD
ATOM     19  H   UNL     1      43.013   2.041  10.790  0.00  0.00    +0.000 HD
ENDBRANCH  12  17
BRANCH  15  20
ATOM     20  C   UNL     1      46.691   3.617   6.968  0.00  0.00    +0.000 C 
BRANCH  20  21
ATOM     21  C   UNL     1      47.402   2.617   6.064  0.00  0.00    +0.000 C 
BRANCH  21  22
ATOM     22  O   UNL     1      48.764   2.455   6.459  0.00  0.00    +0.000 OA
ATOM     23  H   UNL     1      49.259   3.224   6.121  0.00  0.00    +0.000 HD
ENDBRANCH  21  22
ENDBRANCH  20  21
ENDBRANCH  15  20
ENDBRANCH   8  16
ENDBRANCH   7  10
ENDBRANCH   1   7
BRANCH   4  24
ATOM     24  C   UNL     1      49.280   7.412  14.730  0.00  0.00    +0.000 C 
BRANCH  24  25
ATOM     25  N   UNL     1      49.716   8.817  14.728  0.00  0.00    +0.000 NA
ATOM     26  H   UNL     1      50.555   8.900  14.157  0.00  0.00    +0.000 HD
ATOM     27  H   UNL     1      49.998   9.068  15.674  0.00  0.00    +0.000 HD
ENDBRANCH  24  25
BRANCH  24  28
ATOM     28  C   UNL     1      49.034   6.941  16.187  0.00  0.00    +0.000 C 
BRANCH  28  29
ATOM     29  N   UNL     1      50.131   6.163  16.727  0.00  0.00    +0.000 N 
ATOM     30  C   UNL     1      49.957   4.975  17.386  0.00  0.00    +0.000 C 
ATOM     31  O   UNL     1      48.846   4.476  17.542  0.00  0.00    +0.000 OA
ATOM     32  H   UNL     1      51.030   6.632  16.771  0.00  0.00    +0.000 HD
BRANCH  30  33
ATOM     33  C   UNL     1      51.175   4.305  17.874  0.00  0.00    +0.000 A 
ATOM     34  C   UNL     1      52.088   5.024  18.632  0.00  0.00    +0.000 A 
ATOM     35  S   UNL     1      53.391   4.088  19.213  0.00  0.00    +0.000 S 
ATOM     36  C   UNL     1      52.777   2.683  18.479  0.00  0.00    +0.000 A 
ATOM     37  N   UNL     1      53.399   1.483  18.641  0.00  0.00    +0.000 NA
ATOM     38  C   UNL     1      52.837   0.502  18.018  0.00  0.00    +0.000 A 
ATOM     39  N   UNL     1      51.725   0.615  17.229  0.00  0.00    +0.000 N 
ATOM     40  C   UNL     1      51.071   1.805  17.027  0.00  0.00    +0.000 A 
ATOM     41  O   UNL     1      50.097   1.866  16.284  0.00  0.00    +0.000 OA
ATOM     42  C   UNL     1      51.628   2.935  17.748  0.00  0.00    +0.000 A 
ATOM     43  H   UNL     1      51.350  -0.183  16.737  0.00  0.00    +0.000 HD
ENDBRANCH  30  33
ENDBRANCH  28  29
ENDBRANCH  24  28
ENDBRANCH   4  24
TORSDOF 12
ENDMDL
MODEL 3
REMARK VINA RESULT:    -6.876      6.057      8.350
REMARK INTER + INTRA:         -12.629
REMARK INTER:                 -11.192
REMARK INTRA:                  -1.437
REMARK UNBOUND:                -1.532
REMARK  Name = 
REMARK  12 active torsions:
REMARK  status: ('A' for Active; 'I' for Inactive)
REMARK    1  A    between atoms: N_1  and  C_2
REMARK    2  A    between atoms: N_5  and  C_6
REMARK    3  A    between atoms: C_6  and  C_7
REMARK    4  A    between atoms: C_7  and  O_8
REMARK    5  A    between atoms: C_9  and  C_10
REMARK    6  A    between atoms: N_12  and  C_13
REMARK    7  A    between atoms: C_13  and  C_14
REMARK    8  A    between atoms: C_17  and  C_18
REMARK    9  A    between atoms: C_18  and  N_19
REMARK   10  A    between atoms: C_18  and  C_20
REMARK   11  A    between atoms: C_20  and  N_21
REMARK   12  A    between atoms: C_22  and  C_24
REMARK                            x       y       z     vdW  Elec       q    Type
REMARK                         _______ _______ _______ _____ _____    ______ ____
ROOT
ATOM      1  C   UNL     1      47.374   6.618  12.529  0.00  0.00    +0.000 A 
ATOM      2  C   UNL     1      47.262   5.486  13.344  0.00  0.00    +0.000 A 
ATOM      3  C   UNL     1      46.055   4.786  13.424  0.00  0.00    +0.000 A 
ATOM      4  C   UNL     1      44.930   5.194  12.686  0.00  0.00    +0.000 A 
ATOM      5  C   UNL     1      45.048   6.344  11.887  0.00  0.00    +0.000 A 
ATOM      6  C   UNL     1      46.259   7.032  11.794  0.00  0.00    +0.000 A 
ENDROOT
BRANCH   1   7
ATOM      7  C   UNL     1      48.674   7.367  12.421  0.00  0.00    +0.000 C 
BRANCH   7  10
ATOM      8  C   UNL     1      49.856   7.787  14.550  0.00  0.00    +0.000 C 
ATOM      9  O   UNL     1      49.338   8.891  14.690  0.00  0.00    +0.000 OA
ATOM     10  N   UNL     1      49.593   6.986  13.467  0.00  0.00    +0.000 N 
ATOM     11  H   UNL     1      50.221   6.209  13.298  0.00  0.00    +0.000 HD
BRANCH   8  16
ATOM     12  C   UNL     1      52.154   7.179  15.559  0.00  0.00    +0.000 A 
ATOM     13  N   UNL     1      52.630   6.522  16.644  0.00  0.00    +0.000 NA
ATOM     14  C   UNL     1      51.561   6.139  17.297  0.00  0.00    +0.000 A 
ATOM     15  N   UNL     1      50.416   6.552  16.671  0.00  0.00    +0.000 N 
ATOM     16  C   UNL     1      50.774   7.225  15.515  0.00  0.00    +0.000 A 
BRANCH  12  17
ATOM     17  N   UNL     1      53.039   7.650  14.669  0.00  0.00    +0.000 N 
ATOM     18  H   UNL     1      53.586   6.905  14.236  0.00  0.00    +0.000 HD
ATOM     19  H   UNL     1      52.690   8.270  13.946  0.00  0.00    +0.000 HD
ENDBRANCH  12  17
BRANCH  15  20
ATOM     20  C   UNL     1      49.081   6.328  17.199  0.00  0.00    +0.000 C 
BRANCH  20  21
ATOM     21  C   UNL     1      48.564   4.920  16.930  0.00  0.00    +0.000 C 
BRANCH  21  22
ATOM     22  O   UNL     1      47.138   4.899  16.908  0.00  0.00    +0.000 OA
ATOM     23  H   UNL     1      46.862   3.988  16.698  0.00  0.00    +0.000 HD
ENDBRANCH  21  22
ENDBRANCH  20  21
ENDBRANCH  15  20
ENDBRANCH   8  16
ENDBRANCH   7  10
ENDBRANCH   1   7
BRANCH   4  24
ATOM     24  C   UNL     1      43.628   4.409  12.817  0.00  0.00    +0.000 C 
BRANCH  24  25
ATOM     25  N   UNL     1      42.649   5.208  13.569  0.00  0.00    +0.000 NA
ATOM     26  H   UNL     1      42.194   5.857  12.930  0.00  0.00    +0.000 HD
ATOM     27  H   UNL     1      43.153   5.786  14.240  0.00  0.00    +0.000 HD
ENDBRANCH  24  25
BRANCH  24  28
ATOM     28  C   UNL     1      43.005   3.943  11.475  0.00  0.00    +0.000 C 
BRANCH  28  29
ATOM     29  N   UNL     1      43.896   3.109  10.693  0.00  0.00    +0.000 N 
ATOM     30  C   UNL     1      44.257   3.398   9.404  0.00  0.00    +0.000 C 
ATOM     31  O   UNL     1      43.861   4.409   8.830  0.00  0.00    +0.000 OA
ATOM     32  H   UNL     1      44.092   2.188  11.072  0.00  0.00    +0.000 HD
BRANCH  30  33
ATOM     33  C   UNL     1      45.172   2.449   8.745  0.00  0.00    +0.000 A 
ATOM     34  C   UNL     1      44.973   1.087   8.910  0.00  0.00    +0.000 A 
ATOM     35  S   UNL     1      46.045   0.118   8.003  0.00  0.00    +0.000 S 
ATOM     36  C   UNL     1      46.811   1.487   7.348  0.00  0.00    +0.000 A 
ATOM     37  N   UNL     1      47.803   1.356   6.426  0.00  0.00    +0.000 NA
ATOM     38  C   UNL     1      48.309   2.473   6.023  0.00  0.00    +0.000 A 
ATOM     39  N   UNL     1      47.929   3.708   6.474  0.00  0.00    +0.000 N 
ATOM     40  C   UNL     1      46.941   3.888   7.410  0.00  0.00    +0.000 A 
ATOM     41  O   UNL     1      46.657   5.012   7.810  0.00  0.00    +0.000 OA
ATOM     42  C   UNL     1      46.299   2.667   7.861  0.00  0.00    +0.000 A 
ATOM     43  H   UNL     1      48.385   4.546   6.147  0.00  0.00    +0.000 HD
ENDBRANCH  30  33
ENDBRANCH  28  29
ENDBRANCH  24  28
ENDBRANCH   4  24
TORSDOF 12
ENDMDL
MODEL 4
REMARK VINA RESULT:    -6.675      4.914      9.891
REMARK INTER + INTRA:         -12.305
REMARK INTER:                  -9.990
REMARK INTRA:                  -2.314
REMARK UNBOUND:                -1.532
REMARK  Name = 
REMARK  12 active torsions:
REMARK  status: ('A' for Active; 'I' for Inactive)
REMARK    1  A    between atoms: N_1  and  C_2
REMARK    2  A    between atoms: N_5  and  C_6
REMARK    3  A    between atoms: C_6  and  C_7
REMARK    4  A    between atoms: C_7  and  O_8
REMARK    5  A    between atoms: C_9  and  C_10
REMARK    6  A    between atoms: N_12  and  C_13
REMARK    7  A    between atoms: C_13  and  C_14
REMARK    8  A    between atoms: C_17  and  C_18
REMARK    9  A    between atoms: C_18  and  N_19
REMARK   10  A    between atoms: C_18  and  C_20
REMARK   11  A    between atoms: C_20  and  N_21
REMARK   12  A    between atoms: C_22  and  C_24
REMARK                            x       y       z     vdW  Elec       q    Type
REMARK                         _______ _______ _______ _____ _____    ______ ____
ROOT
ATOM      1  C   UNL     1      48.751   7.966  12.342  0.00  0.00    +0.000 A 
ATOM      2  C   UNL     1      50.128   8.075  12.116  0.00  0.00    +0.000 A 
ATOM      3  C   UNL     1      50.985   8.481  13.144  0.00  0.00    +0.000 A 
ATOM      4  C   UNL     1      50.489   8.780  14.424  0.00  0.00    +0.000 A 
ATOM      5  C   UNL     1      49.104   8.687  14.634  0.00  0.00    +0.000 A 
ATOM      6  C   UNL     1      48.250   8.265  13.612  0.00  0.00    +0.000 A 
ENDROOT
BRANCH   1   7
ATOM      7  C   UNL     1      47.823   7.512  11.249  0.00  0.00    +0.000 C 
BRANCH   7  10
ATOM      8  C   UNL     1      45.817   6.084  11.035  0.00  0.00    +0.000 C 
ATOM      9  O   UNL     1      46.034   5.853   9.850  0.00  0.00    +0.000 OA
ATOM     10  N   UNL     1      46.636   6.891  11.785  0.00  0.00    +0.000 N 
ATOM     11  H   UNL     1      46.276   7.224  12.672  0.00  0.00    +0.000 HD
BRANCH   8  16
ATOM     12  C   UNL     1      43.370   5.898  11.836  0.00  0.00    +0.000 A 
ATOM     13  N   UNL     1      42.639   5.100  12.652  0.00  0.00    +0.000 NA
ATOM     14  C   UNL     1      43.492   4.211  13.098  0.00  0.00    +0.000 A 
ATOM     15  N   UNL     1      44.741   4.406  12.572  0.00  0.00    +0.000 N 
ATOM     16  C   UNL     1      44.696   5.519  11.750  0.00  0.00    +0.000 A 
BRANCH  12  17
ATOM     17  N   UNL     1      42.756   6.945  11.265  0.00  0.00    +0.000 N 
ATOM     18  H   UNL     1      42.405   7.610  11.954  0.00  0.00    +0.000 HD
ATOM     19  H   UNL     1      43.264   7.448  10.545  0.00  0.00    +0.000 HD
ENDBRANCH  12  17
BRANCH  15  20
ATOM     20  C   UNL     1      45.873   3.535  12.836  0.00  0.00    +0.000 C 
BRANCH  20  21
ATOM     21  C   UNL     1      46.792   4.070  13.928  0.00  0.00    +0.000 C 
BRANCH  21  22
ATOM     22  O   UNL     1      47.530   3.010  14.534  0.00  0.00    +0.000 OA
ATOM     23  H   UNL     1      48.450   3.076  14.218  0.00  0.00    +0.000 HD
ENDBRANCH  21  22
ENDBRANCH  20  21
ENDBRANCH  15  20
ENDBRANCH   8  16
ENDBRANCH   7  10
ENDBRANCH   1   7
BRANCH   4  24
ATOM     24  C   UNL     1      51.460   9.234  15.511  0.00  0.00    +0.000 C 
BRANCH  24  25
ATOM     25  N   UNL     1      50.700   9.730  16.668  0.00  0.00    +0.000 NA
ATOM     26  H   UNL     1      51.284   9.660  17.500  0.00  0.00    +0.000 HD
ATOM     27  H   UNL     1      49.911   9.106  16.828  0.00  0.00    +0.000 HD
ENDBRANCH  24  25
BRANCH  24  28
ATOM     28  C   UNL     1      52.478   8.159  15.973  0.00  0.00    +0.000 C 
BRANCH  28  29
ATOM     29  N   UNL     1      51.883   6.848  16.146  0.00  0.00    +0.000 N 
ATOM     30  C   UNL     1      51.444   6.377  17.354  0.00  0.00    +0.000 C 
ATOM     31  O   UNL     1      51.507   7.053  18.377  0.00  0.00    +0.000 OA
ATOM     32  H   UNL     1      51.982   6.207  15.365  0.00  0.00    +0.000 HD
BRANCH  30  33
ATOM     33  C   UNL     1      50.862   5.023  17.363  0.00  0.00    +0.000 A 
ATOM     34  C   UNL     1      51.704   3.921  17.413  0.00  0.00    +0.000 A 
ATOM     35  S   UNL     1      50.883   2.430  17.525  0.00  0.00    +0.000 S 
ATOM     36  C   UNL     1      49.368   3.204  17.520  0.00  0.00    +0.000 A 
ATOM     37  N   UNL     1      48.220   2.487  17.654  0.00  0.00    +0.000 NA
ATOM     38  C   UNL     1      47.141   3.195  17.619  0.00  0.00    +0.000 A 
ATOM     39  N   UNL     1      47.105   4.551  17.437  0.00  0.00    +0.000 N 
ATOM     40  C   UNL     1      48.237   5.314  17.286  0.00  0.00    +0.000 A 
ATOM     41  O   UNL     1      48.156   6.522  17.091  0.00  0.00    +0.000 OA
ATOM     42  C   UNL     1      49.484   4.576  17.371  0.00  0.00    +0.000 A 
ATOM     43  H   UNL     1      46.229   5.048  17.383  0.00  0.00    +0.000 HD
ENDBRANCH  30  33
ENDBRANCH  28  29
ENDBRANCH  24  28
ENDBRANCH   4  24
TORSDOF 12
ENDMDL
MODEL 5
REMARK VINA RESULT:    -6.632      5.466     10.254
REMARK INTER + INTRA:         -12.235
REMARK INTER:                 -10.403
REMARK INTRA:                  -1.832
REMARK UNBOUND:                -1.532
REMARK  Name = 
REMARK  12 active torsions:
REMARK  status: ('A' for Active; 'I' for Inactive)
REMARK    1  A    between atoms: N_1  and  C_2
REMARK    2  A    between atoms: N_5  and  C_6
REMARK    3  A    between atoms: C_6  and  C_7
REMARK    4  A    between atoms: C_7  and  O_8
REMARK    5  A    between atoms: C_9  and  C_10
REMARK    6  A    between atoms: N_12  and  C_13
REMARK    7  A    between atoms: C_13  and  C_14
REMARK    8  A    between atoms: C_17  and  C_18
REMARK    9  A    between atoms: C_18  and  N_19
REMARK   10  A    between atoms: C_18  and  C_20
REMARK   11  A    between atoms: C_20  and  N_21
REMARK   12  A    between atoms: C_22  and  C_24
REMARK                            x       y       z     vdW  Elec       q    Type
REMARK                         _______ _______ _______ _____ _____    ______ ____
ROOT
ATOM      1  C   UNL     1      47.067   8.128  12.137  0.00  0.00    +0.000 A 
ATOM      2  C   UNL     1      48.035   7.193  11.756  0.00  0.00    +0.000 A 
ATOM      3  C   UNL     1      49.389   7.426  12.017  0.00  0.00    +0.000 A 
ATOM      4  C   UNL     1      49.808   8.597  12.672  0.00  0.00    +0.000 A 
ATOM      5  C   UNL     1      48.830   9.538  13.032  0.00  0.00    +0.000 A 
ATOM      6  C   UNL     1      47.476   9.297  12.787  0.00  0.00    +0.000 A 
ENDROOT
BRANCH   1   7
ATOM      7  C   UNL     1      45.606   7.877  11.879  0.00  0.00    +0.000 C 
BRANCH   7  10
ATOM      8  C   UNL     1      44.092   5.992  11.368  0.00  0.00    +0.000 C 
ATOM      9  O   UNL     1      43.129   6.733  11.200  0.00  0.00    +0.000 OA
ATOM     10  N   UNL     1      45.333   6.471  11.711  0.00  0.00    +0.000 N 
ATOM     11  H   UNL     1      46.009   5.802  12.060  0.00  0.00    +0.000 HD
BRANCH   8  16
ATOM     12  C   UNL     1      43.700   3.546  12.093  0.00  0.00    +0.000 A 
ATOM     13  N   UNL     1      43.772   2.311  11.538  0.00  0.00    +0.000 NA
ATOM     14  C   UNL     1      44.138   2.525  10.299  0.00  0.00    +0.000 A 
ATOM     15  N   UNL     1      44.280   3.861  10.041  0.00  0.00    +0.000 N 
ATOM     16  C   UNL     1      44.014   4.558  11.207  0.00  0.00    +0.000 A 
BRANCH  12  17
ATOM     17  N   UNL     1      43.388   3.633  13.394  0.00  0.00    +0.000 N 
ATOM     18  H   UNL     1      44.169   3.970  13.957  0.00  0.00    +0.000 HD
ATOM     19  H   UNL     1      42.551   4.152  13.640  0.00  0.00    +0.000 HD
ENDBRANCH  12  17
BRANCH  15  20
ATOM     20  C   UNL     1      44.615   4.401   8.733  0.00  0.00    +0.000 C 
BRANCH  20  21
ATOM     21  C   UNL     1      45.652   3.565   7.994  0.00  0.00    +0.000 C 
BRANCH  21  22
ATOM     22  O   UNL     1      46.633   4.400   7.381  0.00  0.00    +0.000 OA
ATOM     23  H   UNL     1      46.531   4.310   6.415  0.00  0.00    +0.000 HD
ENDBRANCH  21  22
ENDBRANCH  20  21
ENDBRANCH  15  20
ENDBRANCH   8  16
ENDBRANCH   7  10
ENDBRANCH   1   7
BRANCH   4  24
ATOM     24  C   UNL     1      51.298   8.818  12.922  0.00  0.00    +0.000 C 
BRANCH  24  25
ATOM     25  N   UNL     1      51.689  10.137  12.405  0.00  0.00    +0.000 NA
ATOM     26  H   UNL     1      50.962  10.473  11.777  0.00  0.00    +0.000 HD
ATOM     27  H   UNL     1      52.523  10.024  11.830  0.00  0.00    +0.000 HD
ENDBRANCH  24  25
BRANCH  24  28
ATOM     28  C   UNL     1      51.743   8.680  14.401  0.00  0.00    +0.000 C 
BRANCH  28  29
ATOM     29  N   UNL     1      51.282   7.454  15.023  0.00  0.00    +0.000 N 
ATOM     30  C   UNL     1      51.361   7.220  16.370  0.00  0.00    +0.000 C 
ATOM     31  O   UNL     1      51.812   8.055  17.149  0.00  0.00    +0.000 OA
ATOM     32  H   UNL     1      51.073   6.686  14.393  0.00  0.00    +0.000 HD
BRANCH  30  33
ATOM     33  C   UNL     1      50.847   5.923  16.846  0.00  0.00    +0.000 A 
ATOM     34  C   UNL     1      51.681   5.089  17.576  0.00  0.00    +0.000 A 
ATOM     35  S   UNL     1      50.915   3.676  18.147  0.00  0.00    +0.000 S 
ATOM     36  C   UNL     1      49.434   4.132  17.446  0.00  0.00    +0.000 A 
ATOM     37  N   UNL     1      48.319   3.371  17.615  0.00  0.00    +0.000 NA
ATOM     38  C   UNL     1      47.268   3.823  17.018  0.00  0.00    +0.000 A 
ATOM     39  N   UNL     1      47.236   4.954  16.248  0.00  0.00    +0.000 N 
ATOM     40  C   UNL     1      48.337   5.747  16.040  0.00  0.00    +0.000 A 
ATOM     41  O   UNL     1      48.270   6.733  15.314  0.00  0.00    +0.000 OA
ATOM     42  C   UNL     1      49.538   5.315  16.733  0.00  0.00    +0.000 A 
ATOM     43  H   UNL     1      46.391   5.241  15.776  0.00  0.00    +0.000 HD
ENDBRANCH  30  33
ENDBRANCH  28  29
ENDBRANCH  24  28
ENDBRANCH   4  24
TORSDOF 12
ENDMDL
MODEL 6
REMARK VINA RESULT:    -6.516      3.879      9.826
REMARK INTER + INTRA:         -12.047
REMARK INTER:                 -10.136
REMARK INTRA:                  -1.911
REMARK UNBOUND:                -1.532
REMARK  Name = 
REMARK  12 active torsions:
REMARK  status: ('A' for Active; 'I' for Inactive)
REMARK    1  A    between atoms: N_1  and  C_2
REMARK    2  A    between atoms: N_5  and  C_6
REMARK    3  A    between atoms: C_6  and  C_7
REMARK    4  A    between atoms: C_7  and  O_8
REMARK    5  A    between atoms: C_9  and  C_10
REMARK    6  A    between atoms: N_12  and  C_13
REMARK    7  A    between atoms: C_13  and  C_14
REMARK    8  A    between atoms: C_17  and  C_18
REMARK    9  A    between atoms: C_18  and  N_19
REMARK   10  A    between atoms: C_18  and  C_20
REMARK   11  A    between atoms: C_20  and  N_21
REMARK   12  A    between atoms: C_22  and  C_24
REMARK                            x       y       z     vdW  Elec       q    Type
REMARK                         _______ _______ _______ _____ _____    ______ ____
ROOT
ATOM      1  C   UNL     1      48.765   8.405  13.227  0.00  0.00    +0.000 A 
ATOM      2  C   UNL     1      50.114   8.722  13.428  0.00  0.00    +0.000 A 
ATOM      3  C   UNL     1      50.570   9.114  14.689  0.00  0.00    +0.000 A 
ATOM      4  C   UNL     1      49.693   9.192  15.785  0.00  0.00    +0.000 A 
ATOM      5  C   UNL     1      48.339   8.891  15.568  0.00  0.00    +0.000 A 
ATOM      6  C   UNL     1      47.886   8.482  14.312  0.00  0.00    +0.000 A 
ENDROOT
BRANCH   1   7
ATOM      7  C   UNL     1      48.267   7.962  11.878  0.00  0.00    +0.000 C 
BRANCH   7  10
ATOM      8  C   UNL     1      46.198   6.615  11.793  0.00  0.00    +0.000 C 
ATOM      9  O   UNL     1      45.495   7.597  11.580  0.00  0.00    +0.000 OA
ATOM     10  N   UNL     1      47.557   6.709  11.961  0.00  0.00    +0.000 N 
ATOM     11  H   UNL     1      48.034   5.909  12.361  0.00  0.00    +0.000 HD
BRANCH   8  16
ATOM     12  C   UNL     1      45.443   4.430  12.943  0.00  0.00    +0.000 A 
ATOM     13  N   UNL     1      44.947   3.223  12.576  0.00  0.00    +0.000 NA
ATOM     14  C   UNL     1      44.855   3.284  11.271  0.00  0.00    +0.000 A 
ATOM     15  N   UNL     1      45.257   4.503  10.796  0.00  0.00    +0.000 N 
ATOM     16  C   UNL     1      45.665   5.274  11.872  0.00  0.00    +0.000 A 
BRANCH  12  17
ATOM     17  N   UNL     1      45.691   4.639  14.244  0.00  0.00    +0.000 N 
ATOM     18  H   UNL     1      45.975   3.787  14.726  0.00  0.00    +0.000 HD
ATOM     19  H   UNL     1      46.334   5.388  14.482  0.00  0.00    +0.000 HD
ENDBRANCH  12  17
BRANCH  15  20
ATOM     20  C   UNL     1      45.203   4.882   9.394  0.00  0.00    +0.000 C 
BRANCH  20  21
ATOM     21  C   UNL     1      45.333   3.691   8.453  0.00  0.00    +0.000 C 
BRANCH  21  22
ATOM     22  O   UNL     1      46.062   4.051   7.280  0.00  0.00    +0.000 OA
ATOM     23  H   UNL     1      45.873   4.989   7.094  0.00  0.00    +0.000 HD
ENDBRANCH  21  22
ENDBRANCH  20  21
ENDBRANCH  15  20
ENDBRANCH   8  16
ENDBRANCH   7  10
ENDBRANCH   1   7
BRANCH   4  24
ATOM     24  C   UNL     1      50.234   9.640  17.140  0.00  0.00    +0.000 C 
BRANCH  24  25
ATOM     25  N   UNL     1      49.121  10.116  17.976  0.00  0.00    +0.000 NA
ATOM     26  H   UNL     1      49.458  10.250  18.927  0.00  0.00    +0.000 HD
ATOM     27  H   UNL     1      48.420   9.379  18.030  0.00  0.00    +0.000 HD
ENDBRANCH  24  25
BRANCH  24  28
ATOM     28  C   UNL     1      51.047   8.567  17.910  0.00  0.00    +0.000 C 
BRANCH  28  29
ATOM     29  N   UNL     1      50.646   7.211  17.591  0.00  0.00    +0.000 N 
ATOM     30  C   UNL     1      49.611   6.568  18.215  0.00  0.00    +0.000 C 
ATOM     31  O   UNL     1      48.932   7.117  19.078  0.00  0.00    +0.000 OA
ATOM     32  H   UNL     1      51.293   6.678  17.018  0.00  0.00    +0.000 HD
BRANCH  30  33
ATOM     33  C   UNL     1      49.328   5.190  17.775  0.00  0.00    +0.000 A 
ATOM     34  C   UNL     1      48.088   4.892  17.230  0.00  0.00    +0.000 A 
ATOM     35  S   UNL     1      47.948   3.286  16.673  0.00  0.00    +0.000 S 
ATOM     36  C   UNL     1      49.546   2.931  17.132  0.00  0.00    +0.000 A 
ATOM     37  N   UNL     1      50.091   1.711  16.875  0.00  0.00    +0.000 NA
ATOM     38  C   UNL     1      51.305   1.570  17.290  0.00  0.00    +0.000 A 
ATOM     39  N   UNL     1      52.016   2.529  17.959  0.00  0.00    +0.000 N 
ATOM     40  C   UNL     1      51.504   3.769  18.250  0.00  0.00    +0.000 A 
ATOM     41  O   UNL     1      52.166   4.586  18.882  0.00  0.00    +0.000 OA
ATOM     42  C   UNL     1      50.158   4.003  17.760  0.00  0.00    +0.000 A 
ATOM     43  H   UNL     1      52.952   2.349  18.290  0.00  0.00    +0.000 HD
ENDBRANCH  30  33
ENDBRANCH  28  29
ENDBRANCH  24  28
ENDBRANCH   4  24
TORSDOF 12
ENDMDL
MODEL 7
REMARK VINA RESULT:    -6.461      3.819     10.480
REMARK INTER + INTRA:         -11.958
REMARK INTER:                 -10.936
REMARK INTRA:                  -1.022
REMARK UNBOUND:                -1.532
REMARK  Name = 
REMARK  12 active torsions:
REMARK  status: ('A' for Active; 'I' for Inactive)
REMARK    1  A    between atoms: N_1  and  C_2
REMARK    2  A    between atoms: N_5  and  C_6
REMARK    3  A    between atoms: C_6  and  C_7
REMARK    4  A    between atoms: C_7  and  O_8
REMARK    5  A    between atoms: C_9  and  C_10
REMARK    6  A    between atoms: N_12  and  C_13
REMARK    7  A    between atoms: C_13  and  C_14
REMARK    8  A    between atoms: C_17  and  C_18
REMARK    9  A    between atoms: C_18  and  N_19
REMARK   10  A    between atoms: C_18  and  C_20
REMARK   11  A    between atoms: C_20  and  N_21
REMARK   12  A    between atoms: C_22  and  C_24
REMARK                            x       y       z     vdW  Elec       q    Type
REMARK                         _______ _______ _______ _____ _____    ______ ____
ROOT
ATOM      1  C   UNL     1      46.472   7.569  12.247  0.00  0.00    +0.000 A 
ATOM      2  C   UNL     1      47.697   7.088  11.770  0.00  0.00    +0.000 A 
ATOM      3  C   UNL     1      48.895   7.462  12.386  0.00  0.00    +0.000 A 
ATOM      4  C   UNL     1      48.899   8.320  13.500  0.00  0.00    +0.000 A 
ATOM      5  C   UNL     1      47.666   8.812  13.958  0.00  0.00    +0.000 A 
ATOM      6  C   UNL     1      46.469   8.424  13.354  0.00  0.00    +0.000 A 
ENDROOT
BRANCH   1   7
ATOM      7  C   UNL     1      45.177   7.156  11.604  0.00  0.00    +0.000 C 
BRANCH   7  10
ATOM      8  C   UNL     1      44.158   5.137  10.607  0.00  0.00    +0.000 C 
ATOM      9  O   UNL     1      43.026   5.605  10.668  0.00  0.00    +0.000 OA
ATOM     10  N   UNL     1      45.259   5.825  11.052  0.00  0.00    +0.000 N 
ATOM     11  H   UNL     1      46.114   5.298  11.190  0.00  0.00    +0.000 HD
BRANCH   8  16
ATOM     12  C   UNL     1      44.046   2.564  10.435  0.00  0.00    +0.000 A 
ATOM     13  N   UNL     1      44.560   1.588   9.646  0.00  0.00    +0.000 NA
ATOM     14  C   UNL     1      45.285   2.225   8.760  0.00  0.00    +0.000 A 
ATOM     15  N   UNL     1      45.232   3.579   8.947  0.00  0.00    +0.000 N 
ATOM     16  C   UNL     1      44.437   3.833  10.052  0.00  0.00    +0.000 A 
BRANCH  12  17
ATOM     17  N   UNL     1      43.287   2.196  11.477  0.00  0.00    +0.000 N 
ATOM     18  H   UNL     1      43.053   1.204  11.454  0.00  0.00    +0.000 HD
ATOM     19  H   UNL     1      43.619   2.440  12.405  0.00  0.00    +0.000 HD
ENDBRANCH  12  17
BRANCH  15  20
ATOM     20  C   UNL     1      45.885   4.542   8.076  0.00  0.00    +0.000 C 
BRANCH  20  21
ATOM     21  C   UNL     1      47.020   3.930   7.262  0.00  0.00    +0.000 C 
BRANCH  21  22
ATOM     22  O   UNL     1      46.712   3.950   5.869  0.00  0.00    +0.000 OA
ATOM     23  H   UNL     1      46.736   4.880   5.577  0.00  0.00    +0.000 HD
ENDBRANCH  21  22
ENDBRANCH  20  21
ENDBRANCH  15  20
ENDBRANCH   8  16
ENDBRANCH   7  10
ENDBRANCH   1   7
BRANCH   4  24
ATOM     24  C   UNL     1      50.232   8.714  14.130  0.00  0.00    +0.000 C 
BRANCH  24  25
ATOM     25  N   UNL     1      50.434  10.163  13.979  0.00  0.00    +0.000 NA
ATOM     26  H   UNL     1      49.552  10.591  13.705  0.00  0.00    +0.000 HD
ATOM     27  H   UNL     1      51.073  10.321  13.202  0.00  0.00    +0.000 HD
ENDBRANCH  24  25
BRANCH  24  28
ATOM     28  C   UNL     1      50.398   8.313  15.619  0.00  0.00    +0.000 C 
BRANCH  28  29
ATOM     29  N   UNL     1      50.158   6.904  15.860  0.00  0.00    +0.000 N 
ATOM     30  C   UNL     1      50.079   6.359  17.113  0.00  0.00    +0.000 C 
ATOM     31  O   UNL     1      50.185   7.044  18.127  0.00  0.00    +0.000 OA
ATOM     32  H   UNL     1      50.245   6.293  15.053  0.00  0.00    +0.000 HD
BRANCH  30  33
ATOM     33  C   UNL     1      49.829   4.908  17.189  0.00  0.00    +0.000 A 
ATOM     34  C   UNL     1      48.551   4.426  16.949  0.00  0.00    +0.000 A 
ATOM     35  S   UNL     1      48.441   2.724  16.967  0.00  0.00    +0.000 S 
ATOM     36  C   UNL     1      50.103   2.568  17.289  0.00  0.00    +0.000 A 
ATOM     37  N   UNL     1      50.685   1.340  17.368  0.00  0.00    +0.000 NA
ATOM     38  C   UNL     1      51.949   1.364  17.632  0.00  0.00    +0.000 A 
ATOM     39  N   UNL     1      52.678   2.502  17.848  0.00  0.00    +0.000 N 
ATOM     40  C   UNL     1      52.132   3.761  17.790  0.00  0.00    +0.000 A 
ATOM     41  O   UNL     1      52.816   4.751  18.023  0.00  0.00    +0.000 OA
ATOM     42  C   UNL     1      50.722   3.797  17.442  0.00  0.00    +0.000 A 
ATOM     43  H   UNL     1      53.657   2.458  18.085  0.00  0.00    +0.000 HD
ENDBRANCH  30  33
ENDBRANCH  28  29
ENDBRANCH  24  28
ENDBRANCH   4  24
TORSDOF 12
ENDMDL
MODEL 8
REMARK VINA RESULT:    -6.437      5.899      9.719
REMARK INTER + INTRA:         -11.919
REMARK INTER:                  -9.248
REMARK INTRA:                  -2.672
REMARK UNBOUND:                -1.532
REMARK  Name = 
REMARK  12 active torsions:
REMARK  status: ('A' for Active; 'I' for Inactive)
REMARK    1  A    between atoms: N_1  and  C_2
REMARK    2  A    between atoms: N_5  and  C_6
REMARK    3  A    between atoms: C_6  and  C_7
REMARK    4  A    between atoms: C_7  and  O_8
REMARK    5  A    between atoms: C_9  and  C_10
REMARK    6  A    between atoms: N_12  and  C_13
REMARK    7  A    between atoms: C_13  and  C_14
REMARK    8  A    between atoms: C_17  and  C_18
REMARK    9  A    between atoms: C_18  and  N_19
REMARK   10  A    between atoms: C_18  and  C_20
REMARK   11  A    between atoms: C_20  and  N_21
REMARK   12  A    between atoms: C_22  and  C_24
REMARK                            x       y       z     vdW  Elec       q    Type
REMARK                         _______ _______ _______ _____ _____    ______ ____
ROOT
ATOM      1  C   UNL     1      48.115   8.828  11.894  0.00  0.00    +0.000 A 
ATOM      2  C   UNL     1      48.131   7.484  11.504  0.00  0.00    +0.000 A 
ATOM      3  C   UNL     1      47.055   6.645  11.807  0.00  0.00    +0.000 A 
ATOM      4  C   UNL     1      45.932   7.129  12.500  0.00  0.00    +0.000 A 
ATOM      5  C   UNL     1      45.935   8.474  12.904  0.00  0.00    +0.000 A 
ATOM      6  C   UNL     1      47.003   9.316  12.586  0.00  0.00    +0.000 A 
ENDROOT
BRANCH   1   7
ATOM      7  C   UNL     1      49.259   9.744  11.555  0.00  0.00    +0.000 C 
BRANCH   7  10
ATOM      8  C   UNL     1      51.663   9.572  11.009  0.00  0.00    +0.000 C 
ATOM      9  O   UNL     1      51.685  10.682  10.485  0.00  0.00    +0.000 OA
ATOM     10  N   UNL     1      50.518   9.038  11.545  0.00  0.00    +0.000 N 
ATOM     11  H   UNL     1      50.516   8.045  11.743  0.00  0.00    +0.000 HD
BRANCH   8  16
ATOM     12  C   UNL     1      53.526   7.983  10.192  0.00  0.00    +0.000 A 
ATOM     13  N   UNL     1      54.577   7.311  10.725  0.00  0.00    +0.000 NA
ATOM     14  C   UNL     1      54.562   7.627  11.996  0.00  0.00    +0.000 A 
ATOM     15  N   UNL     1      53.547   8.497  12.286  0.00  0.00    +0.000 N 
ATOM     16  C   UNL     1      52.837   8.737  11.122  0.00  0.00    +0.000 A 
BRANCH  12  17
ATOM     17  N   UNL     1      53.263   7.808   8.889  0.00  0.00    +0.000 N 
ATOM     18  H   UNL     1      53.026   6.841   8.668  0.00  0.00    +0.000 HD
ATOM     19  H   UNL     1      52.578   8.425   8.464  0.00  0.00    +0.000 HD
ENDBRANCH  12  17
BRANCH  15  20
ATOM     20  C   UNL     1      53.325   9.070  13.603  0.00  0.00    +0.000 C 
BRANCH  20  21
ATOM     21  C   UNL     1      52.649   8.102  14.566  0.00  0.00    +0.000 C 
BRANCH  21  22
ATOM     22  O   UNL     1      51.347   7.752  14.101  0.00  0.00    +0.000 OA
ATOM     23  H   UNL     1      51.454   7.059  13.422  0.00  0.00    +0.000 HD
ENDBRANCH  21  22
ENDBRANCH  20  21
ENDBRANCH  15  20
ENDBRANCH   8  16
ENDBRANCH   7  10
ENDBRANCH   1   7
BRANCH   4  24
ATOM     24  C   UNL     1      44.788   6.172  12.824  0.00  0.00    +0.000 C 
BRANCH  24  25
ATOM     25  N   UNL     1      43.929   6.021  11.639  0.00  0.00    +0.000 NA
ATOM     26  H   UNL     1      43.046   6.497  11.811  0.00  0.00    +0.000 HD
ATOM     27  H   UNL     1      43.697   5.035  11.533  0.00  0.00    +0.000 HD
ENDBRANCH  24  25
BRANCH  24  28
ATOM     28  C   UNL     1      45.225   4.775  13.337  0.00  0.00    +0.000 C 
BRANCH  28  29
ATOM     29  N   UNL     1      45.984   4.834  14.571  0.00  0.00    +0.000 N 
ATOM     30  C   UNL     1      47.004   3.970  14.866  0.00  0.00    +0.000 C 
ATOM     31  O   UNL     1      47.360   3.094  14.083  0.00  0.00    +0.000 OA
ATOM     32  H   UNL     1      45.600   5.423  15.303  0.00  0.00    +0.000 HD
BRANCH  30  33
ATOM     33  C   UNL     1      47.679   4.162  16.162  0.00  0.00    +0.000 A 
ATOM     34  C   UNL     1      47.579   3.176  17.133  0.00  0.00    +0.000 A 
ATOM     35  S   UNL     1      48.498   3.493  18.535  0.00  0.00    +0.000 S 
ATOM     36  C   UNL     1      49.072   4.959  17.891  0.00  0.00    +0.000 A 
ATOM     37  N   UNL     1      49.970   5.717  18.577  0.00  0.00    +0.000 NA
ATOM     38  C   UNL     1      50.310   6.811  17.982  0.00  0.00    +0.000 A 
ATOM     39  N   UNL     1      49.816   7.228  16.776  0.00  0.00    +0.000 N 
ATOM     40  C   UNL     1      48.900   6.503  16.054  0.00  0.00    +0.000 A 
ATOM     41  O   UNL     1      48.459   6.932  14.993  0.00  0.00    +0.000 OA
ATOM     42  C   UNL     1      48.521   5.235  16.651  0.00  0.00    +0.000 A 
ATOM     43  H   UNL     1      50.093   8.111  16.375  0.00  0.00    +0.000 HD
ENDBRANCH  30  33
ENDBRANCH  28  29
ENDBRANCH  24  28
ENDBRANCH   4  24
TORSDOF 12
ENDMDL
MODEL 9
REMARK VINA RESULT:    -6.304      5.729     10.295
REMARK INTER + INTRA:         -11.705
REMARK INTER:                 -10.110
REMARK INTRA:                  -1.595
REMARK UNBOUND:                -1.532
REMARK  Name = 
REMARK  12 active torsions:
REMARK  status: ('A' for Active; 'I' for Inactive)
REMARK    1  A    between atoms: N_1  and  C_2
REMARK    2  A    between atoms: N_5  and  C_6
REMARK    3  A    between atoms: C_6  and  C_7
REMARK    4  A    between atoms: C_7  and  O_8
REMARK    5  A    between atoms: C_9  and  C_10
REMARK    6  A    between atoms: N_12  and  C_13
REMARK    7  A    between atoms: C_13  and  C_14
REMARK    8  A    between atoms: C_17  and  C_18
REMARK    9  A    between atoms: C_18  and  N_19
REMARK   10  A    between atoms: C_18  and  C_20
REMARK   11  A    between atoms: C_20  and  N_21
REMARK   12  A    between atoms: C_22  and  C_24
REMARK                            x       y       z     vdW  Elec       q    Type
REMARK                         _______ _______ _______ _____ _____    ______ ____
ROOT
ATOM      1  C   UNL     1      46.721   7.719  12.279  0.00  0.00    +0.000 A 
ATOM      2  C   UNL     1      46.862   8.856  13.083  0.00  0.00    +0.000 A 
ATOM      3  C   UNL     1      48.120   9.241  13.554  0.00  0.00    +0.000 A 
ATOM      4  C   UNL     1      49.272   8.504  13.227  0.00  0.00    +0.000 A 
ATOM      5  C   UNL     1      49.117   7.354  12.437  0.00  0.00    +0.000 A 
ATOM      6  C   UNL     1      47.862   6.980  11.952  0.00  0.00    +0.000 A 
ENDROOT
BRANCH   1   7
ATOM      7  C   UNL     1      45.374   7.308  11.751  0.00  0.00    +0.000 C 
BRANCH   7  10
ATOM      8  C   UNL     1      44.316   5.378  10.627  0.00  0.00    +0.000 C 
ATOM      9  O   UNL     1      43.186   5.830  10.782  0.00  0.00    +0.000 OA
ATOM     10  N   UNL     1      45.435   6.032  11.080  0.00  0.00    +0.000 N 
ATOM     11  H   UNL     1      46.297   5.501  11.129  0.00  0.00    +0.000 HD
BRANCH   8  16
ATOM     12  C   UNL     1      45.315   3.828   8.821  0.00  0.00    +0.000 A 
ATOM     13  N   UNL     1      45.273   2.513   8.492  0.00  0.00    +0.000 NA
ATOM     14  C   UNL     1      44.500   1.969   9.399  0.00  0.00    +0.000 A 
ATOM     15  N   UNL     1      44.066   2.893  10.310  0.00  0.00    +0.000 N 
ATOM     16  C   UNL     1      44.573   4.130   9.946  0.00  0.00    +0.000 A 
BRANCH  12  17
ATOM     17  N   UNL     1      46.007   4.654   8.023  0.00  0.00    +0.000 N 
ATOM     18  H   UNL     1      45.996   5.616   8.359  0.00  0.00    +0.000 HD
ATOM     19  H   UNL     1      46.960   4.392   7.794  0.00  0.00    +0.000 HD
ENDBRANCH  12  17
BRANCH  15  20
ATOM     20  C   UNL     1      43.249   2.567  11.466  0.00  0.00    +0.000 C 
BRANCH  20  21
ATOM     21  C   UNL     1      43.931   2.899  12.788  0.00  0.00    +0.000 C 
BRANCH  21  22
ATOM     22  O   UNL     1      43.285   3.998  13.429  0.00  0.00    +0.000 OA
ATOM     23  H   UNL     1      43.891   4.761  13.381  0.00  0.00    +0.000 HD
ENDBRANCH  21  22
ENDBRANCH  20  21
ENDBRANCH  15  20
ENDBRANCH   8  16
ENDBRANCH   7  10
ENDBRANCH   1   7
BRANCH   4  24
ATOM     24  C   UNL     1      50.624   8.953  13.777  0.00  0.00    +0.000 C 
BRANCH  24  25
ATOM     25  N   UNL     1      51.078  10.144  13.044  0.00  0.00    +0.000 NA
ATOM     26  H   UNL     1      51.687  10.690  13.650  0.00  0.00    +0.000 HD
ATOM     27  H   UNL     1      50.270  10.735  12.856  0.00  0.00    +0.000 HD
ENDBRANCH  24  25
BRANCH  24  28
ATOM     28  C   UNL     1      50.651   9.232  15.303  0.00  0.00    +0.000 C 
BRANCH  28  29
ATOM     29  N   UNL     1      50.462   8.039  16.104  0.00  0.00    +0.000 N 
ATOM     30  C   UNL     1      49.346   7.815  16.864  0.00  0.00    +0.000 C 
ATOM     31  O   UNL     1      48.412   8.610  16.897  0.00  0.00    +0.000 OA
ATOM     32  H   UNL     1      51.283   7.457  16.237  0.00  0.00    +0.000 HD
BRANCH  30  33
ATOM     33  C   UNL     1      49.306   6.551  17.622  0.00  0.00    +0.000 A 
ATOM     34  C   UNL     1      49.926   6.481  18.861  0.00  0.00    +0.000 A 
ATOM     35  S   UNL     1      49.703   4.991  19.661  0.00  0.00    +0.000 S 
ATOM     36  C   UNL     1      48.760   4.386  18.382  0.00  0.00    +0.000 A 
ATOM     37  N   UNL     1      48.191   3.152  18.459  0.00  0.00    +0.000 NA
ATOM     38  C   UNL     1      47.514   2.809  17.414  0.00  0.00    +0.000 A 
ATOM     39  N   UNL     1      47.374   3.578  16.291  0.00  0.00    +0.000 N 
ATOM     40  C   UNL     1      47.938   4.823  16.163  0.00  0.00    +0.000 A 
ATOM     41  O   UNL     1      47.814   5.463  15.124  0.00  0.00    +0.000 OA
ATOM     42  C   UNL     1      48.668   5.283  17.331  0.00  0.00    +0.000 A 
ATOM     43  H   UNL     1      46.861   3.243  15.489  0.00  0.00    +0.000 HD
ENDBRANCH  30  33
ENDBRANCH  28  29
ENDBRANCH  24  28
ENDBRANCH   4  24
TORSDOF 12
ENDMDL
