MODEL 1
REMARK VINA RESULT:    -7.719      0.000      0.000
REMARK INTER + INTRA:         -12.537
REMARK INTER:                 -11.555
REMARK INTRA:                  -0.982
REMARK UNBOUND:                -0.982
REMARK  Name = 
REMARK  9 active torsions:
REMARK  status: ('A' for Active; 'I' for Inactive)
REMARK    1  A    between atoms: C_2  and  C_3
REMARK    2  A    between atoms: C_3  and  N_4
REMARK    3  A    between atoms: C_3  and  C_20
REMARK    4  A    between atoms: C_5  and  C_7
REMARK    5  A    between atoms: N_13  and  C_14
REMARK    6  A    between atoms: C_14  and  C_15
REMARK    7  A    between atoms: C_15  and  O_16
REMARK    8  A    between atoms: C_23  and  C_24
REMARK    9  A    between atoms: C_24  and  N_25
REMARK                            x       y       z     vdW  Elec       q    Type
REMARK                         _______ _______ _______ _____ _____    ______ ____
ROOT
ATOM      1  C   UNL     1      47.862   8.228  13.344  0.00  0.00    +0.000 C 
ENDROOT
BRANCH   1   2
ATOM      2  C   UNL     1      46.761   7.424  12.660  0.00  0.00    +0.000 A 
ATOM      3  C   UNL     1      46.854   6.024  12.598  0.00  0.00    +0.000 A 
ATOM      4  C   UNL     1      45.878   5.266  11.938  0.00  0.00    +0.000 A 
ATOM      5  C   UNL     1      44.800   5.892  11.302  0.00  0.00    +0.000 A 
ATOM      6  C   UNL     1      44.700   7.288  11.364  0.00  0.00    +0.000 A 
ATOM      7  C   UNL     1      45.670   8.044  12.028  0.00  0.00    +0.000 A 
BRANCH   5   8
ATOM      8  C   UNL     1      43.760   5.087  10.551  0.00  0.00    +0.000 C 
BRANCH   8   9
ATOM      9  N   UNL     1      44.167   3.689  10.485  0.00  0.00    +0.000 N 
ATOM     10  C   UNL     1      44.929   3.375   9.346  0.00  0.00    +0.000 A 
ATOM     11  C   UNL     1      45.332   2.051   9.162  0.00  0.00    +0.000 A 
ATOM     12  C   UNL     1      46.145   1.721   8.078  0.00  0.00    +0.000 A 
ATOM     13  C   UNL     1      46.544   2.719   7.203  0.00  0.00    +0.000 A 
ATOM     14  C   UNL     1      46.104   4.006   7.450  0.00  0.00    +0.000 A 
ATOM     15  N   UNL     1      45.314   4.347   8.493  0.00  0.00    +0.000 NA
ATOM     16  H   UNL     1      43.376   3.058  10.553  0.00  0.00    +0.000 HD
ENDBRANCH   8   9
ENDBRANCH   5   8
ENDBRANCH   1   2
BRANCH   1  17
ATOM     17  N   UNL     1      47.892   7.911  14.763  0.00  0.00    +0.000 N 
ATOM     18  C   UNL     1      48.388   8.769  15.702  0.00  0.00    +0.000 C 
ATOM     19  O   UNL     1      48.921   9.832  15.397  0.00  0.00    +0.000 OA
ATOM     20  H   UNL     1      47.333   7.118  15.059  0.00  0.00    +0.000 HD
BRANCH  18  21
ATOM     21  C   UNL     1      48.296   8.327  17.101  0.00  0.00    +0.000 A 
ATOM     22  C   UNL     1      47.791   9.193  18.062  0.00  0.00    +0.000 A 
ATOM     23  S   UNL     1      47.695   8.501  19.618  0.00  0.00    +0.000 S 
ATOM     24  C   UNL     1      48.313   7.018  19.056  0.00  0.00    +0.000 A 
ATOM     25  N   UNL     1      48.439   5.958  19.892  0.00  0.00    +0.000 NA
ATOM     26  C   UNL     1      48.903   4.886  19.337  0.00  0.00    +0.000 A 
ATOM     27  N   UNL     1      49.290   4.772  18.015  0.00  0.00    +0.000 N 
ATOM     28  C   UNL     1      49.234   5.862  17.150  0.00  0.00    +0.000 A 
ATOM     29  O   UNL     1      49.702   5.834  16.014  0.00  0.00    +0.000 OA
ATOM     30  C   UNL     1      48.642   7.063  17.716  0.00  0.00    +0.000 A 
BRANCH  27  31
ATOM     31  C   UNL     1      49.861   3.517  17.532  0.00  0.00    +0.000 C 
BRANCH  31  32
ATOM     32  C   UNL     1      48.806   2.575  16.947  0.00  0.00    +0.000 C 
BRANCH  32  33
ATOM     33  O   UNL     1      49.375   1.759  15.927  0.00  0.00    +0.000 OA
ATOM     34  H   UNL     1      49.287   2.236  15.083  0.00  0.00    +0.000 HD
ENDBRANCH  32  33
ENDBRANCH  31  32
ENDBRANCH  27  31
ENDBRANCH  18  21
ENDBRANCH   1  17
BRANCH   1  36
ATOM     35  N   UNL     1      50.258   7.858  12.281  0.00  0.00    +0.000 NA
ATOM     36  C   UNL     1      49.210   7.994  12.756  0.00  0.00    +0.000 C 
ENDBRANCH   1  36
TORSDOF 9
ENDMDL
MODEL 2
REMARK VINA RESULT:    -7.689      2.266      4.668
REMARK INTER + INTRA:         -12.492
REMARK INTER:                 -11.062
REMARK INTRA:                  -1.430
REMARK UNBOUND:                -0.982
REMARK  Name = 
REMARK  9 active torsions:
REMARK  status: ('A' for Active; 'I' for Inactive)
REMARK    1  A    between atoms: C_2  and  C_3
REMARK    2  A    between atoms: C_3  and  N_4
REMARK    3  A    between atoms: C_3  and  C_20
REMARK    4  A    between atoms: C_5  and  C_7
REMARK    5  A    between atoms: N_13  and  C_14
REMARK    6  A    between atoms: C_14  and  C_15
REMARK    7  A    between atoms: C_15  and  O_16
REMARK    8  A    between atoms: C_23  and  C_24
REMARK    9  A    between atoms: C_24  and  N_25
REMARK                            x       y       z     vdW  Elec       q    Type
REMARK                         _______ _______ _______ _____ _____    ______ ____
ROOT
ATOM      1  C   UNL     1      47.644   4.776  14.855  0.00  0.00    +0.000 C 
ENDROOT
BRANCH   1   2
ATOM      2  C   UNL     1      46.710   4.669  13.653  0.00  0.00    +0.000 A 
ATOM      3  C   UNL     1      46.159   3.424  13.305  0.00  0.00    +0.000 A 
ATOM      4  C   UNL     1      45.334   3.292  12.181  0.00  0.00    +0.000 A 
ATOM      5  C   UNL     1      45.062   4.395  11.362  0.00  0.00    +0.000 A 
ATOM      6  C   UNL     1      45.606   5.638  11.707  0.00  0.00    +0.000 A 
ATOM      7  C   UNL     1      46.424   5.772  12.832  0.00  0.00    +0.000 A 
BRANCH   5   8
ATOM      8  C   UNL     1      44.204   4.255  10.122  0.00  0.00    +0.000 C 
BRANCH   8   9
ATOM      9  N   UNL     1      44.969   4.636   8.942  0.00  0.00    +0.000 N 
ATOM     10  C   UNL     1      45.671   3.569   8.354  0.00  0.00    +0.000 A 
ATOM     11  C   UNL     1      46.474   3.837   7.244  0.00  0.00    +0.000 A 
ATOM     12  C   UNL     1      47.129   2.789   6.597  0.00  0.00    +0.000 A 
ATOM     13  C   UNL     1      46.966   1.496   7.068  0.00  0.00    +0.000 A 
ATOM     14  C   UNL     1      46.157   1.311   8.173  0.00  0.00    +0.000 A 
ATOM     15  N   UNL     1      45.514   2.312   8.816  0.00  0.00    +0.000 NA
ATOM     16  H   UNL     1      45.606   5.402   9.133  0.00  0.00    +0.000 HD
ENDBRANCH   8   9
ENDBRANCH   5   8
ENDBRANCH   1   2
BRANCH   1  17
ATOM     17  N   UNL     1      47.912   6.176  15.145  0.00  0.00    +0.000 N 
ATOM     18  C   UNL     1      49.030   6.593  15.808  0.00  0.00    +0.000 C 
ATOM     19  O   UNL     1      49.842   5.801  16.278  0.00  0.00    +0.000 OA
ATOM     20  H   UNL     1      47.346   6.855  14.648  0.00  0.00    +0.000 HD
BRANCH  18  21
ATOM     21  C   UNL     1      49.186   8.044  15.974  0.00  0.00    +0.000 A 
ATOM     22  C   UNL     1      49.089   8.605  17.240  0.00  0.00    +0.000 A 
ATOM     23  S   UNL     1      49.357  10.290  17.261  0.00  0.00    +0.000 S 
ATOM     24  C   UNL     1      49.624  10.323  15.581  0.00  0.00    +0.000 A 
ATOM     25  N   UNL     1      49.958  11.478  14.954  0.00  0.00    +0.000 NA
ATOM     26  C   UNL     1      50.152  11.364  13.681  0.00  0.00    +0.000 A 
ATOM     27  N   UNL     1      50.013  10.199  12.951  0.00  0.00    +0.000 N 
ATOM     28  C   UNL     1      49.605   9.013  13.555  0.00  0.00    +0.000 A 
ATOM     29  O   UNL     1      49.334   8.000  12.915  0.00  0.00    +0.000 OA
ATOM     30  C   UNL     1      49.456   9.081  15.000  0.00  0.00    +0.000 A 
BRANCH  27  31
ATOM     31  C   UNL     1      50.198  10.225  11.502  0.00  0.00    +0.000 C 
BRANCH  31  32
ATOM     32  C   UNL     1      51.585   9.737  11.075  0.00  0.00    +0.000 C 
BRANCH  32  33
ATOM     33  O   UNL     1      51.544   8.354  10.735  0.00  0.00    +0.000 OA
ATOM     34  H   UNL     1      52.340   8.154  10.212  0.00  0.00    +0.000 HD
ENDBRANCH  32  33
ENDBRANCH  31  32
ENDBRANCH  27  31
ENDBRANCH  18  21
ENDBRANCH   1  17
BRANCH   1  36
ATOM     35  N   UNL     1      46.701   3.550  17.003  0.00  0.00    +0.000 NA
ATOM     36  C   UNL     1      47.106   4.112  16.074  0.00  0.00    +0.000 C 
ENDBRANCH   1  36
TORSDOF 9
ENDMDL
MODEL 3
REMARK VINA RESULT:    -7.640      2.409      3.991
REMARK INTER + INTRA:         -12.419
REMARK INTER:                 -11.031
REMARK INTRA:                  -1.387
REMARK UNBOUND:                -0.982
REMARK  Name = 
REMARK  9 active torsions:
REMARK  status: ('A' for Active; 'I' for Inactive)
REMARK    1  A    between atoms: C_2  and  C_3
REMARK    2  A    between atoms: C_3  and  N_4
REMARK    3  A    between atoms: C_3  and  C_20
REMARK    4  A    between atoms: C_5  and  C_7
REMARK    5  A    between atoms: N_13  and  C_14
REMARK    6  A    between atoms: C_14  and  C_15
REMARK    7  A    between atoms: C_15  and  O_16
REMARK    8  A    between atoms: C_23  and  C_24
REMARK    9  A    between atoms: C_24  and  N_25
REMARK                            x       y       z     vdW  Elec       q    Type
REMARK                         _______ _______ _______ _____ _____    ______ ____
ROOT
ATOM      1  C   UNL     1      47.629   5.050  14.804  0.00  0.00    +0.000 C 
ENDROOT
BRANCH   1   2
ATOM      2  C   UNL     1      46.692   4.939  13.605  0.00  0.00    +0.000 A 
ATOM      3  C   UNL     1      46.098   3.704  13.294  0.00  0.00    +0.000 A 
ATOM      4  C   UNL     1      45.269   3.565  12.174  0.00  0.00    +0.000 A 
ATOM      5  C   UNL     1      45.035   4.652  11.322  0.00  0.00    +0.000 A 
ATOM      6  C   UNL     1      45.621   5.886  11.630  0.00  0.00    +0.000 A 
ATOM      7  C   UNL     1      46.443   6.026  12.751  0.00  0.00    +0.000 A 
BRANCH   5   8
ATOM      8  C   UNL     1      44.172   4.504  10.086  0.00  0.00    +0.000 C 
BRANCH   8   9
ATOM      9  N   UNL     1      44.956   4.803   8.895  0.00  0.00    +0.000 N 
ATOM     10  C   UNL     1      45.630   3.687   8.367  0.00  0.00    +0.000 A 
ATOM     11  C   UNL     1      46.448   3.874   7.251  0.00  0.00    +0.000 A 
ATOM     12  C   UNL     1      47.075   2.776   6.663  0.00  0.00    +0.000 A 
ATOM     13  C   UNL     1      46.872   1.514   7.198  0.00  0.00    +0.000 A 
ATOM     14  C   UNL     1      46.051   1.409   8.305  0.00  0.00    +0.000 A 
ATOM     15  N   UNL     1      45.433   2.460   8.890  0.00  0.00    +0.000 NA
ATOM     16  H   UNL     1      45.614   5.559   9.051  0.00  0.00    +0.000 HD
ENDBRANCH   8   9
ENDBRANCH   5   8
ENDBRANCH   1   2
BRANCH   1  17
ATOM     17  N   UNL     1      47.779   6.446  15.181  0.00  0.00    +0.000 N 
ATOM     18  C   UNL     1      48.912   7.163  14.926  0.00  0.00    +0.000 C 
ATOM     19  O   UNL     1      49.913   6.648  14.436  0.00  0.00    +0.000 OA
ATOM     20  H   UNL     1      46.931   6.934  15.449  0.00  0.00    +0.000 HD
BRANCH  18  21
ATOM     21  C   UNL     1      48.889   8.580  15.317  0.00  0.00    +0.000 A 
ATOM     22  C   UNL     1      49.223   9.555  14.388  0.00  0.00    +0.000 A 
ATOM     23  S   UNL     1      49.083  11.145  14.988  0.00  0.00    +0.000 S 
ATOM     24  C   UNL     1      48.559  10.583  16.507  0.00  0.00    +0.000 A 
ATOM     25  N   UNL     1      48.215  11.454  17.487  0.00  0.00    +0.000 NA
ATOM     26  C   UNL     1      47.816  10.900  18.586  0.00  0.00    +0.000 A 
ATOM     27  N   UNL     1      47.756   9.538  18.819  0.00  0.00    +0.000 N 
ATOM     28  C   UNL     1      48.166   8.622  17.855  0.00  0.00    +0.000 A 
ATOM     29  O   UNL     1      48.261   7.418  18.080  0.00  0.00    +0.000 OA
ATOM     30  C   UNL     1      48.545   9.204  16.577  0.00  0.00    +0.000 A 
BRANCH  27  31
ATOM     31  C   UNL     1      47.348   9.046  20.133  0.00  0.00    +0.000 C 
BRANCH  31  32
ATOM     32  C   UNL     1      48.504   9.018  21.136  0.00  0.00    +0.000 C 
BRANCH  32  33
ATOM     33  O   UNL     1      49.242   7.806  21.013  0.00  0.00    +0.000 OA
ATOM     34  H   UNL     1      48.642   7.128  20.653  0.00  0.00    +0.000 HD
ENDBRANCH  32  33
ENDBRANCH  31  32
ENDBRANCH  27  31
ENDBRANCH  18  21
ENDBRANCH   1  17
BRANCH   1  36
ATOM     35  N   UNL     1      46.775   3.631  16.869  0.00  0.00    +0.000 NA
ATOM     36  C   UNL     1      47.167   4.265  15.982  0.00  0.00    +0.000 C 
ENDBRANCH   1  36
TORSDOF 9
ENDMDL
MODEL 4
REMARK VINA RESULT:    -7.309      1.032      1.656
REMARK INTER + INTRA:         -11.923
REMARK INTER:                 -10.712
REMARK INTRA:                  -1.211
REMARK UNBOUND:                -0.982
REMARK  Name = 
REMARK  9 active torsions:
REMARK  status: ('A' for Active; 'I' for Inactive)
REMARK    1  A    between atoms: C_2  and  C_3
REMARK    2  A    between atoms: C_3  and  N_4
REMARK    3  A    between atoms: C_3  and  C_20
REMARK    4  A    between atoms: C_5  and  C_7
REMARK    5  A    between atoms: N_13  and  C_14
REMARK    6  A    between atoms: C_14  and  C_15
REMARK    7  A    between atoms: C_15  and  O_16
REMARK    8  A    between atoms: C_23  and  C_24
REMARK    9  A    between atoms: C_24  and  N_25
REMARK                            x       y       z     vdW  Elec       q    Type
REMARK                         _______ _______ _______ _____ _____    ______ ____
ROOT
ATOM      1  C   UNL     1      48.375   8.751  14.572  0.00  0.00    +0.000 C 
ENDROOT
BRANCH   1   2
ATOM      2  C   UNL     1      47.450   8.022  13.602  0.00  0.00    +0.000 A 
ATOM      3  C   UNL     1      46.242   8.620  13.204  0.00  0.00    +0.000 A 
ATOM      4  C   UNL     1      45.357   7.953  12.349  0.00  0.00    +0.000 A 
ATOM      5  C   UNL     1      45.644   6.661  11.892  0.00  0.00    +0.000 A 
ATOM      6  C   UNL     1      46.848   6.062  12.282  0.00  0.00    +0.000 A 
ATOM      7  C   UNL     1      47.736   6.730  13.130  0.00  0.00    +0.000 A 
BRANCH   5   8
ATOM      8  C   UNL     1      44.675   5.914  10.999  0.00  0.00    +0.000 C 
BRANCH   8   9
ATOM      9  N   UNL     1      45.257   5.734   9.675  0.00  0.00    +0.000 N 
ATOM     10  C   UNL     1      45.371   4.387   9.285  0.00  0.00    +0.000 A 
ATOM     11  C   UNL     1      45.959   4.102   8.052  0.00  0.00    +0.000 A 
ATOM     12  C   UNL     1      46.024   2.782   7.608  0.00  0.00    +0.000 A 
ATOM     13  C   UNL     1      45.498   1.774   8.400  0.00  0.00    +0.000 A 
ATOM     14  C   UNL     1      44.933   2.135   9.609  0.00  0.00    +0.000 A 
ATOM     15  N   UNL     1      44.860   3.408  10.059  0.00  0.00    +0.000 NA
ATOM     16  H   UNL     1      46.158   6.193   9.590  0.00  0.00    +0.000 HD
ENDBRANCH   8   9
ENDBRANCH   5   8
ENDBRANCH   1   2
BRANCH   1  17
ATOM     17  N   UNL     1      48.286   8.139  15.888  0.00  0.00    +0.000 N 
ATOM     18  C   UNL     1      48.523   8.830  17.042  0.00  0.00    +0.000 C 
ATOM     19  O   UNL     1      48.911   9.994  17.036  0.00  0.00    +0.000 OA
ATOM     20  H   UNL     1      47.831   7.234  15.934  0.00  0.00    +0.000 HD
BRANCH  18  21
ATOM     21  C   UNL     1      48.337   8.086  18.296  0.00  0.00    +0.000 A 
ATOM     22  C   UNL     1      47.767   8.719  19.391  0.00  0.00    +0.000 A 
ATOM     23  S   UNL     1      47.567   7.696  20.741  0.00  0.00    +0.000 S 
ATOM     24  C   UNL     1      48.225   6.370  19.902  0.00  0.00    +0.000 A 
ATOM     25  N   UNL     1      48.297   5.147  20.484  0.00  0.00    +0.000 NA
ATOM     26  C   UNL     1      48.799   4.222  19.733  0.00  0.00    +0.000 A 
ATOM     27  N   UNL     1      49.274   4.404  18.448  0.00  0.00    +0.000 N 
ATOM     28  C   UNL     1      49.275   5.660  17.849  0.00  0.00    +0.000 A 
ATOM     29  O   UNL     1      49.819   5.882  16.770  0.00  0.00    +0.000 OA
ATOM     30  C   UNL     1      48.644   6.711  18.631  0.00  0.00    +0.000 A 
BRANCH  27  31
ATOM     31  C   UNL     1      49.879   3.281  17.734  0.00  0.00    +0.000 C 
BRANCH  31  32
ATOM     32  C   UNL     1      48.856   2.470  16.934  0.00  0.00    +0.000 C 
BRANCH  32  33
ATOM     33  O   UNL     1      49.492   1.787  15.858  0.00  0.00    +0.000 OA
ATOM     34  H   UNL     1      49.366   2.319  15.053  0.00  0.00    +0.000 HD
ENDBRANCH  32  33
ENDBRANCH  31  32
ENDBRANCH  27  31
ENDBRANCH  18  21
ENDBRANCH   1  17
BRANCH   1  36
ATOM     35  N   UNL     1      50.915   8.761  13.826  0.00  0.00    +0.000 NA
ATOM     36  C   UNL     1      49.795   8.766  14.127  0.00  0.00    +0.000 C 
ENDBRANCH   1  36
TORSDOF 9
ENDMDL
MODEL 5
REMARK VINA RESULT:    -7.046      2.569      3.537
REMARK INTER + INTRA:         -11.529
REMARK INTER:                 -10.060
REMARK INTRA:                  -1.470
REMARK UNBOUND:                -0.982
REMARK  Name = 
REMARK  9 active torsions:
REMARK  status: ('A' for Active; 'I' for Inactive)
REMARK    1  A    between atoms: C_2  and  C_3
REMARK    2  A    between atoms: C_3  and  N_4
REMARK    3  A    between atoms: C_3  and  C_20
REMARK    4  A    between atoms: C_5  and  C_7
REMARK    5  A    between atoms: N_13  and  C_14
REMARK    6  A    between atoms: C_14  and  C_15
REMARK    7  A    between atoms: C_15  and  O_16
REMARK    8  A    between atoms: C_23  and  C_24
REMARK    9  A    between atoms: C_24  and  N_25
REMARK                            x       y       z     vdW  Elec       q    Type
REMARK                         _______ _______ _______ _____ _____    ______ ____
ROOT
ATOM      1  C   UNL     1      50.538   8.775  12.869  0.00  0.00    +0.000 C 
ENDROOT
BRANCH   1   2
ATOM      2  C   UNL     1      49.087   8.476  12.501  0.00  0.00    +0.000 A 
ATOM      3  C   UNL     1      48.112   9.479  12.635  0.00  0.00    +0.000 A 
ATOM      4  C   UNL     1      46.767   9.218  12.345  0.00  0.00    +0.000 A 
ATOM      5  C   UNL     1      46.360   7.941  11.940  0.00  0.00    +0.000 A 
ATOM      6  C   UNL     1      47.329   6.940  11.801  0.00  0.00    +0.000 A 
ATOM      7  C   UNL     1      48.672   7.201  12.084  0.00  0.00    +0.000 A 
BRANCH   5   8
ATOM      8  C   UNL     1      44.903   7.637  11.662  0.00  0.00    +0.000 C 
BRANCH   8   9
ATOM      9  N   UNL     1      44.798   6.585  10.659  0.00  0.00    +0.000 N 
ATOM     10  C   UNL     1      44.386   5.345  11.180  0.00  0.00    +0.000 A 
ATOM     11  C   UNL     1      44.298   4.257  10.310  0.00  0.00    +0.000 A 
ATOM     12  C   UNL     1      43.828   3.032  10.783  0.00  0.00    +0.000 A 
ATOM     13  C   UNL     1      43.451   2.919  12.112  0.00  0.00    +0.000 A 
ATOM     14  C   UNL     1      43.569   4.040  12.912  0.00  0.00    +0.000 A 
ATOM     15  N   UNL     1      44.023   5.236  12.474  0.00  0.00    +0.000 NA
ATOM     16  H   UNL     1      45.660   6.468  10.137  0.00  0.00    +0.000 HD
ENDBRANCH   8   9
ENDBRANCH   5   8
ENDBRANCH   1   2
BRANCH   1  17
ATOM     17  N   UNL     1      51.004   7.807  13.849  0.00  0.00    +0.000 N 
ATOM     18  C   UNL     1      51.524   8.171  15.058  0.00  0.00    +0.000 C 
ATOM     19  O   UNL     1      51.710   9.346  15.360  0.00  0.00    +0.000 OA
ATOM     20  H   UNL     1      50.731   6.843  13.695  0.00  0.00    +0.000 HD
BRANCH  18  21
ATOM     21  C   UNL     1      51.897   7.075  15.963  0.00  0.00    +0.000 A 
ATOM     22  C   UNL     1      53.237   6.838  16.238  0.00  0.00    +0.000 A 
ATOM     23  S   UNL     1      53.490   5.573  17.353  0.00  0.00    +0.000 S 
ATOM     24  C   UNL     1      51.817   5.309  17.516  0.00  0.00    +0.000 A 
ATOM     25  N   UNL     1      51.343   4.376  18.378  0.00  0.00    +0.000 NA
ATOM     26  C   UNL     1      50.053   4.288  18.421  0.00  0.00    +0.000 A 
ATOM     27  N   UNL     1      49.174   5.029  17.654  0.00  0.00    +0.000 N 
ATOM     28  C   UNL     1      49.633   5.945  16.713  0.00  0.00    +0.000 A 
ATOM     29  O   UNL     1      48.888   6.513  15.918  0.00  0.00    +0.000 OA
ATOM     30  C   UNL     1      51.075   6.132  16.692  0.00  0.00    +0.000 A 
BRANCH  27  31
ATOM     31  C   UNL     1      47.738   4.781  17.755  0.00  0.00    +0.000 C 
BRANCH  31  32
ATOM     32  C   UNL     1      47.294   3.551  16.958  0.00  0.00    +0.000 C 
BRANCH  32  33
ATOM     33  O   UNL     1      46.452   2.720  17.751  0.00  0.00    +0.000 OA
ATOM     34  H   UNL     1      46.905   2.561  18.597  0.00  0.00    +0.000 HD
ENDBRANCH  32  33
ENDBRANCH  31  32
ENDBRANCH  27  31
ENDBRANCH  18  21
ENDBRANCH   1  17
BRANCH   1  36
ATOM     35  N   UNL     1      52.128   8.745  10.753  0.00  0.00    +0.000 NA
ATOM     36  C   UNL     1      51.452   8.770  11.694  0.00  0.00    +0.000 C 
ENDBRANCH   1  36
TORSDOF 9
ENDMDL
MODEL 6
REMARK VINA RESULT:    -6.856      3.432      5.826
REMARK INTER + INTRA:         -11.244
REMARK INTER:                 -10.026
REMARK INTRA:                  -1.219
REMARK UNBOUND:                -0.982
REMARK  Name = 
REMARK  9 active torsions:
REMARK  status: ('A' for Active; 'I' for Inactive)
REMARK    1  A    between atoms: C_2  and  C_3
REMARK    2  A    between atoms: C_3  and  N_4
REMARK    3  A    between atoms: C_3  and  C_20
REMARK    4  A    between atoms: C_5  and  C_7
REMARK    5  A    between atoms: N_13  and  C_14
REMARK    6  A    between atoms: C_14  and  C_15
REMARK    7  A    between atoms: C_15  and  O_16
REMARK    8  A    between atoms: C_23  and  C_24
REMARK    9  A    between atoms: C_24  and  N_25
REMARK                            x       y       z     vdW  Elec       q    Type
REMARK                         _______ _______ _______ _____ _____    ______ ____
ROOT
ATOM      1  C   UNL     1      46.079   5.153  13.111  0.00  0.00    +0.000 C 
ENDROOT
BRANCH   1   2
ATOM      2  C   UNL     1      45.766   6.578  12.663  0.00  0.00    +0.000 A 
ATOM      3  C   UNL     1      46.450   7.659  13.244  0.00  0.00    +0.000 A 
ATOM      4  C   UNL     1      46.151   8.978  12.881  0.00  0.00    +0.000 A 
ATOM      5  C   UNL     1      45.143   9.250  11.948  0.00  0.00    +0.000 A 
ATOM      6  C   UNL     1      44.461   8.175  11.363  0.00  0.00    +0.000 A 
ATOM      7  C   UNL     1      44.764   6.858  11.719  0.00  0.00    +0.000 A 
BRANCH   5   8
ATOM      8  C   UNL     1      44.784  10.673  11.577  0.00  0.00    +0.000 C 
BRANCH   8   9
ATOM      9  N   UNL     1      43.866  10.676  10.445  0.00  0.00    +0.000 N 
ATOM     10  C   UNL     1      42.527  10.916  10.802  0.00  0.00    +0.000 A 
ATOM     11  C   UNL     1      41.560  10.893   9.796  0.00  0.00    +0.000 A 
ATOM     12  C   UNL     1      40.234  11.194  10.107  0.00  0.00    +0.000 A 
ATOM     13  C   UNL     1      39.901  11.516  11.413  0.00  0.00    +0.000 A 
ATOM     14  C   UNL     1      40.914  11.516  12.354  0.00  0.00    +0.000 A 
ATOM     15  N   UNL     1      42.205  11.226  12.074  0.00  0.00    +0.000 NA
ATOM     16  H   UNL     1      43.929   9.821   9.902  0.00  0.00    +0.000 HD
ENDBRANCH   8   9
ENDBRANCH   5   8
ENDBRANCH   1   2
BRANCH   1  17
ATOM     17  N   UNL     1      46.630   5.172  14.456  0.00  0.00    +0.000 N 
ATOM     18  C   UNL     1      47.341   4.130  14.979  0.00  0.00    +0.000 C 
ATOM     19  O   UNL     1      47.486   3.072  14.374  0.00  0.00    +0.000 OA
ATOM     20  H   UNL     1      46.656   6.074  14.919  0.00  0.00    +0.000 HD
BRANCH  18  21
ATOM     21  C   UNL     1      47.882   4.323  16.331  0.00  0.00    +0.000 A 
ATOM     22  C   UNL     1      47.461   3.498  17.364  0.00  0.00    +0.000 A 
ATOM     23  S   UNL     1      48.234   3.818  18.851  0.00  0.00    +0.000 S 
ATOM     24  C   UNL     1      49.166   5.062  18.160  0.00  0.00    +0.000 A 
ATOM     25  N   UNL     1      50.089   5.728  18.896  0.00  0.00    +0.000 NA
ATOM     26  C   UNL     1      50.743   6.637  18.249  0.00  0.00    +0.000 A 
ATOM     27  N   UNL     1      50.543   6.975  16.923  0.00  0.00    +0.000 N 
ATOM     28  C   UNL     1      49.558   6.355  16.161  0.00  0.00    +0.000 A 
ATOM     29  O   UNL     1      49.258   6.729  15.029  0.00  0.00    +0.000 OA
ATOM     30  C   UNL     1      48.856   5.272  16.830  0.00  0.00    +0.000 A 
BRANCH  27  31
ATOM     31  C   UNL     1      51.309   8.070  16.332  0.00  0.00    +0.000 C 
BRANCH  31  32
ATOM     32  C   UNL     1      52.764   7.688  16.051  0.00  0.00    +0.000 C 
BRANCH  32  33
ATOM     33  O   UNL     1      52.912   7.237  14.708  0.00  0.00    +0.000 OA
ATOM     34  H   UNL     1      52.954   6.265  14.725  0.00  0.00    +0.000 HD
ENDBRANCH  32  33
ENDBRANCH  31  32
ENDBRANCH  27  31
ENDBRANCH  18  21
ENDBRANCH   1  17
BRANCH   1  36
ATOM     35  N   UNL     1      43.950   3.581  13.085  0.00  0.00    +0.000 NA
ATOM     36  C   UNL     1      44.892   4.255  13.074  0.00  0.00    +0.000 C 
ENDBRANCH   1  36
TORSDOF 9
ENDMDL
MODEL 7
REMARK VINA RESULT:    -6.435      3.453      9.082
REMARK INTER + INTRA:         -10.615
REMARK INTER:                 -10.332
REMARK INTRA:                  -0.283
REMARK UNBOUND:                -0.982
REMARK  Name = 
REMARK  9 active torsions:
REMARK  status: ('A' for Active; 'I' for Inactive)
REMARK    1  A    between atoms: C_2  and  C_3
REMARK    2  A    between atoms: C_3  and  N_4
REMARK    3  A    between atoms: C_3  and  C_20
REMARK    4  A    between atoms: C_5  and  C_7
REMARK    5  A    between atoms: N_13  and  C_14
REMARK    6  A    between atoms: C_14  and  C_15
REMARK    7  A    between atoms: C_15  and  O_16
REMARK    8  A    between atoms: C_23  and  C_24
REMARK    9  A    between atoms: C_24  and  N_25
REMARK                            x       y       z     vdW  Elec       q    Type
REMARK                         _______ _______ _______ _____ _____    ______ ____
ROOT
ATOM      1  C   UNL     1      46.664   8.160  12.406  0.00  0.00    +0.000 C 
ENDROOT
BRANCH   1   2
ATOM      2  C   UNL     1      47.558   8.137  13.642  0.00  0.00    +0.000 A 
ATOM      3  C   UNL     1      48.026   6.911  14.143  0.00  0.00    +0.000 A 
ATOM      4  C   UNL     1      48.811   6.859  15.301  0.00  0.00    +0.000 A 
ATOM      5  C   UNL     1      49.127   8.030  16.001  0.00  0.00    +0.000 A 
ATOM      6  C   UNL     1      48.666   9.256  15.503  0.00  0.00    +0.000 A 
ATOM      7  C   UNL     1      47.888   9.308  14.344  0.00  0.00    +0.000 A 
BRANCH   5   8
ATOM      8  C   UNL     1      49.943   7.983  17.276  0.00  0.00    +0.000 C 
BRANCH   8   9
ATOM      9  N   UNL     1      49.064   8.098  18.433  0.00  0.00    +0.000 N 
ATOM     10  C   UNL     1      48.923   6.901  19.157  0.00  0.00    +0.000 A 
ATOM     11  C   UNL     1      48.065   6.891  20.259  0.00  0.00    +0.000 A 
ATOM     12  C   UNL     1      47.956   5.739  21.037  0.00  0.00    +0.000 A 
ATOM     13  C   UNL     1      48.708   4.623  20.705  0.00  0.00    +0.000 A 
ATOM     14  C   UNL     1      49.533   4.709  19.599  0.00  0.00    +0.000 A 
ATOM     15  N   UNL     1      49.653   5.815  18.830  0.00  0.00    +0.000 NA
ATOM     16  H   UNL     1      48.149   8.457  18.182  0.00  0.00    +0.000 HD
ENDBRANCH   8   9
ENDBRANCH   5   8
ENDBRANCH   1   2
BRANCH   1  17
ATOM     17  N   UNL     1      46.092   6.841  12.189  0.00  0.00    +0.000 N 
ATOM     18  C   UNL     1      45.095   6.606  11.287  0.00  0.00    +0.000 C 
ATOM     19  O   UNL     1      44.556   7.514  10.660  0.00  0.00    +0.000 OA
ATOM     20  H   UNL     1      46.608   6.058  12.576  0.00  0.00    +0.000 HD
BRANCH  18  21
ATOM     21  C   UNL     1      44.663   5.209  11.142  0.00  0.00    +0.000 A 
ATOM     22  C   UNL     1      43.878   4.627  12.128  0.00  0.00    +0.000 A 
ATOM     23  S   UNL     1      43.414   3.024  11.772  0.00  0.00    +0.000 S 
ATOM     24  C   UNL     1      44.237   3.059  10.283  0.00  0.00    +0.000 A 
ATOM     25  N   UNL     1      44.198   1.996   9.443  0.00  0.00    +0.000 NA
ATOM     26  C   UNL     1      44.848   2.157   8.337  0.00  0.00    +0.000 A 
ATOM     27  N   UNL     1      45.573   3.282   7.992  0.00  0.00    +0.000 N 
ATOM     28  C   UNL     1      45.688   4.363   8.862  0.00  0.00    +0.000 A 
ATOM     29  O   UNL     1      46.437   5.312   8.648  0.00  0.00    +0.000 OA
ATOM     30  C   UNL     1      44.904   4.252  10.082  0.00  0.00    +0.000 A 
BRANCH  27  31
ATOM     31  C   UNL     1      46.318   3.307   6.735  0.00  0.00    +0.000 C 
BRANCH  31  32
ATOM     32  C   UNL     1      47.366   2.194   6.649  0.00  0.00    +0.000 C 
BRANCH  32  33
ATOM     33  O   UNL     1      48.661   2.744   6.429  0.00  0.00    +0.000 OA
ATOM     34  H   UNL     1      48.643   3.213   5.576  0.00  0.00    +0.000 HD
ENDBRANCH  32  33
ENDBRANCH  31  32
ENDBRANCH  27  31
ENDBRANCH  18  21
ENDBRANCH   1  17
BRANCH   1  36
ATOM     35  N   UNL     1      44.746   9.980  12.534  0.00  0.00    +0.000 NA
ATOM     36  C   UNL     1      45.569   9.166  12.494  0.00  0.00    +0.000 C 
ENDBRANCH   1  36
TORSDOF 9
ENDMDL
MODEL 8
REMARK VINA RESULT:    -6.378      3.287      8.100
REMARK INTER + INTRA:         -10.529
REMARK INTER:                  -9.275
REMARK INTRA:                  -1.254
REMARK UNBOUND:                -0.982
REMARK  Name = 
REMARK  9 active torsions:
REMARK  status: ('A' for Active; 'I' for Inactive)
REMARK    1  A    between atoms: C_2  and  C_3
REMARK    2  A    between atoms: C_3  and  N_4
REMARK    3  A    between atoms: C_3  and  C_20
REMARK    4  A    between atoms: C_5  and  C_7
REMARK    5  A    between atoms: N_13  and  C_14
REMARK    6  A    between atoms: C_14  and  C_15
REMARK    7  A    between atoms: C_15  and  O_16
REMARK    8  A    between atoms: C_23  and  C_24
REMARK    9  A    between atoms: C_24  and  N_25
REMARK                            x       y       z     vdW  Elec       q    Type
REMARK                         _______ _______ _______ _____ _____    ______ ____
ROOT
ATOM      1  C   UNL     1      50.090   8.322  14.282  0.00  0.00    +0.000 C 
ENDROOT
BRANCH   1   2
ATOM      2  C   UNL     1      50.152   7.292  15.405  0.00  0.00    +0.000 A 
ATOM      3  C   UNL     1      51.387   6.972  15.993  0.00  0.00    +0.000 A 
ATOM      4  C   UNL     1      51.476   5.998  16.996  0.00  0.00    +0.000 A 
ATOM      5  C   UNL     1      50.336   5.302  17.416  0.00  0.00    +0.000 A 
ATOM      6  C   UNL     1      49.102   5.620  16.836  0.00  0.00    +0.000 A 
ATOM      7  C   UNL     1      49.012   6.596  15.841  0.00  0.00    +0.000 A 
BRANCH   5   8
ATOM      8  C   UNL     1      50.427   4.219  18.472  0.00  0.00    +0.000 C 
BRANCH   8   9
ATOM      9  N   UNL     1      50.566   2.916  17.835  0.00  0.00    +0.000 N 
ATOM     10  C   UNL     1      51.856   2.367  17.945  0.00  0.00    +0.000 A 
ATOM     11  C   UNL     1      52.108   1.140  17.329  0.00  0.00    +0.000 A 
ATOM     12  C   UNL     1      53.358   0.538  17.477  0.00  0.00    +0.000 A 
ATOM     13  C   UNL     1      54.327   1.169  18.240  0.00  0.00    +0.000 A 
ATOM     14  C   UNL     1      54.003   2.383  18.816  0.00  0.00    +0.000 A 
ATOM     15  N   UNL     1      52.799   2.984  18.685  0.00  0.00    +0.000 NA
ATOM     16  H   UNL     1      50.283   2.935  16.862  0.00  0.00    +0.000 HD
ENDBRANCH   8   9
ENDBRANCH   5   8
ENDBRANCH   1   2
BRANCH   1  17
ATOM     17  N   UNL     1      48.727   8.430  13.789  0.00  0.00    +0.000 N 
ATOM     18  C   UNL     1      48.367   8.066  12.523  0.00  0.00    +0.000 C 
ATOM     19  O   UNL     1      49.193   7.705  11.690  0.00  0.00    +0.000 OA
ATOM     20  H   UNL     1      48.006   8.582  14.486  0.00  0.00    +0.000 HD
BRANCH  18  21
ATOM     21  C   UNL     1      46.940   8.180  12.192  0.00  0.00    +0.000 A 
ATOM     22  C   UNL     1      46.387   9.432  11.958  0.00  0.00    +0.000 A 
ATOM     23  S   UNL     1      44.738   9.377  11.527  0.00  0.00    +0.000 S 
ATOM     24  C   UNL     1      44.711   7.679  11.627  0.00  0.00    +0.000 A 
ATOM     25  N   UNL     1      43.587   6.983  11.324  0.00  0.00    +0.000 NA
ATOM     26  C   UNL     1      43.705   5.699  11.423  0.00  0.00    +0.000 A 
ATOM     27  N   UNL     1      44.843   5.029  11.830  0.00  0.00    +0.000 N 
ATOM     28  C   UNL     1      45.990   5.718  12.212  0.00  0.00    +0.000 A 
ATOM     29  O   UNL     1      46.964   5.163  12.714  0.00  0.00    +0.000 OA
ATOM     30  C   UNL     1      45.924   7.160  12.038  0.00  0.00    +0.000 A 
BRANCH  27  31
ATOM     31  C   UNL     1      44.818   3.573  11.961  0.00  0.00    +0.000 C 
BRANCH  31  32
ATOM     32  C   UNL     1      43.857   2.908  10.973  0.00  0.00    +0.000 C 
BRANCH  32  33
ATOM     33  O   UNL     1      43.059   1.930  11.633  0.00  0.00    +0.000 OA
ATOM     34  H   UNL     1      42.271   1.772  11.085  0.00  0.00    +0.000 HD
ENDBRANCH  32  33
ENDBRANCH  31  32
ENDBRANCH  27  31
ENDBRANCH  18  21
ENDBRANCH   1  17
BRANCH   1  36
ATOM     35  N   UNL     1      50.995  10.707  14.992  0.00  0.00    +0.000 NA
ATOM     36  C   UNL     1      50.575   9.668  14.696  0.00  0.00    +0.000 C 
ENDBRANCH   1  36
TORSDOF 9
ENDMDL
MODEL 9
REMARK VINA RESULT:    -6.165      3.887      6.198
REMARK INTER + INTRA:         -10.211
REMARK INTER:                  -8.910
REMARK INTRA:                  -1.301
REMARK UNBOUND:                -0.982
REMARK  Name = 
REMARK  9 active torsions:
REMARK  status: ('A' for Active; 'I' for Inactive)
REMARK    1  A    between atoms: C_2  and  C_3
REMARK    2  A    between atoms: C_3  and  N_4
REMARK    3  A    between atoms: C_3  and  C_20
REMARK    4  A    between atoms: C_5  and  C_7
REMARK    5  A    between atoms: N_13  and  C_14
REMARK    6  A    between atoms: C_14  and  C_15
REMARK    7  A    between atoms: C_15  and  O_16
REMARK    8  A    between atoms: C_23  and  C_24
REMARK    9  A    between atoms: C_24  and  N_25
REMARK                            x       y       z     vdW  Elec       q    Type
REMARK                         _______ _______ _______ _____ _____    ______ ____
ROOT
ATOM      1  C   UNL     1      49.137   7.348  13.963  0.00  0.00    +0.000 C 
ENDROOT
BRANCH   1   2
ATOM      2  C   UNL     1      48.005   6.758  13.128  0.00  0.00    +0.000 A 
ATOM      3  C   UNL     1      47.725   7.287  11.856  0.00  0.00    +0.000 A 
ATOM      4  C   UNL     1      46.665   6.792  11.089  0.00  0.00    +0.000 A 
ATOM      5  C   UNL     1      45.840   5.774  11.583  0.00  0.00    +0.000 A 
ATOM      6  C   UNL     1      46.117   5.241  12.848  0.00  0.00    +0.000 A 
ATOM      7  C   UNL     1      47.180   5.730  13.612  0.00  0.00    +0.000 A 
BRANCH   5   8
ATOM      8  C   UNL     1      44.666   5.259  10.778  0.00  0.00    +0.000 C 
BRANCH   8   9
ATOM      9  N   UNL     1      44.789   3.819  10.586  0.00  0.00    +0.000 N 
ATOM     10  C   UNL     1      45.368   3.460   9.355  0.00  0.00    +0.000 A 
ATOM     11  C   UNL     1      45.490   2.104   9.051  0.00  0.00    +0.000 A 
ATOM     12  C   UNL     1      46.121   1.715   7.870  0.00  0.00    +0.000 A 
ATOM     13  C   UNL     1      46.621   2.687   7.018  0.00  0.00    +0.000 A 
ATOM     14  C   UNL     1      46.460   4.009   7.387  0.00  0.00    +0.000 A 
ATOM     15  N   UNL     1      45.852   4.408   8.527  0.00  0.00    +0.000 NA
ATOM     16  H   UNL     1      43.902   3.342  10.699  0.00  0.00    +0.000 HD
ENDBRANCH   8   9
ENDBRANCH   5   8
ENDBRANCH   1   2
BRANCH   1  17
ATOM     17  N   UNL     1      49.961   8.211  13.133  0.00  0.00    +0.000 N 
ATOM     18  C   UNL     1      51.266   8.491  13.424  0.00  0.00    +0.000 C 
ATOM     19  O   UNL     1      51.801   8.100  14.457  0.00  0.00    +0.000 OA
ATOM     20  H   UNL     1      49.601   8.426  12.210  0.00  0.00    +0.000 HD
BRANCH  18  21
ATOM     21  C   UNL     1      51.983   9.333  12.456  0.00  0.00    +0.000 A 
ATOM     22  C   UNL     1      52.397  10.605  12.827  0.00  0.00    +0.000 A 
ATOM     23  S   UNL     1      53.268  11.420  11.608  0.00  0.00    +0.000 S 
ATOM     24  C   UNL     1      53.131  10.095  10.549  0.00  0.00    +0.000 A 
ATOM     25  N   UNL     1      53.716  10.121   9.325  0.00  0.00    +0.000 NA
ATOM     26  C   UNL     1      53.553   9.046   8.627  0.00  0.00    +0.000 A 
ATOM     27  N   UNL     1      52.826   7.938   9.021  0.00  0.00    +0.000 N 
ATOM     28  C   UNL     1      52.160   7.908  10.242  0.00  0.00    +0.000 A 
ATOM     29  O   UNL     1      51.392   7.003  10.559  0.00  0.00    +0.000 OA
ATOM     30  C   UNL     1      52.385   9.067  11.091  0.00  0.00    +0.000 A 
BRANCH  27  31
ATOM     31  C   UNL     1      52.667   6.812   8.103  0.00  0.00    +0.000 C 
BRANCH  31  32
ATOM     32  C   UNL     1      53.784   5.775   8.242  0.00  0.00    +0.000 C 
BRANCH  32  33
ATOM     33  O   UNL     1      53.395   4.540   7.648  0.00  0.00    +0.000 OA
ATOM     34  H   UNL     1      54.157   4.198   7.148  0.00  0.00    +0.000 HD
ENDBRANCH  32  33
ENDBRANCH  31  32
ENDBRANCH  27  31
ENDBRANCH  18  21
ENDBRANCH   1  17
BRANCH   1  36
ATOM     35  N   UNL     1      48.321   8.695  16.091  0.00  0.00    +0.000 NA
ATOM     36  C   UNL     1      48.654   8.113  15.146  0.00  0.00    +0.000 C 
ENDBRANCH   1  36
TORSDOF 9
ENDMDL
