MODEL 1
REMARK VINA RESULT:    -6.566      0.000      0.000
REMARK INTER + INTRA:         -11.232
REMARK INTER:                  -9.637
REMARK INTRA:                  -1.595
REMARK UNBOUND:                -1.595
REMARK  Name = 
REMARK  10 active torsions:
REMARK  status: ('A' for Active; 'I' for Inactive)
REMARK    1  A    between atoms: C_1  and  C_2
REMARK    2  A    between atoms: C_2  and  C_3
REMARK    3  A    between atoms: C_2  and  C_27
REMARK    4  A    between atoms: C_3  and  N_4
REMARK    5  A    between atoms: C_6  and  O_7
REMARK    6  A    between atoms: C_8  and  C_9
REMARK    7  A    between atoms: C_9  and  O_10
REMARK    8  A    between atoms: N_11  and  C_12
REMARK    9  A    between atoms: C_12  and  C_13
REMARK   10  A    between atoms: C_16  and  C_17
REMARK                            x       y       z     vdW  Elec       q    Type
REMARK                         _______ _______ _______ _____ _____    ______ ____
ROOT
ATOM      1  N   UNL     1      45.009   6.381  11.416  0.00  0.00    +0.000 NA
ATOM      2  C   UNL     1      43.649   5.842  11.205  0.00  0.00    +0.000 C 
ATOM      3  C   UNL     1      43.110   5.003  12.375  0.00  0.00    +0.000 C 
ATOM      4  C   UNL     1      44.172   3.952  12.785  0.00  0.00    +0.000 C 
ATOM      5  N   UNL     1      45.445   4.676  13.065  0.00  0.00    +0.000 NA
ATOM      6  C   UNL     1      45.930   5.342  11.853  0.00  0.00    +0.000 C 
ENDROOT
BRANCH   3   7
ATOM      7  O   UNL     1      42.805   5.817  13.516  0.00  0.00    +0.000 OA
ATOM      8  H   UNL     1      43.633   6.307  13.709  0.00  0.00    +0.000 HD
ENDBRANCH   3   7
BRANCH   1   9
ATOM      9  C   UNL     1      44.995   7.607  12.241  0.00  0.00    +0.000 C 
BRANCH   9  11
ATOM     10  C   UNL     1      45.286  10.151  12.058  0.00  0.00    +0.000 C 
ATOM     11  C   UNL     1      45.892   8.777  11.777  0.00  0.00    +0.000 C 
BRANCH  11  12
ATOM     12  C   UNL     1      47.256   8.661  12.437  0.00  0.00    +0.000 A 
ATOM     13  C   UNL     1      48.309   8.040  11.769  0.00  0.00    +0.000 A 
ATOM     14  C   UNL     1      49.548   7.956  12.398  0.00  0.00    +0.000 A 
ATOM     15  C   UNL     1      49.703   8.483  13.673  0.00  0.00    +0.000 A 
ATOM     16  C   UNL     1      48.603   9.073  14.273  0.00  0.00    +0.000 A 
ATOM     17  N   UNL     1      47.392   9.176  13.685  0.00  0.00    +0.000 NA
ENDBRANCH  11  12
ENDBRANCH   9  11
ENDBRANCH   1   9
BRANCH   4  18
ATOM     18  C   UNL     1      44.227   2.771  11.797  0.00  0.00    +0.000 C 
BRANCH  18  19
ATOM     19  O   UNL     1      42.946   2.157  11.684  0.00  0.00    +0.000 OA
ATOM     20  H   UNL     1      42.655   2.248  10.757  0.00  0.00    +0.000 HD
ENDBRANCH  18  19
ENDBRANCH   4  18
BRANCH   5  21
ATOM     21  C   UNL     1      46.513   3.822  13.621  0.00  0.00    +0.000 C 
BRANCH  21  22
ATOM     22  C   UNL     1      47.115   4.301  14.929  0.00  0.00    +0.000 A 
ATOM     23  C   UNL     1      46.910   3.644  16.151  0.00  0.00    +0.000 A 
ATOM     24  C   UNL     1      47.550   4.061  17.315  0.00  0.00    +0.000 A 
ATOM     25  C   UNL     1      48.350   5.201  17.305  0.00  0.00    +0.000 A 
ATOM     26  C   UNL     1      48.555   5.873  16.095  0.00  0.00    +0.000 A 
ATOM     27  C   UNL     1      47.917   5.449  14.927  0.00  0.00    +0.000 A 
BRANCH  25  28
ATOM     28  C   UNL     1      48.972   5.608  18.596  0.00  0.00    +0.000 C 
ATOM     29  O   UNL     1      48.456   6.553  19.195  0.00  0.00    +0.000 OA
ATOM     30  N   UNL     1      50.118   4.969  19.045  0.00  0.00    +0.000 N 
ATOM     31  C   UNL     1      50.741   5.322  20.226  0.00  0.00    +0.000 C 
ATOM     32  C   UNL     1      51.912   4.697  20.312  0.00  0.00    +0.000 C 
ATOM     33  N   UNL     1      52.114   3.883  19.225  0.00  0.00    +0.000 N 
ATOM     34  C   UNL     1      50.972   4.020  18.317  0.00  0.00    +0.000 C 
ATOM     35  H   UNL     1      53.026   3.989  18.788  0.00  0.00    +0.000 HD
ENDBRANCH  25  28
ENDBRANCH  21  22
ENDBRANCH   5  21
TORSDOF 9
ENDMDL
MODEL 2
REMARK VINA RESULT:    -6.430      2.406      8.177
REMARK INTER + INTRA:         -11.033
REMARK INTER:                  -9.231
REMARK INTRA:                  -1.802
REMARK UNBOUND:                -1.595
REMARK  Name = 
REMARK  10 active torsions:
REMARK  status: ('A' for Active; 'I' for Inactive)
REMARK    1  A    between atoms: C_1  and  C_2
REMARK    2  A    between atoms: C_2  and  C_3
REMARK    3  A    between atoms: C_2  and  C_27
REMARK    4  A    between atoms: C_3  and  N_4
REMARK    5  A    between atoms: C_6  and  O_7
REMARK    6  A    between atoms: C_8  and  C_9
REMARK    7  A    between atoms: C_9  and  O_10
REMARK    8  A    between atoms: N_11  and  C_12
REMARK    9  A    between atoms: C_12  and  C_13
REMARK   10  A    between atoms: C_16  and  C_17
REMARK                            x       y       z     vdW  Elec       q    Type
REMARK                         _______ _______ _______ _____ _____    ______ ____
ROOT
ATOM      1  N   UNL     1      50.629   8.156  18.333  0.00  0.00    +0.000 NA
ATOM      2  C   UNL     1      49.629   9.184  18.693  0.00  0.00    +0.000 C 
ATOM      3  C   UNL     1      48.375   9.188  17.806  0.00  0.00    +0.000 C 
ATOM      4  C   UNL     1      48.799   9.186  16.315  0.00  0.00    +0.000 C 
ATOM      5  N   UNL     1      49.714   8.027  16.104  0.00  0.00    +0.000 NA
ATOM      6  C   UNL     1      50.929   8.184  16.909  0.00  0.00    +0.000 C 
ENDROOT
BRANCH   3   7
ATOM      7  O   UNL     1      47.548   8.041  18.050  0.00  0.00    +0.000 OA
ATOM      8  H   UNL     1      46.998   7.946  17.243  0.00  0.00    +0.000 HD
ENDBRANCH   3   7
BRANCH   1   9
ATOM      9  C   UNL     1      50.279   6.830  18.883  0.00  0.00    +0.000 C 
BRANCH   9  11
ATOM     10  C   UNL     1      51.827   4.782  18.933  0.00  0.00    +0.000 C 
ATOM     11  C   UNL     1      50.814   5.592  18.126  0.00  0.00    +0.000 C 
BRANCH  11  12
ATOM     12  C   UNL     1      49.647   4.710  17.713  0.00  0.00    +0.000 A 
ATOM     13  C   UNL     1      49.862   3.376  17.374  0.00  0.00    +0.000 A 
ATOM     14  C   UNL     1      48.772   2.591  17.008  0.00  0.00    +0.000 A 
ATOM     15  C   UNL     1      47.504   3.157  16.980  0.00  0.00    +0.000 A 
ATOM     16  C   UNL     1      47.377   4.493  17.319  0.00  0.00    +0.000 A 
ATOM     17  N   UNL     1      48.415   5.275  17.687  0.00  0.00    +0.000 NA
ENDBRANCH  11  12
ENDBRANCH   9  11
ENDBRANCH   1   9
BRANCH   4  18
ATOM     18  C   UNL     1      49.287  10.571  15.851  0.00  0.00    +0.000 C 
BRANCH  18  19
ATOM     19  O   UNL     1      48.573  10.985  14.689  0.00  0.00    +0.000 OA
ATOM     20  H   UNL     1      48.598  10.250  14.049  0.00  0.00    +0.000 HD
ENDBRANCH  18  19
ENDBRANCH   4  18
BRANCH   5  21
ATOM     21  C   UNL     1      50.082   7.799  14.694  0.00  0.00    +0.000 C 
BRANCH  21  22
ATOM     22  C   UNL     1      48.957   7.318  13.797  0.00  0.00    +0.000 A 
ATOM     23  C   UNL     1      48.610   7.955  12.597  0.00  0.00    +0.000 A 
ATOM     24  C   UNL     1      47.630   7.435  11.755  0.00  0.00    +0.000 A 
ATOM     25  C   UNL     1      46.910   6.303  12.133  0.00  0.00    +0.000 A 
ATOM     26  C   UNL     1      47.238   5.663  13.333  0.00  0.00    +0.000 A 
ATOM     27  C   UNL     1      48.227   6.184  14.173  0.00  0.00    +0.000 A 
BRANCH  25  28
ATOM     28  C   UNL     1      45.853   5.826  11.200  0.00  0.00    +0.000 C 
ATOM     29  O   UNL     1      46.149   5.748  10.007  0.00  0.00    +0.000 OA
ATOM     30  N   UNL     1      44.581   5.547  11.678  0.00  0.00    +0.000 N 
ATOM     31  C   UNL     1      43.562   5.119  10.849  0.00  0.00    +0.000 C 
ATOM     32  C   UNL     1      42.415   5.121  11.522  0.00  0.00    +0.000 C 
ATOM     33  N   UNL     1      42.610   5.515  12.822  0.00  0.00    +0.000 N 
ATOM     34  C   UNL     1      44.027   5.839  13.008  0.00  0.00    +0.000 C 
ATOM     35  H   UNL     1      41.960   6.228  13.144  0.00  0.00    +0.000 HD
ENDBRANCH  25  28
ENDBRANCH  21  22
ENDBRANCH   5  21
TORSDOF 9
ENDMDL
MODEL 3
REMARK VINA RESULT:    -6.423      1.317      1.847
REMARK INTER + INTRA:         -11.023
REMARK INTER:                  -9.399
REMARK INTRA:                  -1.624
REMARK UNBOUND:                -1.595
REMARK  Name = 
REMARK  10 active torsions:
REMARK  status: ('A' for Active; 'I' for Inactive)
REMARK    1  A    between atoms: C_1  and  C_2
REMARK    2  A    between atoms: C_2  and  C_3
REMARK    3  A    between atoms: C_2  and  C_27
REMARK    4  A    between atoms: C_3  and  N_4
REMARK    5  A    between atoms: C_6  and  O_7
REMARK    6  A    between atoms: C_8  and  C_9
REMARK    7  A    between atoms: C_9  and  O_10
REMARK    8  A    between atoms: N_11  and  C_12
REMARK    9  A    between atoms: C_12  and  C_13
REMARK   10  A    between atoms: C_16  and  C_17
REMARK                            x       y       z     vdW  Elec       q    Type
REMARK                         _______ _______ _______ _____ _____    ______ ____
ROOT
ATOM      1  N   UNL     1      45.060   6.441  11.417  0.00  0.00    +0.000 NA
ATOM      2  C   UNL     1      43.704   5.904  11.175  0.00  0.00    +0.000 C 
ATOM      3  C   UNL     1      43.151   5.037  12.317  0.00  0.00    +0.000 C 
ATOM      4  C   UNL     1      44.210   3.979  12.717  0.00  0.00    +0.000 C 
ATOM      5  N   UNL     1      45.477   4.699  13.032  0.00  0.00    +0.000 NA
ATOM      6  C   UNL     1      45.977   5.394  11.843  0.00  0.00    +0.000 C 
ENDROOT
BRANCH   3   7
ATOM      7  O   UNL     1      42.828   5.824  13.472  0.00  0.00    +0.000 OA
ATOM      8  H   UNL     1      43.592   6.428  13.592  0.00  0.00    +0.000 HD
ENDBRANCH   3   7
BRANCH   1   9
ATOM      9  C   UNL     1      45.031   7.647  12.270  0.00  0.00    +0.000 C 
BRANCH   9  11
ATOM     10  C   UNL     1      45.241  10.203  12.134  0.00  0.00    +0.000 C 
ATOM     11  C   UNL     1      45.882   8.854  11.810  0.00  0.00    +0.000 C 
BRANCH  11  12
ATOM     12  C   UNL     1      47.263   8.766  12.436  0.00  0.00    +0.000 A 
ATOM     13  C   UNL     1      48.292   8.099  11.775  0.00  0.00    +0.000 A 
ATOM     14  C   UNL     1      49.550   8.042  12.371  0.00  0.00    +0.000 A 
ATOM     15  C   UNL     1      49.744   8.640  13.609  0.00  0.00    +0.000 A 
ATOM     16  C   UNL     1      48.667   9.272  14.205  0.00  0.00    +0.000 A 
ATOM     17  N   UNL     1      47.440   9.351  13.647  0.00  0.00    +0.000 NA
ENDBRANCH  11  12
ENDBRANCH   9  11
ENDBRANCH   1   9
BRANCH   4  18
ATOM     18  C   UNL     1      44.282   2.821  11.703  0.00  0.00    +0.000 C 
BRANCH  18  19
ATOM     19  O   UNL     1      43.064   2.080  11.709  0.00  0.00    +0.000 OA
ATOM     20  H   UNL     1      42.921   1.740  10.806  0.00  0.00    +0.000 HD
ENDBRANCH  18  19
ENDBRANCH   4  18
BRANCH   5  21
ATOM     21  C   UNL     1      46.540   3.835  13.583  0.00  0.00    +0.000 C 
BRANCH  21  22
ATOM     22  C   UNL     1      47.205   4.346  14.847  0.00  0.00    +0.000 A 
ATOM     23  C   UNL     1      47.181   3.645  16.061  0.00  0.00    +0.000 A 
ATOM     24  C   UNL     1      47.877   4.101  17.177  0.00  0.00    +0.000 A 
ATOM     25  C   UNL     1      48.550   5.320  17.133  0.00  0.00    +0.000 A 
ATOM     26  C   UNL     1      48.573   6.037  15.932  0.00  0.00    +0.000 A 
ATOM     27  C   UNL     1      47.879   5.573  14.811  0.00  0.00    +0.000 A 
BRANCH  25  28
ATOM     28  C   UNL     1      49.240   5.762  18.376  0.00  0.00    +0.000 C 
ATOM     29  O   UNL     1      50.213   5.102  18.744  0.00  0.00    +0.000 OA
ATOM     30  N   UNL     1      48.747   6.838  19.098  0.00  0.00    +0.000 N 
ATOM     31  C   UNL     1      49.341   7.274  20.266  0.00  0.00    +0.000 C 
ATOM     32  C   UNL     1      48.558   8.177  20.850  0.00  0.00    +0.000 C 
ATOM     33  N   UNL     1      47.433   8.410  20.099  0.00  0.00    +0.000 N 
ATOM     34  C   UNL     1      47.468   7.541  18.920  0.00  0.00    +0.000 C 
ATOM     35  H   UNL     1      46.565   8.383  20.628  0.00  0.00    +0.000 HD
ENDBRANCH  25  28
ENDBRANCH  21  22
ENDBRANCH   5  21
TORSDOF 9
ENDMDL
MODEL 4
REMARK VINA RESULT:    -6.041      2.356      8.060
REMARK INTER + INTRA:         -10.462
REMARK INTER:                  -9.543
REMARK INTRA:                  -0.919
REMARK UNBOUND:                -1.595
REMARK  Name = 
REMARK  10 active torsions:
REMARK  status: ('A' for Active; 'I' for Inactive)
REMARK    1  A    between atoms: C_1  and  C_2
REMARK    2  A    between atoms: C_2  and  C_3
REMARK    3  A    between atoms: C_2  and  C_27
REMARK    4  A    between atoms: C_3  and  N_4
REMARK    5  A    between atoms: C_6  and  O_7
REMARK    6  A    between atoms: C_8  and  C_9
REMARK    7  A    between atoms: C_9  and  O_10
REMARK    8  A    between atoms: N_11  and  C_12
REMARK    9  A    between atoms: C_12  and  C_13
REMARK   10  A    between atoms: C_16  and  C_17
REMARK                            x       y       z     vdW  Elec       q    Type
REMARK                         _______ _______ _______ _____ _____    ______ ____
ROOT
ATOM      1  N   UNL     1      49.994   6.760  15.797  0.00  0.00    +0.000 NA
ATOM      2  C   UNL     1      51.340   7.226  16.196  0.00  0.00    +0.000 C 
ATOM      3  C   UNL     1      51.597   8.719  15.941  0.00  0.00    +0.000 C 
ATOM      4  C   UNL     1      51.190   9.070  14.488  0.00  0.00    +0.000 C 
ATOM      5  N   UNL     1      49.778   8.633  14.292  0.00  0.00    +0.000 NA
ATOM      6  C   UNL     1      49.668   7.179  14.442  0.00  0.00    +0.000 C 
ENDROOT
BRANCH   3   7
ATOM      7  O   UNL     1      50.847   9.548  16.841  0.00  0.00    +0.000 OA
ATOM      8  H   UNL     1      50.671  10.373  16.341  0.00  0.00    +0.000 HD
ENDBRANCH   3   7
BRANCH   1   9
ATOM      9  C   UNL     1      48.976   7.073  16.821  0.00  0.00    +0.000 C 
BRANCH   9  11
ATOM     10  C   UNL     1      47.618   6.318  18.866  0.00  0.00    +0.000 C 
ATOM     11  C   UNL     1      48.886   6.121  18.036  0.00  0.00    +0.000 C 
BRANCH  11  12
ATOM     12  C   UNL     1      48.980   4.682  17.557  0.00  0.00    +0.000 A 
ATOM     13  C   UNL     1      47.912   4.097  16.879  0.00  0.00    +0.000 A 
ATOM     14  C   UNL     1      48.030   2.779  16.446  0.00  0.00    +0.000 A 
ATOM     15  C   UNL     1      49.201   2.079  16.706  0.00  0.00    +0.000 A 
ATOM     16  C   UNL     1      50.210   2.729  17.396  0.00  0.00    +0.000 A 
ATOM     17  N   UNL     1      50.127   4.008  17.820  0.00  0.00    +0.000 NA
ENDBRANCH  11  12
ENDBRANCH   9  11
ENDBRANCH   1   9
BRANCH   4  18
ATOM     18  C   UNL     1      52.233   8.586  13.463  0.00  0.00    +0.000 C 
BRANCH  18  19
ATOM     19  O   UNL     1      53.552   8.861  13.928  0.00  0.00    +0.000 OA
ATOM     20  H   UNL     1      53.971   9.467  13.289  0.00  0.00    +0.000 HD
ENDBRANCH  18  19
ENDBRANCH   4  18
BRANCH   5  21
ATOM     21  C   UNL     1      49.194   9.042  13.000  0.00  0.00    +0.000 C 
BRANCH  21  22
ATOM     22  C   UNL     1      47.927   8.311  12.596  0.00  0.00    +0.000 A 
ATOM     23  C   UNL     1      47.905   7.296  11.629  0.00  0.00    +0.000 A 
ATOM     24  C   UNL     1      46.740   6.586  11.348  0.00  0.00    +0.000 A 
ATOM     25  C   UNL     1      45.542   6.931  11.969  0.00  0.00    +0.000 A 
ATOM     26  C   UNL     1      45.547   7.950  12.928  0.00  0.00    +0.000 A 
ATOM     27  C   UNL     1      46.719   8.656  13.214  0.00  0.00    +0.000 A 
BRANCH  25  28
ATOM     28  C   UNL     1      44.330   6.153  11.591  0.00  0.00    +0.000 C 
ATOM     29  O   UNL     1      43.355   6.791  11.190  0.00  0.00    +0.000 OA
ATOM     30  N   UNL     1      44.312   4.777  11.753  0.00  0.00    +0.000 N 
ATOM     31  C   UNL     1      43.206   4.013  11.434  0.00  0.00    +0.000 C 
ATOM     32  C   UNL     1      43.385   2.770  11.872  0.00  0.00    +0.000 C 
ATOM     33  N   UNL     1      44.614   2.633  12.469  0.00  0.00    +0.000 N 
ATOM     34  C   UNL     1      45.292   3.932  12.452  0.00  0.00    +0.000 C 
ATOM     35  H   UNL     1      44.588   2.173  13.376  0.00  0.00    +0.000 HD
ENDBRANCH  25  28
ENDBRANCH  21  22
ENDBRANCH   5  21
TORSDOF 9
ENDMDL
MODEL 5
REMARK VINA RESULT:    -5.794      2.543      8.425
REMARK INTER + INTRA:         -10.099
REMARK INTER:                  -8.715
REMARK INTRA:                  -1.384
REMARK UNBOUND:                -1.595
REMARK  Name = 
REMARK  10 active torsions:
REMARK  status: ('A' for Active; 'I' for Inactive)
REMARK    1  A    between atoms: C_1  and  C_2
REMARK    2  A    between atoms: C_2  and  C_3
REMARK    3  A    between atoms: C_2  and  C_27
REMARK    4  A    between atoms: C_3  and  N_4
REMARK    5  A    between atoms: C_6  and  O_7
REMARK    6  A    between atoms: C_8  and  C_9
REMARK    7  A    between atoms: C_9  and  O_10
REMARK    8  A    between atoms: N_11  and  C_12
REMARK    9  A    between atoms: C_12  and  C_13
REMARK   10  A    between atoms: C_16  and  C_17
REMARK                            x       y       z     vdW  Elec       q    Type
REMARK                         _______ _______ _______ _____ _____    ______ ____
ROOT
ATOM      1  N   UNL     1      51.974   7.510  17.123  0.00  0.00    +0.000 NA
ATOM      2  C   UNL     1      52.019   8.890  17.651  0.00  0.00    +0.000 C 
ATOM      3  C   UNL     1      50.859   9.785  17.188  0.00  0.00    +0.000 C 
ATOM      4  C   UNL     1      50.713   9.680  15.649  0.00  0.00    +0.000 C 
ATOM      5  N   UNL     1      50.570   8.237  15.302  0.00  0.00    +0.000 NA
ATOM      6  C   UNL     1      51.778   7.500  15.681  0.00  0.00    +0.000 C 
ENDROOT
BRANCH   3   7
ATOM      7  O   UNL     1      49.617   9.401  17.795  0.00  0.00    +0.000 OA
ATOM      8  H   UNL     1      49.511   8.450  17.581  0.00  0.00    +0.000 HD
ENDBRANCH   3   7
BRANCH   1   9
ATOM      9  C   UNL     1      51.052   6.653  17.897  0.00  0.00    +0.000 C 
BRANCH   9  11
ATOM     10  C   UNL     1      51.927   4.365  18.668  0.00  0.00    +0.000 C 
ATOM     11  C   UNL     1      51.113   5.131  17.626  0.00  0.00    +0.000 C 
BRANCH  11  12
ATOM     12  C   UNL     1      49.701   4.575  17.551  0.00  0.00    +0.000 A 
ATOM     13  C   UNL     1      48.633   5.299  18.075  0.00  0.00    +0.000 A 
ATOM     14  C   UNL     1      47.349   4.767  17.985  0.00  0.00    +0.000 A 
ATOM     15  C   UNL     1      47.167   3.528  17.385  0.00  0.00    +0.000 A 
ATOM     16  C   UNL     1      48.282   2.866  16.901  0.00  0.00    +0.000 A 
ATOM     17  N   UNL     1      49.537   3.362  16.967  0.00  0.00    +0.000 NA
ENDBRANCH  11  12
ENDBRANCH   9  11
ENDBRANCH   1   9
BRANCH   4  18
ATOM     18  C   UNL     1      51.797  10.486  14.909  0.00  0.00    +0.000 C 
BRANCH  18  19
ATOM     19  O   UNL     1      52.311  11.516  15.749  0.00  0.00    +0.000 OA
ATOM     20  H   UNL     1      51.612  12.188  15.855  0.00  0.00    +0.000 HD
ENDBRANCH  18  19
ENDBRANCH   4  18
BRANCH   5  21
ATOM     21  C   UNL     1      50.263   7.986  13.880  0.00  0.00    +0.000 C 
BRANCH  21  22
ATOM     22  C   UNL     1      49.048   7.117  13.619  0.00  0.00    +0.000 A 
ATOM     23  C   UNL     1      48.481   6.282  14.593  0.00  0.00    +0.000 A 
ATOM     24  C   UNL     1      47.313   5.566  14.344  0.00  0.00    +0.000 A 
ATOM     25  C   UNL     1      46.725   5.600  13.082  0.00  0.00    +0.000 A 
ATOM     26  C   UNL     1      47.287   6.420  12.097  0.00  0.00    +0.000 A 
ATOM     27  C   UNL     1      48.455   7.143  12.351  0.00  0.00    +0.000 A 
BRANCH  25  28
ATOM     28  C   UNL     1      45.500   4.779  12.879  0.00  0.00    +0.000 C 
ATOM     29  O   UNL     1      45.590   3.570  13.098  0.00  0.00    +0.000 OA
ATOM     30  N   UNL     1      44.339   5.372  12.406  0.00  0.00    +0.000 N 
ATOM     31  C   UNL     1      43.182   4.649  12.185  0.00  0.00    +0.000 C 
ATOM     32  C   UNL     1      42.299   5.414  11.549  0.00  0.00    +0.000 C 
ATOM     33  N   UNL     1      42.800   6.675  11.343  0.00  0.00    +0.000 N 
ATOM     34  C   UNL     1      44.167   6.729  11.867  0.00  0.00    +0.000 C 
ATOM     35  H   UNL     1      42.690   7.018  10.392  0.00  0.00    +0.000 HD
ENDBRANCH  25  28
ENDBRANCH  21  22
ENDBRANCH   5  21
TORSDOF 9
ENDMDL
MODEL 6
REMARK VINA RESULT:    -5.720      3.537      5.740
REMARK INTER + INTRA:          -9.990
REMARK INTER:                  -9.320
REMARK INTRA:                  -0.671
REMARK UNBOUND:                -1.595
REMARK  Name = 
REMARK  10 active torsions:
REMARK  status: ('A' for Active; 'I' for Inactive)
REMARK    1  A    between atoms: C_1  and  C_2
REMARK    2  A    between atoms: C_2  and  C_3
REMARK    3  A    between atoms: C_2  and  C_27
REMARK    4  A    between atoms: C_3  and  N_4
REMARK    5  A    between atoms: C_6  and  O_7
REMARK    6  A    between atoms: C_8  and  C_9
REMARK    7  A    between atoms: C_9  and  O_10
REMARK    8  A    between atoms: N_11  and  C_12
REMARK    9  A    between atoms: C_12  and  C_13
REMARK   10  A    between atoms: C_16  and  C_17
REMARK                            x       y       z     vdW  Elec       q    Type
REMARK                         _______ _______ _______ _____ _____    ______ ____
ROOT
ATOM      1  N   UNL     1      44.150   3.466  10.333  0.00  0.00    +0.000 NA
ATOM      2  C   UNL     1      43.340   4.703  10.351  0.00  0.00    +0.000 C 
ATOM      3  C   UNL     1      44.002   5.885  11.076  0.00  0.00    +0.000 C 
ATOM      4  C   UNL     1      44.509   5.418  12.464  0.00  0.00    +0.000 C 
ATOM      5  N   UNL     1      45.394   4.236  12.251  0.00  0.00    +0.000 NA
ATOM      6  C   UNL     1      44.634   3.129  11.664  0.00  0.00    +0.000 C 
ENDROOT
BRANCH   3   7
ATOM      7  O   UNL     1      45.112   6.409  10.333  0.00  0.00    +0.000 OA
ATOM      8  H   UNL     1      45.115   5.908   9.490  0.00  0.00    +0.000 HD
ENDBRANCH   3   7
BRANCH   1   9
ATOM      9  C   UNL     1      45.178   3.495   9.271  0.00  0.00    +0.000 C 
BRANCH   9  11
ATOM     10  C   UNL     1      44.735   1.029   8.711  0.00  0.00    +0.000 C 
ATOM     11  C   UNL     1      45.778   2.138   8.838  0.00  0.00    +0.000 C 
BRANCH  11  12
ATOM     12  C   UNL     1      46.522   2.312   7.524  0.00  0.00    +0.000 A 
ATOM     13  C   UNL     1      46.123   3.291   6.616  0.00  0.00    +0.000 A 
ATOM     14  C   UNL     1      46.829   3.431   5.424  0.00  0.00    +0.000 A 
ATOM     15  C   UNL     1      47.903   2.590   5.165  0.00  0.00    +0.000 A 
ATOM     16  C   UNL     1      48.227   1.634   6.114  0.00  0.00    +0.000 A 
ATOM     17  N   UNL     1      47.566   1.482   7.281  0.00  0.00    +0.000 NA
ENDBRANCH  11  12
ENDBRANCH   9  11
ENDBRANCH   1   9
BRANCH   4  18
ATOM     18  C   UNL     1      43.361   5.273  13.480  0.00  0.00    +0.000 C 
BRANCH  18  19
ATOM     19  O   UNL     1      42.155   5.814  12.947  0.00  0.00    +0.000 OA
ATOM     20  H   UNL     1      41.934   5.309  12.143  0.00  0.00    +0.000 HD
ENDBRANCH  18  19
ENDBRANCH   4  18
BRANCH   5  21
ATOM     21  C   UNL     1      46.082   3.771  13.471  0.00  0.00    +0.000 C 
BRANCH  21  22
ATOM     22  C   UNL     1      47.082   4.744  14.067  0.00  0.00    +0.000 A 
ATOM     23  C   UNL     1      47.734   5.728  13.311  0.00  0.00    +0.000 A 
ATOM     24  C   UNL     1      48.579   6.661  13.908  0.00  0.00    +0.000 A 
ATOM     25  C   UNL     1      48.860   6.581  15.270  0.00  0.00    +0.000 A 
ATOM     26  C   UNL     1      48.224   5.597  16.035  0.00  0.00    +0.000 A 
ATOM     27  C   UNL     1      47.372   4.667  15.434  0.00  0.00    +0.000 A 
BRANCH  25  28
ATOM     28  C   UNL     1      49.801   7.590  15.831  0.00  0.00    +0.000 C 
ATOM     29  O   UNL     1      50.975   7.244  15.975  0.00  0.00    +0.000 OA
ATOM     30  N   UNL     1      49.331   8.834  16.222  0.00  0.00    +0.000 N 
ATOM     31  C   UNL     1      50.161   9.796  16.764  0.00  0.00    +0.000 C 
ATOM     32  C   UNL     1      49.426  10.802  17.230  0.00  0.00    +0.000 C 
ATOM     33  N   UNL     1      48.091  10.582  17.000  0.00  0.00    +0.000 N 
ATOM     34  C   UNL     1      47.935   9.279  16.347  0.00  0.00    +0.000 C 
ATOM     35  H   UNL     1      47.497  10.731  17.812  0.00  0.00    +0.000 HD
ENDBRANCH  25  28
ENDBRANCH  21  22
ENDBRANCH   5  21
TORSDOF 9
ENDMDL
MODEL 7
REMARK VINA RESULT:    -5.621      2.258      8.549
REMARK INTER + INTRA:          -9.845
REMARK INTER:                  -8.934
REMARK INTRA:                  -0.910
REMARK UNBOUND:                -1.595
REMARK  Name = 
REMARK  10 active torsions:
REMARK  status: ('A' for Active; 'I' for Inactive)
REMARK    1  A    between atoms: C_1  and  C_2
REMARK    2  A    between atoms: C_2  and  C_3
REMARK    3  A    between atoms: C_2  and  C_27
REMARK    4  A    between atoms: C_3  and  N_4
REMARK    5  A    between atoms: C_6  and  O_7
REMARK    6  A    between atoms: C_8  and  C_9
REMARK    7  A    between atoms: C_9  and  O_10
REMARK    8  A    between atoms: N_11  and  C_12
REMARK    9  A    between atoms: C_12  and  C_13
REMARK   10  A    between atoms: C_16  and  C_17
REMARK                            x       y       z     vdW  Elec       q    Type
REMARK                         _______ _______ _______ _____ _____    ______ ____
ROOT
ATOM      1  N   UNL     1      51.378   6.979  19.394  0.00  0.00    +0.000 NA
ATOM      2  C   UNL     1      50.253   7.364  20.273  0.00  0.00    +0.000 C 
ATOM      3  C   UNL     1      48.866   6.978  19.736  0.00  0.00    +0.000 C 
ATOM      4  C   UNL     1      48.735   7.450  18.266  0.00  0.00    +0.000 C 
ATOM      5  N   UNL     1      49.884   6.884  17.502  0.00  0.00    +0.000 NA
ATOM      6  C   UNL     1      51.150   7.410  18.022  0.00  0.00    +0.000 C 
ENDROOT
BRANCH   3   7
ATOM      7  O   UNL     1      48.654   5.559  19.785  0.00  0.00    +0.000 OA
ATOM      8  H   UNL     1      47.743   5.450  20.132  0.00  0.00    +0.000 HD
ENDBRANCH   3   7
BRANCH   1   9
ATOM      9  C   UNL     1      51.749   5.559  19.561  0.00  0.00    +0.000 C 
BRANCH   9  11
ATOM     10  C   UNL     1      54.138   4.831  18.968  0.00  0.00    +0.000 C 
ATOM     11  C   UNL     1      52.689   4.948  18.497  0.00  0.00    +0.000 C 
BRANCH  11  12
ATOM     12  C   UNL     1      52.163   3.585  18.081  0.00  0.00    +0.000 A 
ATOM     13  C   UNL     1      52.975   2.458  18.182  0.00  0.00    +0.000 A 
ATOM     14  C   UNL     1      52.461   1.221  17.800  0.00  0.00    +0.000 A 
ATOM     15  C   UNL     1      51.160   1.143  17.321  0.00  0.00    +0.000 A 
ATOM     16  C   UNL     1      50.423   2.311  17.240  0.00  0.00    +0.000 A 
ATOM     17  N   UNL     1      50.892   3.522  17.612  0.00  0.00    +0.000 NA
ENDBRANCH  11  12
ENDBRANCH   9  11
ENDBRANCH   1   9
BRANCH   4  18
ATOM     18  C   UNL     1      48.491   8.967  18.165  0.00  0.00    +0.000 C 
BRANCH  18  19
ATOM     19  O   UNL     1      47.530   9.250  17.151  0.00  0.00    +0.000 OA
ATOM     20  H   UNL     1      47.539   8.506  16.520  0.00  0.00    +0.000 HD
ENDBRANCH  18  19
ENDBRANCH   4  18
BRANCH   5  21
ATOM     21  C   UNL     1      49.813   7.117  16.046  0.00  0.00    +0.000 C 
BRANCH  21  22
ATOM     22  C   UNL     1      48.724   6.355  15.316  0.00  0.00    +0.000 A 
ATOM     23  C   UNL     1      48.311   6.670  14.014  0.00  0.00    +0.000 A 
ATOM     24  C   UNL     1      47.370   5.893  13.343  0.00  0.00    +0.000 A 
ATOM     25  C   UNL     1      46.753   4.825  13.990  0.00  0.00    +0.000 A 
ATOM     26  C   UNL     1      47.147   4.506  15.294  0.00  0.00    +0.000 A 
ATOM     27  C   UNL     1      48.096   5.283  15.963  0.00  0.00    +0.000 A 
BRANCH  25  28
ATOM     28  C   UNL     1      45.730   4.063  13.222  0.00  0.00    +0.000 C 
ATOM     29  O   UNL     1      46.003   2.899  12.923  0.00  0.00    +0.000 OA
ATOM     30  N   UNL     1      44.556   4.684  12.824  0.00  0.00    +0.000 N 
ATOM     31  C   UNL     1      43.585   4.025  12.095  0.00  0.00    +0.000 C 
ATOM     32  C   UNL     1      42.673   4.900  11.681  0.00  0.00    +0.000 C 
ATOM     33  N   UNL     1      42.966   6.164  12.129  0.00  0.00    +0.000 N 
ATOM     34  C   UNL     1      44.221   6.115  12.886  0.00  0.00    +0.000 C 
ATOM     35  H   UNL     1      42.925   6.882  11.411  0.00  0.00    +0.000 HD
ENDBRANCH  25  28
ENDBRANCH  21  22
ENDBRANCH   5  21
TORSDOF 9
ENDMDL
MODEL 8
REMARK VINA RESULT:    -5.310      2.664      7.424
REMARK INTER + INTRA:          -9.388
REMARK INTER:                  -7.534
REMARK INTRA:                  -1.854
REMARK UNBOUND:                -1.595
REMARK  Name = 
REMARK  10 active torsions:
REMARK  status: ('A' for Active; 'I' for Inactive)
REMARK    1  A    between atoms: C_1  and  C_2
REMARK    2  A    between atoms: C_2  and  C_3
REMARK    3  A    between atoms: C_2  and  C_27
REMARK    4  A    between atoms: C_3  and  N_4
REMARK    5  A    between atoms: C_6  and  O_7
REMARK    6  A    between atoms: C_8  and  C_9
REMARK    7  A    between atoms: C_9  and  O_10
REMARK    8  A    between atoms: N_11  and  C_12
REMARK    9  A    between atoms: C_12  and  C_13
REMARK   10  A    between atoms: C_16  and  C_17
REMARK                            x       y       z     vdW  Elec       q    Type
REMARK                         _______ _______ _______ _____ _____    ______ ____
ROOT
ATOM      1  N   UNL     1      52.136   9.101  17.042  0.00  0.00    +0.000 NA
ATOM      2  C   UNL     1      53.361   8.286  16.897  0.00  0.00    +0.000 C 
ATOM      3  C   UNL     1      53.135   6.910  16.253  0.00  0.00    +0.000 C 
ATOM      4  C   UNL     1      51.958   6.196  16.964  0.00  0.00    +0.000 C 
ATOM      5  N   UNL     1      50.780   7.110  16.922  0.00  0.00    +0.000 NA
ATOM      6  C   UNL     1      51.063   8.340  17.666  0.00  0.00    +0.000 C 
ENDROOT
BRANCH   3   7
ATOM      7  O   UNL     1      52.829   7.021  14.855  0.00  0.00    +0.000 OA
ATOM      8  H   UNL     1      52.032   6.465  14.724  0.00  0.00    +0.000 HD
ENDBRANCH   3   7
BRANCH   1   9
ATOM      9  C   UNL     1      51.779   9.789  15.784  0.00  0.00    +0.000 C 
BRANCH   9  11
ATOM     10  C   UNL     1      49.885  11.516  15.629  0.00  0.00    +0.000 C 
ATOM     11  C   UNL     1      50.276  10.042  15.523  0.00  0.00    +0.000 C 
BRANCH  11  12
ATOM     12  C   UNL     1      49.903   9.498  14.154  0.00  0.00    +0.000 A 
ATOM     13  C   UNL     1      48.683   9.838  13.573  0.00  0.00    +0.000 A 
ATOM     14  C   UNL     1      48.373   9.330  12.314  0.00  0.00    +0.000 A 
ATOM     15  C   UNL     1      49.278   8.494  11.675  0.00  0.00    +0.000 A 
ATOM     16  C   UNL     1      50.463   8.195  12.326  0.00  0.00    +0.000 A 
ATOM     17  N   UNL     1      50.794   8.679  13.542  0.00  0.00    +0.000 NA
ENDBRANCH  11  12
ENDBRANCH   9  11
ENDBRANCH   1   9
BRANCH   4  18
ATOM     18  C   UNL     1      52.369   5.628  18.335  0.00  0.00    +0.000 C 
BRANCH  18  19
ATOM     19  O   UNL     1      52.084   4.232  18.400  0.00  0.00    +0.000 OA
ATOM     20  H   UNL     1      52.653   3.783  17.747  0.00  0.00    +0.000 HD
ENDBRANCH  18  19
ENDBRANCH   4  18
BRANCH   5  21
ATOM     21  C   UNL     1      49.530   6.506  17.424  0.00  0.00    +0.000 C 
BRANCH  21  22
ATOM     22  C   UNL     1      48.644   5.870  16.370  0.00  0.00    +0.000 A 
ATOM     23  C   UNL     1      47.907   4.699  16.596  0.00  0.00    +0.000 A 
ATOM     24  C   UNL     1      47.036   4.193  15.634  0.00  0.00    +0.000 A 
ATOM     25  C   UNL     1      46.942   4.800  14.384  0.00  0.00    +0.000 A 
ATOM     26  C   UNL     1      47.681   5.963  14.141  0.00  0.00    +0.000 A 
ATOM     27  C   UNL     1      48.549   6.473  15.110  0.00  0.00    +0.000 A 
BRANCH  25  28
ATOM     28  C   UNL     1      46.018   4.182  13.394  0.00  0.00    +0.000 C 
ATOM     29  O   UNL     1      46.228   3.007  13.086  0.00  0.00    +0.000 OA
ATOM     30  N   UNL     1      45.011   4.941  12.817  0.00  0.00    +0.000 N 
ATOM     31  C   UNL     1      44.140   4.417  11.881  0.00  0.00    +0.000 C 
ATOM     32  C   UNL     1      43.417   5.400  11.352  0.00  0.00    +0.000 C 
ATOM     33  N   UNL     1      43.740   6.607  11.920  0.00  0.00    +0.000 N 
ATOM     34  C   UNL     1      44.812   6.395  12.896  0.00  0.00    +0.000 C 
ATOM     35  H   UNL     1      43.911   7.352  11.249  0.00  0.00    +0.000 HD
ENDBRANCH  25  28
ENDBRANCH  21  22
ENDBRANCH   5  21
TORSDOF 9
ENDMDL
MODEL 9
REMARK VINA RESULT:    -5.278      3.289      7.886
REMARK INTER + INTRA:          -9.342
REMARK INTER:                  -8.341
REMARK INTRA:                  -1.001
REMARK UNBOUND:                -1.595
REMARK  Name = 
REMARK  10 active torsions:
REMARK  status: ('A' for Active; 'I' for Inactive)
REMARK    1  A    between atoms: C_1  and  C_2
REMARK    2  A    between atoms: C_2  and  C_3
REMARK    3  A    between atoms: C_2  and  C_27
REMARK    4  A    between atoms: C_3  and  N_4
REMARK    5  A    between atoms: C_6  and  O_7
REMARK    6  A    between atoms: C_8  and  C_9
REMARK    7  A    between atoms: C_9  and  O_10
REMARK    8  A    between atoms: N_11  and  C_12
REMARK    9  A    between atoms: C_12  and  C_13
REMARK   10  A    between atoms: C_16  and  C_17
REMARK                            x       y       z     vdW  Elec       q    Type
REMARK                         _______ _______ _______ _____ _____    ______ ____
ROOT
ATOM      1  N   UNL     1      52.246   9.322  14.720  0.00  0.00    +0.000 NA
ATOM      2  C   UNL     1      51.758   8.795  16.013  0.00  0.00    +0.000 C 
ATOM      3  C   UNL     1      50.489   7.936  15.911  0.00  0.00    +0.000 C 
ATOM      4  C   UNL     1      49.426   8.688  15.071  0.00  0.00    +0.000 C 
ATOM      5  N   UNL     1      50.048   9.046  13.764  0.00  0.00    +0.000 NA
ATOM      6  C   UNL     1      51.174   9.961  13.970  0.00  0.00    +0.000 C 
ENDROOT
BRANCH   3   7
ATOM      7  O   UNL     1      50.753   6.669  15.291  0.00  0.00    +0.000 OA
ATOM      8  H   UNL     1      51.000   6.071  16.028  0.00  0.00    +0.000 HD
ENDBRANCH   3   7
BRANCH   1   9
ATOM      9  C   UNL     1      53.030   8.315  13.975  0.00  0.00    +0.000 C 
BRANCH   9  11
ATOM     10  C   UNL     1      55.352   8.835  13.010  0.00  0.00    +0.000 C 
ATOM     11  C   UNL     1      53.845   8.817  12.760  0.00  0.00    +0.000 C 
BRANCH  11  12
ATOM     12  C   UNL     1      53.524   7.958  11.548  0.00  0.00    +0.000 A 
ATOM     13  C   UNL     1      52.231   7.930  11.030  0.00  0.00    +0.000 A 
ATOM     14  C   UNL     1      51.971   7.140   9.914  0.00  0.00    +0.000 A 
ATOM     15  C   UNL     1      52.998   6.394   9.352  0.00  0.00    +0.000 A 
ATOM     16  C   UNL     1      54.252   6.468   9.935  0.00  0.00    +0.000 A 
ATOM     17  N   UNL     1      54.536   7.232  11.011  0.00  0.00    +0.000 NA
ENDBRANCH  11  12
ENDBRANCH   9  11
ENDBRANCH   1   9
BRANCH   4  18
ATOM     18  C   UNL     1      48.750   9.818  15.871  0.00  0.00    +0.000 C 
BRANCH  18  19
ATOM     19  O   UNL     1      47.460   9.407  16.317  0.00  0.00    +0.000 OA
ATOM     20  H   UNL     1      47.303   8.506  15.979  0.00  0.00    +0.000 HD
ENDBRANCH  18  19
ENDBRANCH   4  18
BRANCH   5  21
ATOM     21  C   UNL     1      49.107   9.632  12.789  0.00  0.00    +0.000 C 
BRANCH  21  22
ATOM     22  C   UNL     1      47.899   8.778  12.454  0.00  0.00    +0.000 A 
ATOM     23  C   UNL     1      47.990   7.566  11.754  0.00  0.00    +0.000 A 
ATOM     24  C   UNL     1      46.871   6.765  11.542  0.00  0.00    +0.000 A 
ATOM     25  C   UNL     1      45.612   7.196  11.953  0.00  0.00    +0.000 A 
ATOM     26  C   UNL     1      45.505   8.409  12.643  0.00  0.00    +0.000 A 
ATOM     27  C   UNL     1      46.630   9.208  12.861  0.00  0.00    +0.000 A 
BRANCH  25  28
ATOM     28  C   UNL     1      44.457   6.304  11.659  0.00  0.00    +0.000 C 
ATOM     29  O   UNL     1      43.429   6.836  11.237  0.00  0.00    +0.000 OA
ATOM     30  N   UNL     1      44.548   4.945  11.917  0.00  0.00    +0.000 N 
ATOM     31  C   UNL     1      43.498   4.079  11.678  0.00  0.00    +0.000 C 
ATOM     32  C   UNL     1      43.780   2.888  12.198  0.00  0.00    +0.000 C 
ATOM     33  N   UNL     1      45.026   2.886  12.774  0.00  0.00    +0.000 N 
ATOM     34  C   UNL     1      45.602   4.228  12.650  0.00  0.00    +0.000 C 
ATOM     35  H   UNL     1      45.052   2.492  13.711  0.00  0.00    +0.000 HD
ENDBRANCH  25  28
ENDBRANCH  21  22
ENDBRANCH   5  21
TORSDOF 9
ENDMDL
