MODEL 1
REMARK VINA RESULT:    -8.396      0.000      0.000
REMARK INTER + INTRA:         -12.610
REMARK INTER:                 -12.077
REMARK INTRA:                  -0.533
REMARK UNBOUND:                -0.533
REMARK  Name = 
REMARK  9 active torsions:
REMARK  status: ('A' for Active; 'I' for Inactive)
REMARK    1  A    between atoms: C_1  and  C_2
REMARK    2  A    between atoms: C_2  and  O_3
REMARK    3  A    between atoms: O_3  and  C_4
REMARK    4  A    between atoms: C_8  and  C_9
REMARK    5  A    between atoms: C_9  and  C_10
REMARK    6  A    between atoms: C_10  and  N_11
REMARK    7  A    between atoms: N_11  and  C_12
REMARK    8  A    between atoms: C_15  and  C_16
REMARK    9  A    between atoms: C_23  and  O_24
REMARK                            x       y       z     vdW  Elec       q    Type
REMARK                         _______ _______ _______ _____ _____    ______ ____
ROOT
ATOM      1  C   UNL     1      43.706   5.105  12.597  0.00  0.00    +0.000 C 
ENDROOT
BRANCH   1   6
ATOM      2  C   UNL     1      47.259   5.038  14.098  0.00  0.00    +0.000 A 
ATOM      3  C   UNL     1      47.873   6.032  13.346  0.00  0.00    +0.000 A 
ATOM      4  C   UNL     1      47.128   6.763  12.420  0.00  0.00    +0.000 A 
ATOM      5  C   UNL     1      45.777   6.478  12.212  0.00  0.00    +0.000 A 
ATOM      6  C   UNL     1      45.153   5.443  12.918  0.00  0.00    +0.000 A 
ATOM      7  C   UNL     1      45.911   4.747  13.877  0.00  0.00    +0.000 A 
BRANCH   2   8
ATOM      8  O   UNL     1      47.850   4.270  15.071  0.00  0.00    +0.000 OA
BRANCH   8  10
ATOM      9  C   UNL     1      48.603   6.251  16.285  0.00  0.00    +0.000 C 
ATOM     10  C   UNL     1      48.125   4.805  16.391  0.00  0.00    +0.000 C 
ATOM     11  C   UNL     1      47.126   4.460  17.540  0.00  0.00    +0.000 C 
ATOM     12  C   UNL     1      47.989   3.228  17.866  0.00  0.00    +0.000 C 
ATOM     13  C   UNL     1      49.167   3.944  17.181  0.00  0.00    +0.000 C 
BRANCH  12  14
ATOM     14  O   UNL     1      48.146   2.908  19.260  0.00  0.00    +0.000 OA
ATOM     15  H   UNL     1      48.552   2.025  19.287  0.00  0.00    +0.000 HD
ENDBRANCH  12  14
ENDBRANCH   8  10
ENDBRANCH   2   8
ENDBRANCH   1   6
BRANCH   1  16
ATOM     16  C   UNL     1      43.549   4.059  11.490  0.00  0.00    +0.000 C 
BRANCH  16  17
ATOM     17  N   UNL     1      43.726   4.610  10.143  0.00  0.00    +0.000 N 
ATOM     18  H   UNL     1      43.996   5.593  10.163  0.00  0.00    +0.000 HD
BRANCH  17  19
ATOM     19  C   UNL     1      44.588   3.863   9.311  0.00  0.00    +0.000 A 
ATOM     20  C   UNL     1      45.494   4.459   8.423  0.00  0.00    +0.000 A 
ATOM     21  C   UNL     1      46.368   3.686   7.664  0.00  0.00    +0.000 A 
ATOM     22  C   UNL     1      46.343   2.312   7.839  0.00  0.00    +0.000 A 
ATOM     23  N   UNL     1      45.519   1.675   8.714  0.00  0.00    +0.000 NA
ATOM     24  C   UNL     1      44.685   2.473   9.432  0.00  0.00    +0.000 A 
BRANCH  22  25
ATOM     25  C   UNL     1      47.286   1.462   7.045  0.00  0.00    +0.000 C 
ATOM     26  N   UNL     1      48.409   2.095   6.597  0.00  0.00    +0.000 N 
ATOM     27  O   UNL     1      47.073   0.276   6.808  0.00  0.00    +0.000 OA
ATOM     28  H   UNL     1      48.538   3.082   6.791  0.00  0.00    +0.000 HD
ATOM     29  H   UNL     1      49.076   1.593   6.030  0.00  0.00    +0.000 HD
ENDBRANCH  22  25
ENDBRANCH  17  19
ENDBRANCH  16  17
ENDBRANCH   1  16
TORSDOF 8
ENDMDL
MODEL 2
REMARK VINA RESULT:    -7.371      1.730      2.051
REMARK INTER + INTRA:         -11.136
REMARK INTER:                 -10.193
REMARK INTRA:                  -0.943
REMARK UNBOUND:                -0.533
REMARK  Name = 
REMARK  9 active torsions:
REMARK  status: ('A' for Active; 'I' for Inactive)
REMARK    1  A    between atoms: C_1  and  C_2
REMARK    2  A    between atoms: C_2  and  O_3
REMARK    3  A    between atoms: O_3  and  C_4
REMARK    4  A    between atoms: C_8  and  C_9
REMARK    5  A    between atoms: C_9  and  C_10
REMARK    6  A    between atoms: C_10  and  N_11
REMARK    7  A    between atoms: N_11  and  C_12
REMARK    8  A    between atoms: C_15  and  C_16
REMARK    9  A    between atoms: C_23  and  O_24
REMARK                            x       y       z     vdW  Elec       q    Type
REMARK                         _______ _______ _______ _____ _____    ______ ____
ROOT
ATOM      1  C   UNL     1      45.296   4.761  12.327  0.00  0.00    +0.000 C 
ENDROOT
BRANCH   1   6
ATOM      2  C   UNL     1      48.396   6.648  13.635  0.00  0.00    +0.000 A 
ATOM      3  C   UNL     1      48.302   7.829  12.910  0.00  0.00    +0.000 A 
ATOM      4  C   UNL     1      47.210   8.041  12.066  0.00  0.00    +0.000 A 
ATOM      5  C   UNL     1      46.230   7.059  11.913  0.00  0.00    +0.000 A 
ATOM      6  C   UNL     1      46.336   5.838  12.591  0.00  0.00    +0.000 A 
ATOM      7  C   UNL     1      47.421   5.662  13.468  0.00  0.00    +0.000 A 
BRANCH   2   8
ATOM      8  O   UNL     1      49.384   6.319  14.531  0.00  0.00    +0.000 OA
BRANCH   8  10
ATOM      9  C   UNL     1      51.022   8.029  15.127  0.00  0.00    +0.000 C 
ATOM     10  C   UNL     1      49.794   7.241  15.573  0.00  0.00    +0.000 C 
ATOM     11  C   UNL     1      48.678   8.021  16.338  0.00  0.00    +0.000 C 
ATOM     12  C   UNL     1      48.643   6.879  17.369  0.00  0.00    +0.000 C 
ATOM     13  C   UNL     1      50.075   6.520  16.934  0.00  0.00    +0.000 C 
BRANCH  12  14
ATOM     14  O   UNL     1      48.460   7.265  18.743  0.00  0.00    +0.000 OA
ATOM     15  H   UNL     1      49.309   7.096  19.184  0.00  0.00    +0.000 HD
ENDBRANCH  12  14
ENDBRANCH   8  10
ENDBRANCH   2   8
ENDBRANCH   1   6
BRANCH   1  16
ATOM     16  C   UNL     1      44.206   5.186  11.340  0.00  0.00    +0.000 C 
BRANCH  16  17
ATOM     17  N   UNL     1      43.663   4.070  10.561  0.00  0.00    +0.000 N 
ATOM     18  H   UNL     1      42.758   4.296  10.146  0.00  0.00    +0.000 HD
BRANCH  17  19
ATOM     19  C   UNL     1      44.546   3.541   9.594  0.00  0.00    +0.000 A 
ATOM     20  C   UNL     1      45.269   4.344   8.703  0.00  0.00    +0.000 A 
ATOM     21  C   UNL     1      46.174   3.784   7.806  0.00  0.00    +0.000 A 
ATOM     22  C   UNL     1      46.369   2.414   7.845  0.00  0.00    +0.000 A 
ATOM     23  N   UNL     1      45.731   1.584   8.715  0.00  0.00    +0.000 NA
ATOM     24  C   UNL     1      44.857   2.177   9.570  0.00  0.00    +0.000 A 
BRANCH  22  25
ATOM     25  C   UNL     1      47.350   1.792   6.901  0.00  0.00    +0.000 C 
ATOM     26  N   UNL     1      48.380   2.599   6.512  0.00  0.00    +0.000 N 
ATOM     27  O   UNL     1      47.246   0.636   6.499  0.00  0.00    +0.000 OA
ATOM     28  H   UNL     1      48.419   3.555   6.845  0.00  0.00    +0.000 HD
ATOM     29  H   UNL     1      49.064   2.257   5.853  0.00  0.00    +0.000 HD
ENDBRANCH  22  25
ENDBRANCH  17  19
ENDBRANCH  16  17
ENDBRANCH   1  16
TORSDOF 8
ENDMDL
MODEL 3
REMARK VINA RESULT:    -7.341      2.885      7.758
REMARK INTER + INTRA:         -11.092
REMARK INTER:                 -10.214
REMARK INTRA:                  -0.878
REMARK UNBOUND:                -0.533
REMARK  Name = 
REMARK  9 active torsions:
REMARK  status: ('A' for Active; 'I' for Inactive)
REMARK    1  A    between atoms: C_1  and  C_2
REMARK    2  A    between atoms: C_2  and  O_3
REMARK    3  A    between atoms: O_3  and  C_4
REMARK    4  A    between atoms: C_8  and  C_9
REMARK    5  A    between atoms: C_9  and  C_10
REMARK    6  A    between atoms: C_10  and  N_11
REMARK    7  A    between atoms: N_11  and  C_12
REMARK    8  A    between atoms: C_15  and  C_16
REMARK    9  A    between atoms: C_23  and  O_24
REMARK                            x       y       z     vdW  Elec       q    Type
REMARK                         _______ _______ _______ _____ _____    ______ ____
ROOT
ATOM      1  C   UNL     1      45.198   7.593  11.674  0.00  0.00    +0.000 C 
ENDROOT
BRANCH   1   6
ATOM      2  C   UNL     1      44.696   3.882  10.752  0.00  0.00    +0.000 A 
ATOM      3  C   UNL     1      43.422   3.662  11.260  0.00  0.00    +0.000 A 
ATOM      4  C   UNL     1      42.707   4.719  11.825  0.00  0.00    +0.000 A 
ATOM      5  C   UNL     1      43.277   5.990  11.921  0.00  0.00    +0.000 A 
ATOM      6  C   UNL     1      44.582   6.220  11.467  0.00  0.00    +0.000 A 
ATOM      7  C   UNL     1      45.268   5.151  10.864  0.00  0.00    +0.000 A 
BRANCH   2   8
ATOM      8  O   UNL     1      45.497   2.953  10.133  0.00  0.00    +0.000 OA
BRANCH   8  10
ATOM      9  C   UNL     1      44.415   1.258   8.748  0.00  0.00    +0.000 C 
ATOM     10  C   UNL     1      45.250   2.535   8.766  0.00  0.00    +0.000 C 
ATOM     11  C   UNL     1      44.899   3.638   7.718  0.00  0.00    +0.000 C 
ATOM     12  C   UNL     1      46.401   3.760   7.404  0.00  0.00    +0.000 C 
ATOM     13  C   UNL     1      46.572   2.333   7.954  0.00  0.00    +0.000 C 
BRANCH  12  14
ATOM     14  O   UNL     1      46.750   3.970   6.024  0.00  0.00    +0.000 OA
ATOM     15  H   UNL     1      46.012   4.466   5.634  0.00  0.00    +0.000 HD
ENDBRANCH  12  14
ENDBRANCH   8  10
ENDBRANCH   2   8
ENDBRANCH   1   6
BRANCH   1  16
ATOM     16  C   UNL     1      46.146   7.670  12.873  0.00  0.00    +0.000 C 
BRANCH  16  17
ATOM     17  N   UNL     1      47.282   6.750  12.773  0.00  0.00    +0.000 N 
ATOM     18  H   UNL     1      48.154   7.237  12.562  0.00  0.00    +0.000 HD
BRANCH  17  19
ATOM     19  C   UNL     1      47.439   5.885  13.878  0.00  0.00    +0.000 A 
ATOM     20  C   UNL     1      48.131   6.252  15.040  0.00  0.00    +0.000 A 
ATOM     21  C   UNL     1      48.211   5.389  16.129  0.00  0.00    +0.000 A 
ATOM     22  C   UNL     1      47.554   4.173  16.048  0.00  0.00    +0.000 A 
ATOM     23  N   UNL     1      46.830   3.775  14.966  0.00  0.00    +0.000 NA
ATOM     24  C   UNL     1      46.782   4.650  13.929  0.00  0.00    +0.000 A 
BRANCH  22  25
ATOM     25  C   UNL     1      47.612   3.236  17.214  0.00  0.00    +0.000 C 
ATOM     26  N   UNL     1      48.846   3.075  17.775  0.00  0.00    +0.000 N 
ATOM     27  O   UNL     1      46.624   2.647  17.645  0.00  0.00    +0.000 OA
ATOM     28  H   UNL     1      49.643   3.558  17.375  0.00  0.00    +0.000 HD
ATOM     29  H   UNL     1      48.968   2.435  18.546  0.00  0.00    +0.000 HD
ENDBRANCH  22  25
ENDBRANCH  17  19
ENDBRANCH  16  17
ENDBRANCH   1  16
TORSDOF 8
ENDMDL
MODEL 4
REMARK VINA RESULT:    -7.182      2.776      4.168
REMARK INTER + INTRA:         -10.865
REMARK INTER:                  -9.671
REMARK INTRA:                  -1.194
REMARK UNBOUND:                -0.533
REMARK  Name = 
REMARK  9 active torsions:
REMARK  status: ('A' for Active; 'I' for Inactive)
REMARK    1  A    between atoms: C_1  and  C_2
REMARK    2  A    between atoms: C_2  and  O_3
REMARK    3  A    between atoms: O_3  and  C_4
REMARK    4  A    between atoms: C_8  and  C_9
REMARK    5  A    between atoms: C_9  and  C_10
REMARK    6  A    between atoms: C_10  and  N_11
REMARK    7  A    between atoms: N_11  and  C_12
REMARK    8  A    between atoms: C_15  and  C_16
REMARK    9  A    between atoms: C_23  and  O_24
REMARK                            x       y       z     vdW  Elec       q    Type
REMARK                         _______ _______ _______ _____ _____    ______ ____
ROOT
ATOM      1  C   UNL     1      47.787   8.154  12.522  0.00  0.00    +0.000 C 
ENDROOT
BRANCH   1   6
ATOM      2  C   UNL     1      49.156   6.768  15.851  0.00  0.00    +0.000 A 
ATOM      3  C   UNL     1      49.119   7.911  16.639  0.00  0.00    +0.000 A 
ATOM      4  C   UNL     1      48.588   9.094  16.122  0.00  0.00    +0.000 A 
ATOM      5  C   UNL     1      48.130   9.151  14.805  0.00  0.00    +0.000 A 
ATOM      6  C   UNL     1      48.211   8.025  13.976  0.00  0.00    +0.000 A 
ATOM      7  C   UNL     1      48.710   6.833  14.529  0.00  0.00    +0.000 A 
BRANCH   2   8
ATOM      8  O   UNL     1      49.607   5.529  16.236  0.00  0.00    +0.000 OA
BRANCH   8  10
ATOM      9  C   UNL     1      50.162   5.155  18.584  0.00  0.00    +0.000 C 
ATOM     10  C   UNL     1      49.153   4.909  17.466  0.00  0.00    +0.000 C 
ATOM     11  C   UNL     1      47.638   5.026  17.826  0.00  0.00    +0.000 C 
ATOM     12  C   UNL     1      47.399   3.703  17.077  0.00  0.00    +0.000 C 
ATOM     13  C   UNL     1      48.887   3.376  17.300  0.00  0.00    +0.000 C 
BRANCH  12  14
ATOM     14  O   UNL     1      46.442   2.802  17.662  0.00  0.00    +0.000 OA
ATOM     15  H   UNL     1      46.646   2.774  18.611  0.00  0.00    +0.000 HD
ENDBRANCH  12  14
ENDBRANCH   8  10
ENDBRANCH   2   8
ENDBRANCH   1   6
BRANCH   1  16
ATOM     16  C   UNL     1      46.341   8.625  12.342  0.00  0.00    +0.000 C 
BRANCH  16  17
ATOM     17  N   UNL     1      45.380   7.868  13.149  0.00  0.00    +0.000 N 
ATOM     18  H   UNL     1      44.535   8.406  13.344  0.00  0.00    +0.000 HD
BRANCH  17  19
ATOM     19  C   UNL     1      45.062   6.590  12.640  0.00  0.00    +0.000 A 
ATOM     20  C   UNL     1      45.443   5.400  13.273  0.00  0.00    +0.000 A 
ATOM     21  C   UNL     1      45.057   4.162  12.768  0.00  0.00    +0.000 A 
ATOM     22  C   UNL     1      44.252   4.140  11.642  0.00  0.00    +0.000 A 
ATOM     23  N   UNL     1      43.812   5.259  11.004  0.00  0.00    +0.000 NA
ATOM     24  C   UNL     1      44.215   6.443  11.535  0.00  0.00    +0.000 A 
BRANCH  22  25
ATOM     25  C   UNL     1      43.811   2.820  11.090  0.00  0.00    +0.000 C 
ATOM     26  N   UNL     1      44.526   2.366  10.019  0.00  0.00    +0.000 N 
ATOM     27  O   UNL     1      42.872   2.183  11.559  0.00  0.00    +0.000 OA
ATOM     28  H   UNL     1      45.278   2.932   9.643  0.00  0.00    +0.000 HD
ATOM     29  H   UNL     1      44.266   1.497   9.575  0.00  0.00    +0.000 HD
ENDBRANCH  22  25
ENDBRANCH  17  19
ENDBRANCH  16  17
ENDBRANCH   1  16
TORSDOF 8
ENDMDL
MODEL 5
REMARK VINA RESULT:    -6.733      4.258      7.970
REMARK INTER + INTRA:         -10.218
REMARK INTER:                  -9.464
REMARK INTRA:                  -0.755
REMARK UNBOUND:                -0.533
REMARK  Name = 
REMARK  9 active torsions:
REMARK  status: ('A' for Active; 'I' for Inactive)
REMARK    1  A    between atoms: C_1  and  C_2
REMARK    2  A    between atoms: C_2  and  O_3
REMARK    3  A    between atoms: O_3  and  C_4
REMARK    4  A    between atoms: C_8  and  C_9
REMARK    5  A    between atoms: C_9  and  C_10
REMARK    6  A    between atoms: C_10  and  N_11
REMARK    7  A    between atoms: N_11  and  C_12
REMARK    8  A    between atoms: C_15  and  C_16
REMARK    9  A    between atoms: C_23  and  O_24
REMARK                            x       y       z     vdW  Elec       q    Type
REMARK                         _______ _______ _______ _____ _____    ______ ____
ROOT
ATOM      1  C   UNL     1      48.239   5.901  15.369  0.00  0.00    +0.000 C 
ENDROOT
BRANCH   1   6
ATOM      2  C   UNL     1      46.305   6.341  12.060  0.00  0.00    +0.000 A 
ATOM      3  C   UNL     1      47.215   7.096  11.330  0.00  0.00    +0.000 A 
ATOM      4  C   UNL     1      48.465   7.393  11.874  0.00  0.00    +0.000 A 
ATOM      5  C   UNL     1      48.797   6.973  13.164  0.00  0.00    +0.000 A 
ATOM      6  C   UNL     1      47.873   6.261  13.938  0.00  0.00    +0.000 A 
ATOM      7  C   UNL     1      46.635   5.936  13.356  0.00  0.00    +0.000 A 
BRANCH   2   8
ATOM      8  O   UNL     1      45.061   5.937  11.641  0.00  0.00    +0.000 OA
BRANCH   8  10
ATOM      9  C   UNL     1      45.204   4.751   9.512  0.00  0.00    +0.000 C 
ATOM     10  C   UNL     1      44.863   4.653  10.996  0.00  0.00    +0.000 C 
ATOM     11  C   UNL     1      45.330   3.374  11.759  0.00  0.00    +0.000 C 
ATOM     12  C   UNL     1      43.923   3.276  12.374  0.00  0.00    +0.000 C 
ATOM     13  C   UNL     1      43.409   4.107  11.185  0.00  0.00    +0.000 C 
BRANCH  12  14
ATOM     14  O   UNL     1      43.381   1.951  12.523  0.00  0.00    +0.000 OA
ATOM     15  H   UNL     1      42.975   1.926  13.405  0.00  0.00    +0.000 HD
ENDBRANCH  12  14
ENDBRANCH   8  10
ENDBRANCH   2   8
ENDBRANCH   1   6
BRANCH   1  16
ATOM     16  C   UNL     1      47.533   4.646  15.889  0.00  0.00    +0.000 C 
BRANCH  16  17
ATOM     17  N   UNL     1      47.952   4.263  17.240  0.00  0.00    +0.000 N 
ATOM     18  H   UNL     1      47.224   3.751  17.737  0.00  0.00    +0.000 HD
BRANCH  17  19
ATOM     19  C   UNL     1      49.186   3.578  17.301  0.00  0.00    +0.000 A 
ATOM     20  C   UNL     1      50.334   4.127  17.888  0.00  0.00    +0.000 A 
ATOM     21  C   UNL     1      51.513   3.394  17.979  0.00  0.00    +0.000 A 
ATOM     22  C   UNL     1      51.509   2.092  17.509  0.00  0.00    +0.000 A 
ATOM     23  N   UNL     1      50.418   1.485  16.967  0.00  0.00    +0.000 NA
ATOM     24  C   UNL     1      49.291   2.242  16.899  0.00  0.00    +0.000 A 
BRANCH  22  25
ATOM     25  C   UNL     1      52.762   1.278  17.612  0.00  0.00    +0.000 C 
ATOM     26  N   UNL     1      52.602   0.020  18.119  0.00  0.00    +0.000 N 
ATOM     27  O   UNL     1      53.861   1.701  17.267  0.00  0.00    +0.000 OA
ATOM     28  H   UNL     1      51.682  -0.285  18.417  0.00  0.00    +0.000 HD
ATOM     29  H   UNL     1      53.406  -0.576  18.246  0.00  0.00    +0.000 HD
ENDBRANCH  22  25
ENDBRANCH  17  19
ENDBRANCH  16  17
ENDBRANCH   1  16
TORSDOF 8
ENDMDL
MODEL 6
REMARK VINA RESULT:    -6.693      3.172      4.299
REMARK INTER + INTRA:         -10.161
REMARK INTER:                  -9.911
REMARK INTRA:                  -0.250
REMARK UNBOUND:                -0.533
REMARK  Name = 
REMARK  9 active torsions:
REMARK  status: ('A' for Active; 'I' for Inactive)
REMARK    1  A    between atoms: C_1  and  C_2
REMARK    2  A    between atoms: C_2  and  O_3
REMARK    3  A    between atoms: O_3  and  C_4
REMARK    4  A    between atoms: C_8  and  C_9
REMARK    5  A    between atoms: C_9  and  C_10
REMARK    6  A    between atoms: C_10  and  N_11
REMARK    7  A    between atoms: N_11  and  C_12
REMARK    8  A    between atoms: C_15  and  C_16
REMARK    9  A    between atoms: C_23  and  O_24
REMARK                            x       y       z     vdW  Elec       q    Type
REMARK                         _______ _______ _______ _____ _____    ______ ____
ROOT
ATOM      1  C   UNL     1      45.654   5.262  11.162  0.00  0.00    +0.000 C 
ENDROOT
BRANCH   1   6
ATOM      2  C   UNL     1      47.725   7.856  13.128  0.00  0.00    +0.000 A 
ATOM      3  C   UNL     1      46.783   8.862  13.296  0.00  0.00    +0.000 A 
ATOM      4  C   UNL     1      45.475   8.672  12.845  0.00  0.00    +0.000 A 
ATOM      5  C   UNL     1      45.115   7.493  12.190  0.00  0.00    +0.000 A 
ATOM      6  C   UNL     1      46.064   6.490  11.959  0.00  0.00    +0.000 A 
ATOM      7  C   UNL     1      47.364   6.684  12.458  0.00  0.00    +0.000 A 
BRANCH   2   8
ATOM      8  O   UNL     1      49.030   7.883  13.555  0.00  0.00    +0.000 OA
BRANCH   8  10
ATOM      9  C   UNL     1      49.818  10.187  13.740  0.00  0.00    +0.000 C 
ATOM     10  C   UNL     1      49.977   8.848  13.027  0.00  0.00    +0.000 C 
ATOM     11  C   UNL     1      51.429   8.358  12.732  0.00  0.00    +0.000 C 
ATOM     12  C   UNL     1      50.981   8.020  11.298  0.00  0.00    +0.000 C 
ATOM     13  C   UNL     1      49.839   9.035  11.479  0.00  0.00    +0.000 C 
BRANCH  12  14
ATOM     14  O   UNL     1      51.931   8.291  10.252  0.00  0.00    +0.000 OA
ATOM     15  H   UNL     1      51.520   7.975   9.430  0.00  0.00    +0.000 HD
ENDBRANCH  12  14
ENDBRANCH   8  10
ENDBRANCH   2   8
ENDBRANCH   1   6
BRANCH   1  16
ATOM     16  C   UNL     1      44.139   5.109  11.002  0.00  0.00    +0.000 C 
BRANCH  16  17
ATOM     17  N   UNL     1      43.757   3.953  10.188  0.00  0.00    +0.000 N 
ATOM     18  H   UNL     1      42.873   4.102   9.700  0.00  0.00    +0.000 HD
BRANCH  17  19
ATOM     19  C   UNL     1      44.757   3.503   9.298  0.00  0.00    +0.000 A 
ATOM     20  C   UNL     1      45.179   2.169   9.238  0.00  0.00    +0.000 A 
ATOM     21  C   UNL     1      46.126   1.757   8.305  0.00  0.00    +0.000 A 
ATOM     22  C   UNL     1      46.611   2.696   7.411  0.00  0.00    +0.000 A 
ATOM     23  N   UNL     1      46.211   3.997   7.388  0.00  0.00    +0.000 NA
ATOM     24  C   UNL     1      45.286   4.350   8.318  0.00  0.00    +0.000 A 
BRANCH  22  25
ATOM     25  C   UNL     1      47.618   2.273   6.387  0.00  0.00    +0.000 C 
ATOM     26  N   UNL     1      47.694   3.067   5.278  0.00  0.00    +0.000 N 
ATOM     27  O   UNL     1      48.331   1.283   6.524  0.00  0.00    +0.000 OA
ATOM     28  H   UNL     1      47.072   3.861   5.190  0.00  0.00    +0.000 HD
ATOM     29  H   UNL     1      48.330   2.827   4.532  0.00  0.00    +0.000 HD
ENDBRANCH  22  25
ENDBRANCH  17  19
ENDBRANCH  16  17
ENDBRANCH   1  16
TORSDOF 8
ENDMDL
MODEL 7
REMARK VINA RESULT:    -6.539      4.219      7.699
REMARK INTER + INTRA:          -9.939
REMARK INTER:                  -8.517
REMARK INTRA:                  -1.422
REMARK UNBOUND:                -0.533
REMARK  Name = 
REMARK  9 active torsions:
REMARK  status: ('A' for Active; 'I' for Inactive)
REMARK    1  A    between atoms: C_1  and  C_2
REMARK    2  A    between atoms: C_2  and  O_3
REMARK    3  A    between atoms: O_3  and  C_4
REMARK    4  A    between atoms: C_8  and  C_9
REMARK    5  A    between atoms: C_9  and  C_10
REMARK    6  A    between atoms: C_10  and  N_11
REMARK    7  A    between atoms: N_11  and  C_12
REMARK    8  A    between atoms: C_15  and  C_16
REMARK    9  A    between atoms: C_23  and  O_24
REMARK                            x       y       z     vdW  Elec       q    Type
REMARK                         _______ _______ _______ _____ _____    ______ ____
ROOT
ATOM      1  C   UNL     1      49.425   8.722  12.010  0.00  0.00    +0.000 C 
ENDROOT
BRANCH   1   6
ATOM      2  C   UNL     1      46.140   6.700  11.974  0.00  0.00    +0.000 A 
ATOM      3  C   UNL     1      45.267   7.620  12.540  0.00  0.00    +0.000 A 
ATOM      4  C   UNL     1      45.719   8.902  12.859  0.00  0.00    +0.000 A 
ATOM      5  C   UNL     1      47.053   9.256  12.651  0.00  0.00    +0.000 A 
ATOM      6  C   UNL     1      47.963   8.325  12.135  0.00  0.00    +0.000 A 
ATOM      7  C   UNL     1      47.478   7.054  11.781  0.00  0.00    +0.000 A 
BRANCH   2   8
ATOM      8  O   UNL     1      45.830   5.425  11.571  0.00  0.00    +0.000 OA
BRANCH   8  10
ATOM      9  C   UNL     1      46.146   4.449  13.787  0.00  0.00    +0.000 C 
ATOM     10  C   UNL     1      45.316   4.442  12.506  0.00  0.00    +0.000 C 
ATOM     11  C   UNL     1      43.767   4.315  12.654  0.00  0.00    +0.000 C 
ATOM     12  C   UNL     1      43.789   3.244  11.549  0.00  0.00    +0.000 C 
ATOM     13  C   UNL     1      45.269   3.002  11.895  0.00  0.00    +0.000 C 
BRANCH  12  14
ATOM     14  O   UNL     1      42.892   2.132  11.719  0.00  0.00    +0.000 OA
ATOM     15  H   UNL     1      42.014   2.519  11.875  0.00  0.00    +0.000 HD
ENDBRANCH  12  14
ENDBRANCH   8  10
ENDBRANCH   2   8
ENDBRANCH   1   6
BRANCH   1  16
ATOM     16  C   UNL     1      50.342   8.021  13.017  0.00  0.00    +0.000 C 
BRANCH  16  17
ATOM     17  N   UNL     1      50.100   8.431  14.403  0.00  0.00    +0.000 N 
ATOM     18  H   UNL     1      49.354   9.123  14.474  0.00  0.00    +0.000 HD
BRANCH  17  19
ATOM     19  C   UNL     1      49.890   7.364  15.304  0.00  0.00    +0.000 A 
ATOM     20  C   UNL     1      48.641   6.757  15.488  0.00  0.00    +0.000 A 
ATOM     21  C   UNL     1      48.492   5.669  16.343  0.00  0.00    +0.000 A 
ATOM     22  C   UNL     1      49.620   5.178  16.977  0.00  0.00    +0.000 A 
ATOM     23  N   UNL     1      50.868   5.695  16.809  0.00  0.00    +0.000 NA
ATOM     24  C   UNL     1      50.963   6.755  15.965  0.00  0.00    +0.000 A 
BRANCH  22  25
ATOM     25  C   UNL     1      49.486   3.998  17.889  0.00  0.00    +0.000 C 
ATOM     26  N   UNL     1      50.392   3.942  18.909  0.00  0.00    +0.000 N 
ATOM     27  O   UNL     1      48.626   3.135  17.738  0.00  0.00    +0.000 OA
ATOM     28  H   UNL     1      51.103   4.659  18.986  0.00  0.00    +0.000 HD
ATOM     29  H   UNL     1      50.382   3.158  19.546  0.00  0.00    +0.000 HD
ENDBRANCH  22  25
ENDBRANCH  17  19
ENDBRANCH  16  17
ENDBRANCH   1  16
TORSDOF 8
ENDMDL
MODEL 8
REMARK VINA RESULT:    -6.123      4.474      7.844
REMARK INTER + INTRA:          -9.341
REMARK INTER:                  -8.247
REMARK INTRA:                  -1.094
REMARK UNBOUND:                -0.533
REMARK  Name = 
REMARK  9 active torsions:
REMARK  status: ('A' for Active; 'I' for Inactive)
REMARK    1  A    between atoms: C_1  and  C_2
REMARK    2  A    between atoms: C_2  and  O_3
REMARK    3  A    between atoms: O_3  and  C_4
REMARK    4  A    between atoms: C_8  and  C_9
REMARK    5  A    between atoms: C_9  and  C_10
REMARK    6  A    between atoms: C_10  and  N_11
REMARK    7  A    between atoms: N_11  and  C_12
REMARK    8  A    between atoms: C_15  and  C_16
REMARK    9  A    between atoms: C_23  and  O_24
REMARK                            x       y       z     vdW  Elec       q    Type
REMARK                         _______ _______ _______ _____ _____    ______ ____
ROOT
ATOM      1  C   UNL     1      48.279   8.847  15.534  0.00  0.00    +0.000 C 
ENDROOT
BRANCH   1   6
ATOM      2  C   UNL     1      47.033   7.417  12.175  0.00  0.00    +0.000 A 
ATOM      3  C   UNL     1      48.238   7.254  11.503  0.00  0.00    +0.000 A 
ATOM      4  C   UNL     1      49.440   7.532  12.155  0.00  0.00    +0.000 A 
ATOM      5  C   UNL     1      49.442   8.012  13.467  0.00  0.00    +0.000 A 
ATOM      6  C   UNL     1      48.236   8.238  14.142  0.00  0.00    +0.000 A 
ATOM      7  C   UNL     1      47.039   7.911  13.482  0.00  0.00    +0.000 A 
BRANCH   2   8
ATOM      8  O   UNL     1      45.782   7.144  11.680  0.00  0.00    +0.000 OA
BRANCH   8  10
ATOM      9  C   UNL     1      45.680   5.493   9.883  0.00  0.00    +0.000 C 
ATOM     10  C   UNL     1      45.380   5.789  11.349  0.00  0.00    +0.000 C 
ATOM     11  C   UNL     1      45.686   4.664  12.387  0.00  0.00    +0.000 C 
ATOM     12  C   UNL     1      44.302   4.917  13.010  0.00  0.00    +0.000 C 
ATOM     13  C   UNL     1      43.870   5.520  11.661  0.00  0.00    +0.000 C 
BRANCH  12  14
ATOM     14  O   UNL     1      43.583   3.756  13.462  0.00  0.00    +0.000 OA
ATOM     15  H   UNL     1      43.030   3.475  12.713  0.00  0.00    +0.000 HD
ENDBRANCH  12  14
ENDBRANCH   8  10
ENDBRANCH   2   8
ENDBRANCH   1   6
BRANCH   1  16
ATOM     16  C   UNL     1      48.963   7.957  16.575  0.00  0.00    +0.000 C 
BRANCH  16  17
ATOM     17  N   UNL     1      48.150   6.806  16.977  0.00  0.00    +0.000 N 
ATOM     18  H   UNL     1      47.357   6.659  16.352  0.00  0.00    +0.000 HD
BRANCH  17  19
ATOM     19  C   UNL     1      48.876   5.610  17.168  0.00  0.00    +0.000 A 
ATOM     20  C   UNL     1      48.304   4.340  17.019  0.00  0.00    +0.000 A 
ATOM     21  C   UNL     1      49.071   3.187  17.158  0.00  0.00    +0.000 A 
ATOM     22  C   UNL     1      50.425   3.330  17.409  0.00  0.00    +0.000 A 
ATOM     23  N   UNL     1      51.050   4.534  17.522  0.00  0.00    +0.000 NA
ATOM     24  C   UNL     1      50.259   5.630  17.379  0.00  0.00    +0.000 A 
BRANCH  22  25
ATOM     25  C   UNL     1      51.273   2.105  17.546  0.00  0.00    +0.000 C 
ATOM     26  N   UNL     1      52.387   2.248  18.323  0.00  0.00    +0.000 N 
ATOM     27  O   UNL     1      50.997   1.039  17.002  0.00  0.00    +0.000 OA
ATOM     28  H   UNL     1      52.595   3.150  18.736  0.00  0.00    +0.000 HD
ATOM     29  H   UNL     1      53.022   1.472  18.437  0.00  0.00    +0.000 HD
ENDBRANCH  22  25
ENDBRANCH  17  19
ENDBRANCH  16  17
ENDBRANCH   1  16
TORSDOF 8
ENDMDL
MODEL 9
REMARK VINA RESULT:    -5.726      4.317      7.968
REMARK INTER + INTRA:          -8.770
REMARK INTER:                  -7.896
REMARK INTRA:                  -0.874
REMARK UNBOUND:                -0.533
REMARK  Name = 
REMARK  9 active torsions:
REMARK  status: ('A' for Active; 'I' for Inactive)
REMARK    1  A    between atoms: C_1  and  C_2
REMARK    2  A    between atoms: C_2  and  O_3
REMARK    3  A    between atoms: O_3  and  C_4
REMARK    4  A    between atoms: C_8  and  C_9
REMARK    5  A    between atoms: C_9  and  C_10
REMARK    6  A    between atoms: C_10  and  N_11
REMARK    7  A    between atoms: N_11  and  C_12
REMARK    8  A    between atoms: C_15  and  C_16
REMARK    9  A    between atoms: C_23  and  O_24
REMARK                            x       y       z     vdW  Elec       q    Type
REMARK                         _______ _______ _______ _____ _____    ______ ____
ROOT
ATOM      1  C   UNL     1      45.884   6.796  13.019  0.00  0.00    +0.000 C 
ENDROOT
BRANCH   1   6
ATOM      2  C   UNL     1      44.733   3.699  11.030  0.00  0.00    +0.000 A 
ATOM      3  C   UNL     1      43.362   3.749  11.248  0.00  0.00    +0.000 A 
ATOM      4  C   UNL     1      42.811   4.811  11.967  0.00  0.00    +0.000 A 
ATOM      5  C   UNL     1      43.631   5.806  12.503  0.00  0.00    +0.000 A 
ATOM      6  C   UNL     1      45.021   5.744  12.343  0.00  0.00    +0.000 A 
ATOM      7  C   UNL     1      45.551   4.688  11.580  0.00  0.00    +0.000 A 
BRANCH   2   8
ATOM      8  O   UNL     1      45.408   2.744  10.310  0.00  0.00    +0.000 OA
BRANCH   8  10
ATOM      9  C   UNL     1      44.187   1.340   8.728  0.00  0.00    +0.000 C 
ATOM     10  C   UNL     1      45.132   2.525   8.902  0.00  0.00    +0.000 C 
ATOM     11  C   UNL     1      44.888   3.778   8.003  0.00  0.00    +0.000 C 
ATOM     12  C   UNL     1      46.397   3.804   7.699  0.00  0.00    +0.000 C 
ATOM     13  C   UNL     1      46.436   2.309   8.064  0.00  0.00    +0.000 C 
BRANCH  12  14
ATOM     14  O   UNL     1      46.771   4.154   6.354  0.00  0.00    +0.000 OA
ATOM     15  H   UNL     1      47.700   3.885   6.257  0.00  0.00    +0.000 HD
ENDBRANCH  12  14
ENDBRANCH   8  10
ENDBRANCH   2   8
ENDBRANCH   1   6
BRANCH   1  16
ATOM     16  C   UNL     1      47.365   6.718  12.637  0.00  0.00    +0.000 C 
BRANCH  16  17
ATOM     17  N   UNL     1      48.203   7.672  13.368  0.00  0.00    +0.000 N 
ATOM     18  H   UNL     1      48.232   7.469  14.368  0.00  0.00    +0.000 HD
BRANCH  17  19
ATOM     19  C   UNL     1      49.505   7.834  12.845  0.00  0.00    +0.000 A 
ATOM     20  C   UNL     1      49.797   7.717  11.480  0.00  0.00    +0.000 A 
ATOM     21  C   UNL     1      51.084   7.943  11.000  0.00  0.00    +0.000 A 
ATOM     22  C   UNL     1      52.060   8.325  11.905  0.00  0.00    +0.000 A 
ATOM     23  N   UNL     1      51.832   8.497  13.236  0.00  0.00    +0.000 NA
ATOM     24  C   UNL     1      50.561   8.264  13.656  0.00  0.00    +0.000 A 
BRANCH  22  25
ATOM     25  C   UNL     1      53.447   8.589  11.409  0.00  0.00    +0.000 C 
ATOM     26  N   UNL     1      54.343   7.578  11.610  0.00  0.00    +0.000 N 
ATOM     27  O   UNL     1      53.769   9.639  10.859  0.00  0.00    +0.000 OA
ATOM     28  H   UNL     1      54.047   6.737  12.091  0.00  0.00    +0.000 HD
ATOM     29  H   UNL     1      55.305   7.697  11.329  0.00  0.00    +0.000 HD
ENDBRANCH  22  25
ENDBRANCH  17  19
ENDBRANCH  16  17
ENDBRANCH   1  16
TORSDOF 8
ENDMDL
