MODEL 1
REMARK VINA RESULT:    -8.203      0.000      0.000
REMARK INTER + INTRA:         -10.791
REMARK INTER:                 -10.361
REMARK INTRA:                  -0.429
REMARK UNBOUND:                -0.429
REMARK  Name = 
REMARK  5 active torsions:
REMARK  status: ('A' for Active; 'I' for Inactive)
REMARK    1  A    between atoms: N_1  and  C_2
REMARK    2  A    between atoms: C_2  and  C_3
REMARK    3  A    between atoms: C_3  and  C_4
REMARK    4  A    between atoms: N_7  and  C_8
REMARK    5  A    between atoms: C_8  and  C_9
REMARK                            x       y       z     vdW  Elec       q    Type
REMARK                         _______ _______ _______ _____ _____    ______ ____
ROOT
ATOM      1  C   UNL     1      43.773   4.798  10.345  0.00  0.00    +0.000 C 
ENDROOT
BRANCH   1   2
ATOM      2  C   UNL     1      44.517   3.802   9.503  0.00  0.00    +0.000 A 
ATOM      3  C   UNL     1      44.494   2.449   9.803  0.00  0.00    +0.000 A 
ATOM      4  N   UNL     1      45.199   1.507   9.136  0.00  0.00    +0.000 NA
ATOM      5  C   UNL     1      45.970   1.894   8.095  0.00  0.00    +0.000 A 
ATOM      6  C   UNL     1      46.754   0.977   7.391  0.00  0.00    +0.000 A 
ATOM      7  F   UNL     1      46.753  -0.318   7.748  0.00  0.00    +0.000 F 
ATOM      8  C   UNL     1      47.566   1.351   6.319  0.00  0.00    +0.000 A 
ATOM      9  C   UNL     1      47.602   2.678   5.912  0.00  0.00    +0.000 A 
ATOM     10  C   UNL     1      46.833   3.620   6.591  0.00  0.00    +0.000 A 
ATOM     11  C   UNL     1      46.027   3.242   7.681  0.00  0.00    +0.000 A 
ATOM     12  C   UNL     1      45.280   4.189   8.399  0.00  0.00    +0.000 A 
ENDBRANCH   1   2
BRANCH   1  16
ATOM     13  C   UNL     1      46.177   5.842  12.874  0.00  0.00    +0.000 A 
ATOM     14  C   UNL     1      45.690   7.094  12.404  0.00  0.00    +0.000 A 
ATOM     15  C   UNL     1      44.756   6.841  11.423  0.00  0.00    +0.000 A 
ATOM     16  N   UNL     1      44.642   5.482  11.291  0.00  0.00    +0.000 N 
ATOM     17  C   UNL     1      45.529   4.868  12.138  0.00  0.00    +0.000 A 
BRANCH  13  18
ATOM     18  C   UNL     1      47.180   5.624  13.963  0.00  0.00    +0.000 C 
BRANCH  18  19
ATOM     19  C   UNL     1      46.819   4.449  14.878  0.00  0.00    +0.000 C 
BRANCH  19  20
ATOM     20  N   UNL     1      47.576   3.246  14.523  0.00  0.00    +0.000 NA
ATOM     21  H   UNL     1      48.524   3.513  14.259  0.00  0.00    +0.000 HD
ATOM     22  H   UNL     1      47.161   2.816  13.697  0.00  0.00    +0.000 HD
ENDBRANCH  19  20
ENDBRANCH  18  19
ENDBRANCH  13  18
ENDBRANCH   1  16
TORSDOF 5
ENDMDL
MODEL 2
REMARK VINA RESULT:    -8.024      1.314      2.544
REMARK INTER + INTRA:         -10.564
REMARK INTER:                 -10.180
REMARK INTRA:                  -0.384
REMARK UNBOUND:                -0.429
REMARK  Name = 
REMARK  5 active torsions:
REMARK  status: ('A' for Active; 'I' for Inactive)
REMARK    1  A    between atoms: N_1  and  C_2
REMARK    2  A    between atoms: C_2  and  C_3
REMARK    3  A    between atoms: C_3  and  C_4
REMARK    4  A    between atoms: N_7  and  C_8
REMARK    5  A    between atoms: C_8  and  C_9
REMARK                            x       y       z     vdW  Elec       q    Type
REMARK                         _______ _______ _______ _____ _____    ______ ____
ROOT
ATOM      1  C   UNL     1      43.732   4.780  10.352  0.00  0.00    +0.000 C 
ENDROOT
BRANCH   1   2
ATOM      2  C   UNL     1      44.495   3.793   9.517  0.00  0.00    +0.000 A 
ATOM      3  C   UNL     1      44.498   2.441   9.825  0.00  0.00    +0.000 A 
ATOM      4  N   UNL     1      45.222   1.510   9.164  0.00  0.00    +0.000 NA
ATOM      5  C   UNL     1      45.986   1.905   8.121  0.00  0.00    +0.000 A 
ATOM      6  C   UNL     1      46.788   0.999   7.423  0.00  0.00    +0.000 A 
ATOM      7  F   UNL     1      46.812  -0.293   7.789  0.00  0.00    +0.000 F 
ATOM      8  C   UNL     1      47.594   1.382   6.350  0.00  0.00    +0.000 A 
ATOM      9  C   UNL     1      47.605   2.707   5.936  0.00  0.00    +0.000 A 
ATOM     10  C   UNL     1      46.817   3.638   6.607  0.00  0.00    +0.000 A 
ATOM     11  C   UNL     1      46.018   3.252   7.699  0.00  0.00    +0.000 A 
ATOM     12  C   UNL     1      45.252   4.188   8.412  0.00  0.00    +0.000 A 
ENDBRANCH   1   2
BRANCH   1  16
ATOM     13  C   UNL     1      45.495   7.196  12.431  0.00  0.00    +0.000 A 
ATOM     14  C   UNL     1      46.132   5.977  12.799  0.00  0.00    +0.000 A 
ATOM     15  C   UNL     1      45.550   4.961  12.074  0.00  0.00    +0.000 A 
ATOM     16  N   UNL     1      44.593   5.517  11.264  0.00  0.00    +0.000 N 
ATOM     17  C   UNL     1      44.526   6.865  11.503  0.00  0.00    +0.000 A 
BRANCH  13  18
ATOM     18  C   UNL     1      45.823   8.565  12.936  0.00  0.00    +0.000 C 
BRANCH  18  19
ATOM     19  C   UNL     1      45.376   9.676  11.980  0.00  0.00    +0.000 C 
BRANCH  19  20
ATOM     20  N   UNL     1      44.133  10.302  12.436  0.00  0.00    +0.000 NA
ATOM     21  H   UNL     1      44.035  11.215  11.990  0.00  0.00    +0.000 HD
ATOM     22  H   UNL     1      44.190  10.481  13.438  0.00  0.00    +0.000 HD
ENDBRANCH  19  20
ENDBRANCH  18  19
ENDBRANCH  13  18
ENDBRANCH   1  16
TORSDOF 5
ENDMDL
MODEL 3
REMARK VINA RESULT:    -7.575      2.987      6.739
REMARK INTER + INTRA:          -9.997
REMARK INTER:                  -9.624
REMARK INTRA:                  -0.373
REMARK UNBOUND:                -0.429
REMARK  Name = 
REMARK  5 active torsions:
REMARK  status: ('A' for Active; 'I' for Inactive)
REMARK    1  A    between atoms: N_1  and  C_2
REMARK    2  A    between atoms: C_2  and  C_3
REMARK    3  A    between atoms: C_3  and  C_4
REMARK    4  A    between atoms: N_7  and  C_8
REMARK    5  A    between atoms: C_8  and  C_9
REMARK                            x       y       z     vdW  Elec       q    Type
REMARK                         _______ _______ _______ _____ _____    ______ ____
ROOT
ATOM      1  C   UNL     1      44.337   4.972  10.718  0.00  0.00    +0.000 C 
ENDROOT
BRANCH   1   2
ATOM      2  C   UNL     1      45.429   5.346  11.678  0.00  0.00    +0.000 A 
ATOM      3  C   UNL     1      45.496   4.787  12.944  0.00  0.00    +0.000 A 
ATOM      4  N   UNL     1      46.404   5.134  13.884  0.00  0.00    +0.000 NA
ATOM      5  C   UNL     1      47.325   6.074  13.577  0.00  0.00    +0.000 A 
ATOM      6  C   UNL     1      48.266   6.506  14.516  0.00  0.00    +0.000 A 
ATOM      7  F   UNL     1      48.262   5.985  15.754  0.00  0.00    +0.000 F 
ATOM      8  C   UNL     1      49.221   7.482  14.229  0.00  0.00    +0.000 A 
ATOM      9  C   UNL     1      49.263   8.052  12.963  0.00  0.00    +0.000 A 
ATOM     10  C   UNL     1      48.342   7.646  12.001  0.00  0.00    +0.000 A 
ATOM     11  C   UNL     1      47.371   6.673  12.299  0.00  0.00    +0.000 A 
ATOM     12  C   UNL     1      46.410   6.286  11.351  0.00  0.00    +0.000 A 
ENDBRANCH   1   2
BRANCH   1  16
ATOM     13  C   UNL     1      45.755   3.091   7.939  0.00  0.00    +0.000 A 
ATOM     14  C   UNL     1      45.144   2.059   8.706  0.00  0.00    +0.000 A 
ATOM     15  C   UNL     1      44.560   2.642   9.809  0.00  0.00    +0.000 A 
ATOM     16  N   UNL     1      44.776   3.994   9.734  0.00  0.00    +0.000 N 
ATOM     17  C   UNL     1      45.534   4.271   8.625  0.00  0.00    +0.000 A 
BRANCH  13  18
ATOM     18  C   UNL     1      46.478   2.932   6.639  0.00  0.00    +0.000 C 
BRANCH  18  19
ATOM     19  C   UNL     1      47.832   2.231   6.791  0.00  0.00    +0.000 C 
BRANCH  19  20
ATOM     20  N   UNL     1      48.424   1.927   5.486  0.00  0.00    +0.000 NA
ATOM     21  H   UNL     1      48.800   2.785   5.082  0.00  0.00    +0.000 HD
ATOM     22  H   UNL     1      47.696   1.609   4.848  0.00  0.00    +0.000 HD
ENDBRANCH  19  20
ENDBRANCH  18  19
ENDBRANCH  13  18
ENDBRANCH   1  16
TORSDOF 5
ENDMDL
MODEL 4
REMARK VINA RESULT:    -7.258      1.288      1.410
REMARK INTER + INTRA:          -9.597
REMARK INTER:                  -9.101
REMARK INTRA:                  -0.496
REMARK UNBOUND:                -0.429
REMARK  Name = 
REMARK  5 active torsions:
REMARK  status: ('A' for Active; 'I' for Inactive)
REMARK    1  A    between atoms: N_1  and  C_2
REMARK    2  A    between atoms: C_2  and  C_3
REMARK    3  A    between atoms: C_3  and  C_4
REMARK    4  A    between atoms: N_7  and  C_8
REMARK    5  A    between atoms: C_8  and  C_9
REMARK                            x       y       z     vdW  Elec       q    Type
REMARK                         _______ _______ _______ _____ _____    ______ ____
ROOT
ATOM      1  C   UNL     1      43.872   5.354  10.974  0.00  0.00    +0.000 C 
ENDROOT
BRANCH   1   2
ATOM      2  C   UNL     1      44.453   4.301  10.076  0.00  0.00    +0.000 A 
ATOM      3  C   UNL     1      44.220   2.953  10.305  0.00  0.00    +0.000 A 
ATOM      4  N   UNL     1      44.772   1.951   9.584  0.00  0.00    +0.000 NA
ATOM      5  C   UNL     1      45.595   2.268   8.560  0.00  0.00    +0.000 A 
ATOM      6  C   UNL     1      46.229   1.279   7.803  0.00  0.00    +0.000 A 
ATOM      7  F   UNL     1      46.027  -0.017   8.092  0.00  0.00    +0.000 F 
ATOM      8  C   UNL     1      47.091   1.579   6.747  0.00  0.00    +0.000 A 
ATOM      9  C   UNL     1      47.333   2.904   6.411  0.00  0.00    +0.000 A 
ATOM     10  C   UNL     1      46.718   3.917   7.143  0.00  0.00    +0.000 A 
ATOM     11  C   UNL     1      45.862   3.611   8.217  0.00  0.00    +0.000 A 
ATOM     12  C   UNL     1      45.270   4.623   8.989  0.00  0.00    +0.000 A 
ENDBRANCH   1   2
BRANCH   1  16
ATOM     13  C   UNL     1      46.539   6.358  13.243  0.00  0.00    +0.000 A 
ATOM     14  C   UNL     1      46.239   7.586  12.587  0.00  0.00    +0.000 A 
ATOM     15  C   UNL     1      45.228   7.345  11.682  0.00  0.00    +0.000 A 
ATOM     16  N   UNL     1      44.887   6.020  11.776  0.00  0.00    +0.000 N 
ATOM     17  C   UNL     1      45.704   5.406  12.690  0.00  0.00    +0.000 A 
BRANCH  13  18
ATOM     18  C   UNL     1      47.546   6.147  14.329  0.00  0.00    +0.000 C 
BRANCH  18  19
ATOM     19  C   UNL     1      48.509   7.328  14.487  0.00  0.00    +0.000 C 
BRANCH  19  20
ATOM     20  N   UNL     1      49.901   6.876  14.542  0.00  0.00    +0.000 NA
ATOM     21  H   UNL     1      50.518   7.682  14.444  0.00  0.00    +0.000 HD
ATOM     22  H   UNL     1      50.094   6.272  13.743  0.00  0.00    +0.000 HD
ENDBRANCH  19  20
ENDBRANCH  18  19
ENDBRANCH  13  18
ENDBRANCH   1  16
TORSDOF 5
ENDMDL
MODEL 5
REMARK VINA RESULT:    -6.324      3.070      6.944
REMARK INTER + INTRA:          -8.417
REMARK INTER:                  -8.294
REMARK INTRA:                  -0.123
REMARK UNBOUND:                -0.429
REMARK  Name = 
REMARK  5 active torsions:
REMARK  status: ('A' for Active; 'I' for Inactive)
REMARK    1  A    between atoms: N_1  and  C_2
REMARK    2  A    between atoms: C_2  and  C_3
REMARK    3  A    between atoms: C_3  and  C_4
REMARK    4  A    between atoms: N_7  and  C_8
REMARK    5  A    between atoms: C_8  and  C_9
REMARK                            x       y       z     vdW  Elec       q    Type
REMARK                         _______ _______ _______ _____ _____    ______ ____
ROOT
ATOM      1  C   UNL     1      44.588   3.548  11.179  0.00  0.00    +0.000 C 
ENDROOT
BRANCH   1   2
ATOM      2  C   UNL     1      45.072   4.888  11.651  0.00  0.00    +0.000 A 
ATOM      3  C   UNL     1      46.037   4.997  12.640  0.00  0.00    +0.000 A 
ATOM      4  N   UNL     1      46.462   6.168  13.165  0.00  0.00    +0.000 NA
ATOM      5  C   UNL     1      45.933   7.319  12.692  0.00  0.00    +0.000 A 
ATOM      6  C   UNL     1      46.301   8.559  13.220  0.00  0.00    +0.000 A 
ATOM      7  F   UNL     1      47.194   8.622  14.221  0.00  0.00    +0.000 F 
ATOM      8  C   UNL     1      45.763   9.761  12.758  0.00  0.00    +0.000 A 
ATOM      9  C   UNL     1      44.833   9.748  11.726  0.00  0.00    +0.000 A 
ATOM     10  C   UNL     1      44.444   8.530  11.175  0.00  0.00    +0.000 A 
ATOM     11  C   UNL     1      44.977   7.319  11.654  0.00  0.00    +0.000 A 
ATOM     12  C   UNL     1      44.561   6.082  11.136  0.00  0.00    +0.000 A 
ENDBRANCH   1   2
BRANCH   1  16
ATOM     13  C   UNL     1      45.874   2.300   8.007  0.00  0.00    +0.000 A 
ATOM     14  C   UNL     1      45.092   3.413   7.585  0.00  0.00    +0.000 A 
ATOM     15  C   UNL     1      44.537   3.987   8.707  0.00  0.00    +0.000 A 
ATOM     16  N   UNL     1      44.965   3.277   9.799  0.00  0.00    +0.000 N 
ATOM     17  C   UNL     1      45.744   2.229   9.381  0.00  0.00    +0.000 A 
BRANCH  13  18
ATOM     18  C   UNL     1      46.690   1.398   7.136  0.00  0.00    +0.000 C 
BRANCH  18  19
ATOM     19  C   UNL     1      48.107   1.928   6.891  0.00  0.00    +0.000 C 
BRANCH  19  20
ATOM     20  N   UNL     1      48.415   1.984   5.461  0.00  0.00    +0.000 NA
ATOM     21  H   UNL     1      49.426   2.045   5.338  0.00  0.00    +0.000 HD
ATOM     22  H   UNL     1      48.029   2.840   5.063  0.00  0.00    +0.000 HD
ENDBRANCH  19  20
ENDBRANCH  18  19
ENDBRANCH  13  18
ENDBRANCH   1  16
TORSDOF 5
ENDMDL
MODEL 6
REMARK VINA RESULT:    -6.077      3.769      6.955
REMARK INTER + INTRA:          -8.104
REMARK INTER:                  -7.671
REMARK INTRA:                  -0.433
REMARK UNBOUND:                -0.429
REMARK  Name = 
REMARK  5 active torsions:
REMARK  status: ('A' for Active; 'I' for Inactive)
REMARK    1  A    between atoms: N_1  and  C_2
REMARK    2  A    between atoms: C_2  and  C_3
REMARK    3  A    between atoms: C_3  and  C_4
REMARK    4  A    between atoms: N_7  and  C_8
REMARK    5  A    between atoms: C_8  and  C_9
REMARK                            x       y       z     vdW  Elec       q    Type
REMARK                         _______ _______ _______ _____ _____    ______ ____
ROOT
ATOM      1  C   UNL     1      44.604   5.895  12.763  0.00  0.00    +0.000 C 
ENDROOT
BRANCH   1   2
ATOM      2  C   UNL     1      45.645   6.962  12.588  0.00  0.00    +0.000 A 
ATOM      3  C   UNL     1      45.309   8.307  12.623  0.00  0.00    +0.000 A 
ATOM      4  N   UNL     1      46.180   9.316  12.398  0.00  0.00    +0.000 NA
ATOM      5  C   UNL     1      47.471   9.011  12.136  0.00  0.00    +0.000 A 
ATOM      6  C   UNL     1      48.411  10.005  11.855  0.00  0.00    +0.000 A 
ATOM      7  F   UNL     1      48.036  11.295  11.838  0.00  0.00    +0.000 F 
ATOM      8  C   UNL     1      49.747   9.717  11.572  0.00  0.00    +0.000 A 
ATOM      9  C   UNL     1      50.183   8.398  11.575  0.00  0.00    +0.000 A 
ATOM     10  C   UNL     1      49.273   7.380  11.852  0.00  0.00    +0.000 A 
ATOM     11  C   UNL     1      47.924   7.674  12.122  0.00  0.00    +0.000 A 
ATOM     12  C   UNL     1      46.989   6.654  12.360  0.00  0.00    +0.000 A 
ENDBRANCH   1   2
BRANCH   1  16
ATOM     13  C   UNL     1      44.765   3.927   9.702  0.00  0.00    +0.000 A 
ATOM     14  C   UNL     1      44.836   2.915  10.701  0.00  0.00    +0.000 A 
ATOM     15  C   UNL     1      44.785   3.533  11.931  0.00  0.00    +0.000 A 
ATOM     16  N   UNL     1      44.668   4.883  11.720  0.00  0.00    +0.000 N 
ATOM     17  C   UNL     1      44.695   5.134  10.372  0.00  0.00    +0.000 A 
BRANCH  13  18
ATOM     18  C   UNL     1      44.750   3.722   8.220  0.00  0.00    +0.000 C 
BRANCH  18  19
ATOM     19  C   UNL     1      46.066   3.148   7.685  0.00  0.00    +0.000 C 
BRANCH  19  20
ATOM     20  N   UNL     1      46.836   4.165   6.965  0.00  0.00    +0.000 NA
ATOM     21  H   UNL     1      47.706   4.344   7.467  0.00  0.00    +0.000 HD
ATOM     22  H   UNL     1      46.322   5.045   6.965  0.00  0.00    +0.000 HD
ENDBRANCH  19  20
ENDBRANCH  18  19
ENDBRANCH  13  18
ENDBRANCH   1  16
TORSDOF 5
ENDMDL
MODEL 7
REMARK VINA RESULT:    -5.894      3.491      7.583
REMARK INTER + INTRA:          -7.873
REMARK INTER:                  -7.685
REMARK INTRA:                  -0.188
REMARK UNBOUND:                -0.429
REMARK  Name = 
REMARK  5 active torsions:
REMARK  status: ('A' for Active; 'I' for Inactive)
REMARK    1  A    between atoms: N_1  and  C_2
REMARK    2  A    between atoms: C_2  and  C_3
REMARK    3  A    between atoms: C_3  and  C_4
REMARK    4  A    between atoms: N_7  and  C_8
REMARK    5  A    between atoms: C_8  and  C_9
REMARK                            x       y       z     vdW  Elec       q    Type
REMARK                         _______ _______ _______ _____ _____    ______ ____
ROOT
ATOM      1  C   UNL     1      47.321   6.587  12.936  0.00  0.00    +0.000 C 
ENDROOT
BRANCH   1   2
ATOM      2  C   UNL     1      47.505   5.755  14.173  0.00  0.00    +0.000 A 
ATOM      3  C   UNL     1      46.833   4.554  14.338  0.00  0.00    +0.000 A 
ATOM      4  N   UNL     1      46.894   3.794  15.454  0.00  0.00    +0.000 NA
ATOM      5  C   UNL     1      47.669   4.212  16.480  0.00  0.00    +0.000 A 
ATOM      6  C   UNL     1      47.742   3.493  17.676  0.00  0.00    +0.000 A 
ATOM      7  F   UNL     1      47.029   2.364  17.823  0.00  0.00    +0.000 F 
ATOM      8  C   UNL     1      48.527   3.907  18.754  0.00  0.00    +0.000 A 
ATOM      9  C   UNL     1      49.281   5.068  18.651  0.00  0.00    +0.000 A 
ATOM     10  C   UNL     1      49.233   5.810  17.473  0.00  0.00    +0.000 A 
ATOM     11  C   UNL     1      48.429   5.399  16.395  0.00  0.00    +0.000 A 
ATOM     12  C   UNL     1      48.339   6.160  15.218  0.00  0.00    +0.000 A 
ENDBRANCH   1   2
BRANCH   1  16
ATOM     13  C   UNL     1      44.618   5.282  10.872  0.00  0.00    +0.000 A 
ATOM     14  C   UNL     1      43.949   6.289  11.623  0.00  0.00    +0.000 A 
ATOM     15  C   UNL     1      44.872   6.874  12.461  0.00  0.00    +0.000 A 
ATOM     16  N   UNL     1      46.084   6.273  12.237  0.00  0.00    +0.000 N 
ATOM     17  C   UNL     1      45.931   5.279  11.305  0.00  0.00    +0.000 A 
BRANCH  13  18
ATOM     18  C   UNL     1      44.022   4.410   9.812  0.00  0.00    +0.000 C 
BRANCH  18  19
ATOM     19  C   UNL     1      44.210   2.916  10.093  0.00  0.00    +0.000 C 
BRANCH  19  20
ATOM     20  N   UNL     1      43.425   2.490  11.254  0.00  0.00    +0.000 NA
ATOM     21  H   UNL     1      42.490   2.893  11.192  0.00  0.00    +0.000 HD
ATOM     22  H   UNL     1      43.841   2.870  12.104  0.00  0.00    +0.000 HD
ENDBRANCH  19  20
ENDBRANCH  18  19
ENDBRANCH  13  18
ENDBRANCH   1  16
TORSDOF 5
ENDMDL
MODEL 8
REMARK VINA RESULT:    -5.893      3.054      4.438
REMARK INTER + INTRA:          -7.872
REMARK INTER:                  -7.331
REMARK INTRA:                  -0.541
REMARK UNBOUND:                -0.429
REMARK  Name = 
REMARK  5 active torsions:
REMARK  status: ('A' for Active; 'I' for Inactive)
REMARK    1  A    between atoms: N_1  and  C_2
REMARK    2  A    between atoms: C_2  and  C_3
REMARK    3  A    between atoms: C_3  and  C_4
REMARK    4  A    between atoms: N_7  and  C_8
REMARK    5  A    between atoms: C_8  and  C_9
REMARK                            x       y       z     vdW  Elec       q    Type
REMARK                         _______ _______ _______ _____ _____    ______ ____
ROOT
ATOM      1  C   UNL     1      45.842   7.834  12.667  0.00  0.00    +0.000 C 
ENDROOT
BRANCH   1   2
ATOM      2  C   UNL     1      45.344   6.574  12.019  0.00  0.00    +0.000 A 
ATOM      3  C   UNL     1      44.539   5.681  12.709  0.00  0.00    +0.000 A 
ATOM      4  N   UNL     1      44.118   4.495  12.215  0.00  0.00    +0.000 NA
ATOM      5  C   UNL     1      44.485   4.150  10.960  0.00  0.00    +0.000 A 
ATOM      6  C   UNL     1      44.117   2.921  10.407  0.00  0.00    +0.000 A 
ATOM      7  F   UNL     1      43.388   2.054  11.127  0.00  0.00    +0.000 F 
ATOM      8  C   UNL     1      44.491   2.536   9.118  0.00  0.00    +0.000 A 
ATOM      9  C   UNL     1      45.248   3.397   8.334  0.00  0.00    +0.000 A 
ATOM     10  C   UNL     1      45.632   4.631   8.853  0.00  0.00    +0.000 A 
ATOM     11  C   UNL     1      45.267   5.009  10.158  0.00  0.00    +0.000 A 
ATOM     12  C   UNL     1      45.684   6.232  10.708  0.00  0.00    +0.000 A 
ENDBRANCH   1   2
BRANCH   1  16
ATOM     13  C   UNL     1      49.437   8.261  13.062  0.00  0.00    +0.000 A 
ATOM     14  C   UNL     1      49.184   7.142  13.904  0.00  0.00    +0.000 A 
ATOM     15  C   UNL     1      47.836   6.868  13.848  0.00  0.00    +0.000 A 
ATOM     16  N   UNL     1      47.259   7.767  12.989  0.00  0.00    +0.000 N 
ATOM     17  C   UNL     1      48.216   8.641  12.539  0.00  0.00    +0.000 A 
BRANCH  13  18
ATOM     18  C   UNL     1      50.766   8.890  12.784  0.00  0.00    +0.000 C 
BRANCH  18  19
ATOM     19  C   UNL     1      51.230   8.689  11.337  0.00  0.00    +0.000 C 
BRANCH  19  20
ATOM     20  N   UNL     1      51.326   7.266  11.002  0.00  0.00    +0.000 NA
ATOM     21  H   UNL     1      50.753   6.730  11.654  0.00  0.00    +0.000 HD
ATOM     22  H   UNL     1      52.285   6.948  11.140  0.00  0.00    +0.000 HD
ENDBRANCH  19  20
ENDBRANCH  18  19
ENDBRANCH  13  18
ENDBRANCH   1  16
TORSDOF 5
ENDMDL
MODEL 9
REMARK VINA RESULT:    -5.805      3.397      6.982
REMARK INTER + INTRA:          -7.761
REMARK INTER:                  -7.487
REMARK INTRA:                  -0.274
REMARK UNBOUND:                -0.429
REMARK  Name = 
REMARK  5 active torsions:
REMARK  status: ('A' for Active; 'I' for Inactive)
REMARK    1  A    between atoms: N_1  and  C_2
REMARK    2  A    between atoms: C_2  and  C_3
REMARK    3  A    between atoms: C_3  and  C_4
REMARK    4  A    between atoms: N_7  and  C_8
REMARK    5  A    between atoms: C_8  and  C_9
REMARK                            x       y       z     vdW  Elec       q    Type
REMARK                         _______ _______ _______ _____ _____    ______ ____
ROOT
ATOM      1  C   UNL     1      45.491   4.807  13.586  0.00  0.00    +0.000 C 
ENDROOT
BRANCH   1   2
ATOM      2  C   UNL     1      46.071   6.101  13.092  0.00  0.00    +0.000 A 
ATOM      3  C   UNL     1      47.441   6.277  12.978  0.00  0.00    +0.000 A 
ATOM      4  N   UNL     1      48.033   7.437  12.614  0.00  0.00    +0.000 NA
ATOM      5  C   UNL     1      47.249   8.500  12.324  0.00  0.00    +0.000 A 
ATOM      6  C   UNL     1      47.799   9.737  11.981  0.00  0.00    +0.000 A 
ATOM      7  F   UNL     1      49.133   9.888  11.939  0.00  0.00    +0.000 F 
ATOM      8  C   UNL     1      47.013  10.853  11.687  0.00  0.00    +0.000 A 
ATOM      9  C   UNL     1      45.629  10.748  11.719  0.00  0.00    +0.000 A 
ATOM     10  C   UNL     1      45.045   9.529  12.056  0.00  0.00    +0.000 A 
ATOM     11  C   UNL     1      45.840   8.411  12.367  0.00  0.00    +0.000 A 
ATOM     12  C   UNL     1      45.264   7.189  12.750  0.00  0.00    +0.000 A 
ENDBRANCH   1   2
BRANCH   1  16
ATOM     13  C   UNL     1      44.538   2.956  10.597  0.00  0.00    +0.000 A 
ATOM     14  C   UNL     1      43.358   2.856  11.388  0.00  0.00    +0.000 A 
ATOM     15  C   UNL     1      43.586   3.525  12.570  0.00  0.00    +0.000 A 
ATOM     16  N   UNL     1      44.854   4.045  12.523  0.00  0.00    +0.000 N 
ATOM     17  C   UNL     1      45.453   3.671  11.347  0.00  0.00    +0.000 A 
BRANCH  13  18
ATOM     18  C   UNL     1      44.740   2.410   9.218  0.00  0.00    +0.000 C 
BRANCH  18  19
ATOM     19  C   UNL     1      44.516   3.458   8.124  0.00  0.00    +0.000 C 
BRANCH  19  20
ATOM     20  N   UNL     1      45.360   4.636   8.334  0.00  0.00    +0.000 NA
ATOM     21  H   UNL     1      44.792   5.477   8.238  0.00  0.00    +0.000 HD
ATOM     22  H   UNL     1      46.065   4.685   7.598  0.00  0.00    +0.000 HD
ENDBRANCH  19  20
ENDBRANCH  18  19
ENDBRANCH  13  18
ENDBRANCH   1  16
TORSDOF 5
ENDMDL
