MODEL 1
REMARK VINA RESULT:    -9.070      0.000      0.000
REMARK INTER + INTRA:         -12.580
REMARK INTER:                 -11.722
REMARK INTRA:                  -0.859
REMARK UNBOUND:                -0.859
REMARK  Name = 
REMARK  5 active torsions:
REMARK  status: ('A' for Active; 'I' for Inactive)
REMARK    1  A    between atoms: C_2  and  C_4
REMARK    2  A    between atoms: N_8  and  C_9
REMARK    3  A    between atoms: C_9  and  C_10
REMARK    4  A    between atoms: C_10  and  C_11
REMARK    5  A    between atoms: C_15  and  C_16
REMARK                            x       y       z     vdW  Elec       q    Type
REMARK                         _______ _______ _______ _____ _____    ______ ____
ROOT
ATOM      1  C   UNL     1      43.327   4.439  11.212  0.00  0.00    +0.000 C 
ENDROOT
BRANCH   1   6
ATOM      2  C   UNL     1      46.457   2.472   7.714  0.00  0.00    +0.000 A 
ATOM      3  C   UNL     1      45.636   1.829   8.633  0.00  0.00    +0.000 A 
ATOM      4  C   UNL     1      44.731   2.580   9.385  0.00  0.00    +0.000 A 
ATOM      5  C   UNL     1      44.666   3.961   9.211  0.00  0.00    +0.000 A 
ATOM      6  N   UNL     1      43.720   4.753   9.845  0.00  0.00    +0.000 N 
ATOM      7  N   UNL     1      45.477   4.602   8.344  0.00  0.00    +0.000 NA
ATOM      8  C   UNL     1      46.357   3.853   7.624  0.00  0.00    +0.000 A 
ATOM      9  H   UNL     1      43.960   5.723   9.652  0.00  0.00    +0.000 HD
BRANCH   2  11
ATOM     10  N   UNL     1      48.525   2.417   6.445  0.00  0.00    +0.000 N 
ATOM     11  C   UNL     1      47.402   1.746   6.847  0.00  0.00    +0.000 C 
ATOM     12  O   UNL     1      47.210   0.579   6.524  0.00  0.00    +0.000 OA
ATOM     13  H   UNL     1      49.217   1.879   5.942  0.00  0.00    +0.000 HD
ATOM     14  H   UNL     1      48.832   3.274   6.886  0.00  0.00    +0.000 HD
ENDBRANCH   2  11
ENDBRANCH   1   6
BRANCH   1  15
ATOM     15  C   UNL     1      43.598   5.632  12.137  0.00  0.00    +0.000 C 
BRANCH  15  16
ATOM     16  C   UNL     1      45.038   5.682  12.577  0.00  0.00    +0.000 A 
ATOM     17  C   UNL     1      45.550   4.752  13.470  0.00  0.00    +0.000 A 
ATOM     18  N   UNL     1      46.821   4.765  13.921  0.00  0.00    +0.000 NA
ATOM     19  C   UNL     1      47.623   5.755  13.456  0.00  0.00    +0.000 A 
ATOM     20  C   UNL     1      47.235   6.761  12.567  0.00  0.00    +0.000 A 
ATOM     21  C   UNL     1      45.900   6.696  12.134  0.00  0.00    +0.000 A 
BRANCH  20  22
ATOM     22  C   UNL     1      48.158   7.832  12.129  0.00  0.00    +0.000 A 
ATOM     23  C   UNL     1      47.735   9.171  12.022  0.00  0.00    +0.000 A 
ATOM     24  C   UNL     1      48.617  10.189  11.647  0.00  0.00    +0.000 A 
ATOM     25  C   UNL     1      49.944   9.891  11.354  0.00  0.00    +0.000 A 
ATOM     26  C   UNL     1      50.386   8.575  11.430  0.00  0.00    +0.000 A 
ATOM     27  C   UNL     1      49.503   7.561  11.815  0.00  0.00    +0.000 A 
ENDBRANCH  20  22
ENDBRANCH  15  16
ENDBRANCH   1  15
TORSDOF 5
ENDMDL
MODEL 2
REMARK VINA RESULT:    -8.690      1.835      3.447
REMARK INTER + INTRA:         -12.089
REMARK INTER:                 -11.413
REMARK INTRA:                  -0.676
REMARK UNBOUND:                -0.859
REMARK  Name = 
REMARK  5 active torsions:
REMARK  status: ('A' for Active; 'I' for Inactive)
REMARK    1  A    between atoms: C_2  and  C_4
REMARK    2  A    between atoms: N_8  and  C_9
REMARK    3  A    between atoms: C_9  and  C_10
REMARK    4  A    between atoms: C_10  and  C_11
REMARK    5  A    between atoms: C_15  and  C_16
REMARK                            x       y       z     vdW  Elec       q    Type
REMARK                         _______ _______ _______ _____ _____    ______ ____
ROOT
ATOM      1  C   UNL     1      43.316   4.470  11.119  0.00  0.00    +0.000 C 
ENDROOT
BRANCH   1   6
ATOM      2  C   UNL     1      46.477   2.443   7.685  0.00  0.00    +0.000 A 
ATOM      3  C   UNL     1      45.669   1.816   8.627  0.00  0.00    +0.000 A 
ATOM      4  C   UNL     1      44.752   2.576   9.355  0.00  0.00    +0.000 A 
ATOM      5  C   UNL     1      44.661   3.949   9.134  0.00  0.00    +0.000 A 
ATOM      6  N   UNL     1      43.701   4.745   9.741  0.00  0.00    +0.000 N 
ATOM      7  N   UNL     1      45.459   4.575   8.244  0.00  0.00    +0.000 NA
ATOM      8  C   UNL     1      46.352   3.818   7.548  0.00  0.00    +0.000 A 
ATOM      9  H   UNL     1      43.922   5.712   9.515  0.00  0.00    +0.000 HD
BRANCH   2  11
ATOM     10  N   UNL     1      48.506   2.404   6.353  0.00  0.00    +0.000 N 
ATOM     11  C   UNL     1      47.435   1.706   6.842  0.00  0.00    +0.000 C 
ATOM     12  O   UNL     1      47.299   0.509   6.612  0.00  0.00    +0.000 OA
ATOM     13  H   UNL     1      49.212   1.866   5.868  0.00  0.00    +0.000 HD
ATOM     14  H   UNL     1      48.778   3.306   6.719  0.00  0.00    +0.000 HD
ENDBRANCH   2  11
ENDBRANCH   1   6
BRANCH   1  15
ATOM     15  C   UNL     1      43.503   5.720  11.989  0.00  0.00    +0.000 C 
BRANCH  15  16
ATOM     16  C   UNL     1      44.953   5.958  12.319  0.00  0.00    +0.000 A 
ATOM     17  C   UNL     1      45.775   6.682  11.467  0.00  0.00    +0.000 A 
ATOM     18  N   UNL     1      47.085   6.902  11.696  0.00  0.00    +0.000 NA
ATOM     19  C   UNL     1      47.602   6.375  12.834  0.00  0.00    +0.000 A 
ATOM     20  C   UNL     1      46.895   5.617  13.770  0.00  0.00    +0.000 A 
ATOM     21  C   UNL     1      45.535   5.420  13.476  0.00  0.00    +0.000 A 
BRANCH  20  22
ATOM     22  C   UNL     1      47.535   5.043  14.974  0.00  0.00    +0.000 A 
ATOM     23  C   UNL     1      48.382   5.812  15.797  0.00  0.00    +0.000 A 
ATOM     24  C   UNL     1      48.956   5.282  16.956  0.00  0.00    +0.000 A 
ATOM     25  C   UNL     1      48.709   3.961  17.316  0.00  0.00    +0.000 A 
ATOM     26  C   UNL     1      47.894   3.170  16.513  0.00  0.00    +0.000 A 
ATOM     27  C   UNL     1      47.315   3.707  15.359  0.00  0.00    +0.000 A 
ENDBRANCH  20  22
ENDBRANCH  15  16
ENDBRANCH   1  15
TORSDOF 5
ENDMDL
MODEL 3
REMARK VINA RESULT:    -8.012      4.154      7.836
REMARK INTER + INTRA:         -11.213
REMARK INTER:                 -10.630
REMARK INTRA:                  -0.583
REMARK UNBOUND:                -0.859
REMARK  Name = 
REMARK  5 active torsions:
REMARK  status: ('A' for Active; 'I' for Inactive)
REMARK    1  A    between atoms: C_2  and  C_4
REMARK    2  A    between atoms: N_8  and  C_9
REMARK    3  A    between atoms: C_9  and  C_10
REMARK    4  A    between atoms: C_10  and  C_11
REMARK    5  A    between atoms: C_15  and  C_16
REMARK                            x       y       z     vdW  Elec       q    Type
REMARK                         _______ _______ _______ _____ _____    ______ ____
ROOT
ATOM      1  C   UNL     1      46.345   5.617  13.222  0.00  0.00    +0.000 C 
ENDROOT
BRANCH   1   6
ATOM      2  C   UNL     1      49.089   4.175  17.258  0.00  0.00    +0.000 A 
ATOM      3  C   UNL     1      48.893   5.444  16.725  0.00  0.00    +0.000 A 
ATOM      4  C   UNL     1      47.956   5.621  15.706  0.00  0.00    +0.000 A 
ATOM      5  C   UNL     1      47.234   4.526  15.233  0.00  0.00    +0.000 A 
ATOM      6  N   UNL     1      46.214   4.647  14.301  0.00  0.00    +0.000 N 
ATOM      7  N   UNL     1      47.435   3.284  15.720  0.00  0.00    +0.000 NA
ATOM      8  C   UNL     1      48.357   3.130  16.710  0.00  0.00    +0.000 A 
ATOM      9  H   UNL     1      45.936   3.705  14.034  0.00  0.00    +0.000 HD
BRANCH   2  11
ATOM     10  N   UNL     1      50.986   2.962  18.165  0.00  0.00    +0.000 N 
ATOM     11  C   UNL     1      50.023   3.914  18.368  0.00  0.00    +0.000 C 
ATOM     12  O   UNL     1      49.963   4.542  19.418  0.00  0.00    +0.000 OA
ATOM     13  H   UNL     1      51.686   2.867  18.888  0.00  0.00    +0.000 HD
ATOM     14  H   UNL     1      51.216   2.611  17.245  0.00  0.00    +0.000 HD
ENDBRANCH   2  11
ENDBRANCH   1   6
BRANCH   1  15
ATOM     15  C   UNL     1      44.996   5.832  12.526  0.00  0.00    +0.000 C 
BRANCH  15  16
ATOM     16  C   UNL     1      44.612   4.651  11.675  0.00  0.00    +0.000 A 
ATOM     17  C   UNL     1      43.571   3.809  12.040  0.00  0.00    +0.000 A 
ATOM     18  N   UNL     1      43.203   2.721  11.333  0.00  0.00    +0.000 NA
ATOM     19  C   UNL     1      43.907   2.460  10.204  0.00  0.00    +0.000 A 
ATOM     20  C   UNL     1      44.983   3.214   9.728  0.00  0.00    +0.000 A 
ATOM     21  C   UNL     1      45.321   4.333  10.507  0.00  0.00    +0.000 A 
BRANCH  20  22
ATOM     22  C   UNL     1      45.728   2.847   8.503  0.00  0.00    +0.000 A 
ATOM     23  C   UNL     1      46.006   3.794   7.498  0.00  0.00    +0.000 A 
ATOM     24  C   UNL     1      46.745   3.459   6.359  0.00  0.00    +0.000 A 
ATOM     25  C   UNL     1      47.212   2.159   6.189  0.00  0.00    +0.000 A 
ATOM     26  C   UNL     1      46.936   1.197   7.153  0.00  0.00    +0.000 A 
ATOM     27  C   UNL     1      46.205   1.539   8.296  0.00  0.00    +0.000 A 
ENDBRANCH  20  22
ENDBRANCH  15  16
ENDBRANCH   1  15
TORSDOF 5
ENDMDL
MODEL 4
REMARK VINA RESULT:    -7.950      3.241      7.006
REMARK INTER + INTRA:         -11.133
REMARK INTER:                 -10.467
REMARK INTRA:                  -0.666
REMARK UNBOUND:                -0.859
REMARK  Name = 
REMARK  5 active torsions:
REMARK  status: ('A' for Active; 'I' for Inactive)
REMARK    1  A    between atoms: C_2  and  C_4
REMARK    2  A    between atoms: N_8  and  C_9
REMARK    3  A    between atoms: C_9  and  C_10
REMARK    4  A    between atoms: C_10  and  C_11
REMARK    5  A    between atoms: C_15  and  C_16
REMARK                            x       y       z     vdW  Elec       q    Type
REMARK                         _______ _______ _______ _____ _____    ______ ____
ROOT
ATOM      1  C   UNL     1      44.667   6.294  12.795  0.00  0.00    +0.000 C 
ENDROOT
BRANCH   1   6
ATOM      2  C   UNL     1      49.263   8.464  12.531  0.00  0.00    +0.000 A 
ATOM      3  C   UNL     1      48.698   7.480  11.727  0.00  0.00    +0.000 A 
ATOM      4  C   UNL     1      47.349   7.158  11.886  0.00  0.00    +0.000 A 
ATOM      5  C   UNL     1      46.589   7.819  12.850  0.00  0.00    +0.000 A 
ATOM      6  N   UNL     1      45.223   7.626  12.990  0.00  0.00    +0.000 N 
ATOM      7  N   UNL     1      47.132   8.755  13.657  0.00  0.00    +0.000 NA
ATOM      8  C   UNL     1      48.451   9.051  13.490  0.00  0.00    +0.000 A 
ATOM      9  H   UNL     1      44.932   8.123  13.829  0.00  0.00    +0.000 HD
BRANCH   2  11
ATOM     10  N   UNL     1      51.581   7.943  12.036  0.00  0.00    +0.000 N 
ATOM     11  C   UNL     1      50.665   8.896  12.391  0.00  0.00    +0.000 C 
ATOM     12  O   UNL     1      50.996  10.065  12.556  0.00  0.00    +0.000 OA
ATOM     13  H   UNL     1      52.517   8.269  11.837  0.00  0.00    +0.000 HD
ATOM     14  H   UNL     1      51.311   7.046  11.657  0.00  0.00    +0.000 HD
ENDBRANCH   2  11
ENDBRANCH   1   6
BRANCH   1  15
ATOM     15  C   UNL     1      44.013   6.181  11.412  0.00  0.00    +0.000 C 
BRANCH  15  16
ATOM     16  C   UNL     1      44.061   4.771  10.885  0.00  0.00    +0.000 A 
ATOM     17  C   UNL     1      43.339   3.753  11.489  0.00  0.00    +0.000 A 
ATOM     18  N   UNL     1      43.366   2.468  11.080  0.00  0.00    +0.000 NA
ATOM     19  C   UNL     1      44.153   2.186  10.011  0.00  0.00    +0.000 A 
ATOM     20  C   UNL     1      44.940   3.108   9.319  0.00  0.00    +0.000 A 
ATOM     21  C   UNL     1      44.872   4.429   9.793  0.00  0.00    +0.000 A 
BRANCH  20  22
ATOM     22  C   UNL     1      45.803   2.720   8.181  0.00  0.00    +0.000 A 
ATOM     23  C   UNL     1      46.093   3.618   7.135  0.00  0.00    +0.000 A 
ATOM     24  C   UNL     1      46.940   3.265   6.080  0.00  0.00    +0.000 A 
ATOM     25  C   UNL     1      47.508   1.995   6.036  0.00  0.00    +0.000 A 
ATOM     26  C   UNL     1      47.224   1.080   7.043  0.00  0.00    +0.000 A 
ATOM     27  C   UNL     1      46.383   1.440   8.101  0.00  0.00    +0.000 A 
ENDBRANCH  20  22
ENDBRANCH  15  16
ENDBRANCH   1  15
TORSDOF 5
ENDMDL
MODEL 5
REMARK VINA RESULT:    -7.855      1.667      2.366
REMARK INTER + INTRA:         -11.009
REMARK INTER:                 -10.314
REMARK INTRA:                  -0.695
REMARK UNBOUND:                -0.859
REMARK  Name = 
REMARK  5 active torsions:
REMARK  status: ('A' for Active; 'I' for Inactive)
REMARK    1  A    between atoms: C_2  and  C_4
REMARK    2  A    between atoms: N_8  and  C_9
REMARK    3  A    between atoms: C_9  and  C_10
REMARK    4  A    between atoms: C_10  and  C_11
REMARK    5  A    between atoms: C_15  and  C_16
REMARK                            x       y       z     vdW  Elec       q    Type
REMARK                         _______ _______ _______ _____ _____    ______ ____
ROOT
ATOM      1  C   UNL     1      43.263   4.427  11.073  0.00  0.00    +0.000 C 
ENDROOT
BRANCH   1   6
ATOM      2  C   UNL     1      46.521   2.497   7.674  0.00  0.00    +0.000 A 
ATOM      3  C   UNL     1      45.666   1.844   8.555  0.00  0.00    +0.000 A 
ATOM      4  C   UNL     1      44.733   2.587   9.280  0.00  0.00    +0.000 A 
ATOM      5  C   UNL     1      44.675   3.970   9.119  0.00  0.00    +0.000 A 
ATOM      6  N   UNL     1      43.707   4.756   9.725  0.00  0.00    +0.000 N 
ATOM      7  N   UNL     1      45.519   4.620   8.290  0.00  0.00    +0.000 NA
ATOM      8  C   UNL     1      46.425   3.878   7.595  0.00  0.00    +0.000 A 
ATOM      9  H   UNL     1      43.953   5.728   9.552  0.00  0.00    +0.000 HD
BRANCH   2  11
ATOM     10  N   UNL     1      48.580   2.488   6.389  0.00  0.00    +0.000 N 
ATOM     11  C   UNL     1      47.498   1.779   6.836  0.00  0.00    +0.000 C 
ATOM     12  O   UNL     1      47.366   0.589   6.573  0.00  0.00    +0.000 OA
ATOM     13  H   UNL     1      49.297   1.962   5.908  0.00  0.00    +0.000 HD
ATOM     14  H   UNL     1      48.843   3.381   6.784  0.00  0.00    +0.000 HD
ENDBRANCH   2  11
ENDBRANCH   1   6
BRANCH   1  15
ATOM     15  C   UNL     1      42.630   5.652  11.745  0.00  0.00    +0.000 C 
BRANCH  15  16
ATOM     16  C   UNL     1      43.541   6.851  11.692  0.00  0.00    +0.000 A 
ATOM     17  C   UNL     1      43.138   8.035  11.092  0.00  0.00    +0.000 A 
ATOM     18  N   UNL     1      43.920   9.129  10.990  0.00  0.00    +0.000 NA
ATOM     19  C   UNL     1      45.167   9.038  11.515  0.00  0.00    +0.000 A 
ATOM     20  C   UNL     1      45.705   7.907  12.133  0.00  0.00    +0.000 A 
ATOM     21  C   UNL     1      44.844   6.799  12.208  0.00  0.00    +0.000 A 
BRANCH  20  22
ATOM     22  C   UNL     1      47.090   7.869  12.652  0.00  0.00    +0.000 A 
ATOM     23  C   UNL     1      48.146   7.320  11.898  0.00  0.00    +0.000 A 
ATOM     24  C   UNL     1      49.462   7.320  12.372  0.00  0.00    +0.000 A 
ATOM     25  C   UNL     1      49.754   7.858  13.621  0.00  0.00    +0.000 A 
ATOM     26  C   UNL     1      48.730   8.389  14.398  0.00  0.00    +0.000 A 
ATOM     27  C   UNL     1      47.416   8.395  13.917  0.00  0.00    +0.000 A 
ENDBRANCH  20  22
ENDBRANCH  15  16
ENDBRANCH   1  15
TORSDOF 5
ENDMDL
MODEL 6
REMARK VINA RESULT:    -7.087      3.122      7.033
REMARK INTER + INTRA:         -10.017
REMARK INTER:                  -9.150
REMARK INTRA:                  -0.867
REMARK UNBOUND:                -0.859
REMARK  Name = 
REMARK  5 active torsions:
REMARK  status: ('A' for Active; 'I' for Inactive)
REMARK    1  A    between atoms: C_2  and  C_4
REMARK    2  A    between atoms: N_8  and  C_9
REMARK    3  A    between atoms: C_9  and  C_10
REMARK    4  A    between atoms: C_10  and  C_11
REMARK    5  A    between atoms: C_15  and  C_16
REMARK                            x       y       z     vdW  Elec       q    Type
REMARK                         _______ _______ _______ _____ _____    ______ ____
ROOT
ATOM      1  C   UNL     1      46.633   4.276  13.747  0.00  0.00    +0.000 C 
ENDROOT
BRANCH   1   6
ATOM      2  C   UNL     1      49.692   8.169  12.570  0.00  0.00    +0.000 A 
ATOM      3  C   UNL     1      48.693   7.565  11.815  0.00  0.00    +0.000 A 
ATOM      4  C   UNL     1      47.863   6.615  12.413  0.00  0.00    +0.000 A 
ATOM      5  C   UNL     1      48.049   6.280  13.753  0.00  0.00    +0.000 A 
ATOM      6  N   UNL     1      47.197   5.427  14.438  0.00  0.00    +0.000 N 
ATOM      7  N   UNL     1      49.034   6.837  14.490  0.00  0.00    +0.000 NA
ATOM      8  C   UNL     1      49.836   7.757  13.887  0.00  0.00    +0.000 A 
ATOM      9  H   UNL     1      47.614   5.251  15.350  0.00  0.00    +0.000 HD
BRANCH   2  11
ATOM     10  N   UNL     1      51.344   8.886  10.942  0.00  0.00    +0.000 N 
ATOM     11  C   UNL     1      50.576   9.215  12.026  0.00  0.00    +0.000 C 
ATOM     12  O   UNL     1      50.603  10.344  12.504  0.00  0.00    +0.000 OA
ATOM     13  H   UNL     1      51.864   9.639  10.512  0.00  0.00    +0.000 HD
ATOM     14  H   UNL     1      51.166   8.063  10.382  0.00  0.00    +0.000 HD
ENDBRANCH   2  11
ENDBRANCH   1   6
BRANCH   1  15
ATOM     15  C   UNL     1      45.112   4.419  13.616  0.00  0.00    +0.000 C 
BRANCH  15  16
ATOM     16  C   UNL     1      44.679   4.489  12.175  0.00  0.00    +0.000 A 
ATOM     17  C   UNL     1      43.539   5.185  11.799  0.00  0.00    +0.000 A 
ATOM     18  N   UNL     1      43.088   5.257  10.530  0.00  0.00    +0.000 NA
ATOM     19  C   UNL     1      43.813   4.604   9.587  0.00  0.00    +0.000 A 
ATOM     20  C   UNL     1      44.969   3.857   9.828  0.00  0.00    +0.000 A 
ATOM     21  C   UNL     1      45.388   3.817  11.168  0.00  0.00    +0.000 A 
BRANCH  20  22
ATOM     22  C   UNL     1      45.689   3.141   8.751  0.00  0.00    +0.000 A 
ATOM     23  C   UNL     1      45.832   1.740   8.766  0.00  0.00    +0.000 A 
ATOM     24  C   UNL     1      46.478   1.059   7.730  0.00  0.00    +0.000 A 
ATOM     25  C   UNL     1      47.011   1.765   6.656  0.00  0.00    +0.000 A 
ATOM     26  C   UNL     1      46.903   3.150   6.623  0.00  0.00    +0.000 A 
ATOM     27  C   UNL     1      46.248   3.827   7.657  0.00  0.00    +0.000 A 
ENDBRANCH  20  22
ENDBRANCH  15  16
ENDBRANCH   1  15
TORSDOF 5
ENDMDL
MODEL 7
REMARK VINA RESULT:    -6.945      3.711      7.615
REMARK INTER + INTRA:          -9.834
REMARK INTER:                  -8.968
REMARK INTRA:                  -0.866
REMARK UNBOUND:                -0.859
REMARK  Name = 
REMARK  5 active torsions:
REMARK  status: ('A' for Active; 'I' for Inactive)
REMARK    1  A    between atoms: C_2  and  C_4
REMARK    2  A    between atoms: N_8  and  C_9
REMARK    3  A    between atoms: C_9  and  C_10
REMARK    4  A    between atoms: C_10  and  C_11
REMARK    5  A    between atoms: C_15  and  C_16
REMARK                            x       y       z     vdW  Elec       q    Type
REMARK                         _______ _______ _______ _____ _____    ______ ____
ROOT
ATOM      1  C   UNL     1      49.064   8.419  13.828  0.00  0.00    +0.000 C 
ENDROOT
BRANCH   1   6
ATOM      2  C   UNL     1      48.100   4.451  16.864  0.00  0.00    +0.000 A 
ATOM      3  C   UNL     1      47.383   4.929  15.773  0.00  0.00    +0.000 A 
ATOM      4  C   UNL     1      47.934   5.938  14.982  0.00  0.00    +0.000 A 
ATOM      5  C   UNL     1      49.188   6.457  15.298  0.00  0.00    +0.000 A 
ATOM      6  N   UNL     1      49.840   7.383  14.497  0.00  0.00    +0.000 N 
ATOM      7  N   UNL     1      49.882   6.023  16.371  0.00  0.00    +0.000 NA
ATOM      8  C   UNL     1      49.326   5.042  17.134  0.00  0.00    +0.000 A 
ATOM      9  H   UNL     1      50.669   7.689  15.002  0.00  0.00    +0.000 HD
BRANCH   2  11
ATOM     10  N   UNL     1      48.328   3.073  18.850  0.00  0.00    +0.000 N 
ATOM     11  C   UNL     1      47.611   3.354  17.719  0.00  0.00    +0.000 C 
ATOM     12  O   UNL     1      46.587   2.737  17.447  0.00  0.00    +0.000 OA
ATOM     13  H   UNL     1      47.927   2.394  19.482  0.00  0.00    +0.000 HD
ATOM     14  H   UNL     1      49.018   3.709  19.226  0.00  0.00    +0.000 HD
ENDBRANCH   2  11
ENDBRANCH   1   6
BRANCH   1  15
ATOM     15  C   UNL     1      48.858   8.066  12.350  0.00  0.00    +0.000 C 
BRANCH  15  16
ATOM     16  C   UNL     1      47.412   7.776  12.041  0.00  0.00    +0.000 A 
ATOM     17  C   UNL     1      46.403   8.638  12.445  0.00  0.00    +0.000 A 
ATOM     18  N   UNL     1      45.092   8.415  12.223  0.00  0.00    +0.000 NA
ATOM     19  C   UNL     1      44.771   7.275  11.563  0.00  0.00    +0.000 A 
ATOM     20  C   UNL     1      45.681   6.315  11.113  0.00  0.00    +0.000 A 
ATOM     21  C   UNL     1      47.031   6.602  11.375  0.00  0.00    +0.000 A 
BRANCH  20  22
ATOM     22  C   UNL     1      45.253   5.075  10.429  0.00  0.00    +0.000 A 
ATOM     23  C   UNL     1      45.605   4.812   9.091  0.00  0.00    +0.000 A 
ATOM     24  C   UNL     1      45.234   3.622   8.456  0.00  0.00    +0.000 A 
ATOM     25  C   UNL     1      44.488   2.668   9.142  0.00  0.00    +0.000 A 
ATOM     26  C   UNL     1      44.109   2.908  10.457  0.00  0.00    +0.000 A 
ATOM     27  C   UNL     1      44.488   4.096  11.091  0.00  0.00    +0.000 A 
ENDBRANCH  20  22
ENDBRANCH  15  16
ENDBRANCH   1  15
TORSDOF 5
ENDMDL
MODEL 8
REMARK VINA RESULT:    -6.594      5.748      7.807
REMARK INTER + INTRA:          -9.380
REMARK INTER:                  -8.876
REMARK INTRA:                  -0.505
REMARK UNBOUND:                -0.859
REMARK  Name = 
REMARK  5 active torsions:
REMARK  status: ('A' for Active; 'I' for Inactive)
REMARK    1  A    between atoms: C_2  and  C_4
REMARK    2  A    between atoms: N_8  and  C_9
REMARK    3  A    between atoms: C_9  and  C_10
REMARK    4  A    between atoms: C_10  and  C_11
REMARK    5  A    between atoms: C_15  and  C_16
REMARK                            x       y       z     vdW  Elec       q    Type
REMARK                         _______ _______ _______ _____ _____    ______ ____
ROOT
ATOM      1  C   UNL     1      47.472   3.945  15.869  0.00  0.00    +0.000 C 
ENDROOT
BRANCH   1   6
ATOM      2  C   UNL     1      44.473   4.924  11.876  0.00  0.00    +0.000 A 
ATOM      3  C   UNL     1      45.076   5.801  12.770  0.00  0.00    +0.000 A 
ATOM      4  C   UNL     1      46.000   5.310  13.693  0.00  0.00    +0.000 A 
ATOM      5  C   UNL     1      46.303   3.949  13.712  0.00  0.00    +0.000 A 
ATOM      6  N   UNL     1      47.287   3.411  14.526  0.00  0.00    +0.000 N 
ATOM      7  N   UNL     1      45.703   3.081  12.869  0.00  0.00    +0.000 NA
ATOM      8  C   UNL     1      44.800   3.579  11.980  0.00  0.00    +0.000 A 
ATOM      9  H   UNL     1      47.227   2.398  14.444  0.00  0.00    +0.000 HD
BRANCH   2  11
ATOM     10  N   UNL     1      42.793   6.497  11.105  0.00  0.00    +0.000 N 
ATOM     11  C   UNL     1      43.525   5.371  10.840  0.00  0.00    +0.000 C 
ATOM     12  O   UNL     1      43.415   4.779   9.772  0.00  0.00    +0.000 OA
ATOM     13  H   UNL     1      42.228   6.856  10.348  0.00  0.00    +0.000 HD
ATOM     14  H   UNL     1      43.033   7.136  11.851  0.00  0.00    +0.000 HD
ENDBRANCH   2  11
ENDBRANCH   1   6
BRANCH   1  15
ATOM     15  C   UNL     1      48.018   2.862  16.808  0.00  0.00    +0.000 C 
BRANCH  15  16
ATOM     16  C   UNL     1      49.315   3.280  17.449  0.00  0.00    +0.000 A 
ATOM     17  C   UNL     1      49.425   4.482  18.133  0.00  0.00    +0.000 A 
ATOM     18  N   UNL     1      50.567   4.921  18.700  0.00  0.00    +0.000 NA
ATOM     19  C   UNL     1      51.655   4.119  18.581  0.00  0.00    +0.000 A 
ATOM     20  C   UNL     1      51.688   2.895  17.910  0.00  0.00    +0.000 A 
ATOM     21  C   UNL     1      50.470   2.491  17.338  0.00  0.00    +0.000 A 
BRANCH  20  22
ATOM     22  C   UNL     1      52.924   2.089  17.790  0.00  0.00    +0.000 A 
ATOM     23  C   UNL     1      52.880   0.688  17.655  0.00  0.00    +0.000 A 
ATOM     24  C   UNL     1      54.045  -0.070  17.502  0.00  0.00    +0.000 A 
ATOM     25  C   UNL     1      55.288   0.555  17.495  0.00  0.00    +0.000 A 
ATOM     26  C   UNL     1      55.365   1.934  17.647  0.00  0.00    +0.000 A 
ATOM     27  C   UNL     1      54.197   2.690  17.791  0.00  0.00    +0.000 A 
ENDBRANCH  20  22
ENDBRANCH  15  16
ENDBRANCH   1  15
TORSDOF 5
ENDMDL
MODEL 9
REMARK VINA RESULT:    -6.590      4.861      6.909
REMARK INTER + INTRA:          -9.375
REMARK INTER:                  -8.571
REMARK INTRA:                  -0.804
REMARK UNBOUND:                -0.859
REMARK  Name = 
REMARK  5 active torsions:
REMARK  status: ('A' for Active; 'I' for Inactive)
REMARK    1  A    between atoms: C_2  and  C_4
REMARK    2  A    between atoms: N_8  and  C_9
REMARK    3  A    between atoms: C_9  and  C_10
REMARK    4  A    between atoms: C_10  and  C_11
REMARK    5  A    between atoms: C_15  and  C_16
REMARK                            x       y       z     vdW  Elec       q    Type
REMARK                         _______ _______ _______ _____ _____    ______ ____
ROOT
ATOM      1  C   UNL     1      48.610   6.707  14.616  0.00  0.00    +0.000 C 
ENDROOT
BRANCH   1   6
ATOM      2  C   UNL     1      45.127   4.159  11.920  0.00  0.00    +0.000 A 
ATOM      3  C   UNL     1      45.981   3.707  12.920  0.00  0.00    +0.000 A 
ATOM      4  C   UNL     1      46.739   4.630  13.641  0.00  0.00    +0.000 A 
ATOM      5  C   UNL     1      46.636   5.989  13.347  0.00  0.00    +0.000 A 
ATOM      6  N   UNL     1      47.276   6.968  14.092  0.00  0.00    +0.000 N 
ATOM      7  N   UNL     1      45.833   6.439  12.360  0.00  0.00    +0.000 NA
ATOM      8  C   UNL     1      45.106   5.522  11.664  0.00  0.00    +0.000 A 
ATOM      9  H   UNL     1      47.143   7.853  13.606  0.00  0.00    +0.000 HD
BRANCH   2  11
ATOM     10  N   UNL     1      44.866   2.406  10.261  0.00  0.00    +0.000 N 
ATOM     11  C   UNL     1      44.257   3.253  11.148  0.00  0.00    +0.000 C 
ATOM     12  O   UNL     1      43.043   3.235  11.312  0.00  0.00    +0.000 OA
ATOM     13  H   UNL     1      44.274   1.716   9.817  0.00  0.00    +0.000 HD
ATOM     14  H   UNL     1      45.860   2.223  10.281  0.00  0.00    +0.000 HD
ENDBRANCH   2  11
ENDBRANCH   1   6
BRANCH   1  15
ATOM     15  C   UNL     1      48.609   6.775  16.148  0.00  0.00    +0.000 C 
BRANCH  15  16
ATOM     16  C   UNL     1      48.691   5.405  16.768  0.00  0.00    +0.000 A 
ATOM     17  C   UNL     1      47.556   4.755  17.230  0.00  0.00    +0.000 A 
ATOM     18  N   UNL     1      47.573   3.543  17.819  0.00  0.00    +0.000 NA
ATOM     19  C   UNL     1      48.784   2.947  17.954  0.00  0.00    +0.000 A 
ATOM     20  C   UNL     1      50.004   3.492  17.547  0.00  0.00    +0.000 A 
ATOM     21  C   UNL     1      49.923   4.757  16.942  0.00  0.00    +0.000 A 
BRANCH  20  22
ATOM     22  C   UNL     1      51.293   2.797  17.759  0.00  0.00    +0.000 A 
ATOM     23  C   UNL     1      52.412   3.465  18.293  0.00  0.00    +0.000 A 
ATOM     24  C   UNL     1      53.619   2.799  18.530  0.00  0.00    +0.000 A 
ATOM     25  C   UNL     1      53.742   1.447  18.224  0.00  0.00    +0.000 A 
ATOM     26  C   UNL     1      52.661   0.765  17.677  0.00  0.00    +0.000 A 
ATOM     27  C   UNL     1      51.453   1.433  17.450  0.00  0.00    +0.000 A 
ENDBRANCH  20  22
ENDBRANCH  15  16
ENDBRANCH   1  15
TORSDOF 5
ENDMDL
