MODEL 1
REMARK VINA RESULT:    -7.848      0.000      0.000
REMARK INTER + INTRA:         -10.107
REMARK INTER:                  -9.683
REMARK INTRA:                  -0.424
REMARK UNBOUND:                -0.424
REMARK  Name = 
REMARK  4 active torsions:
REMARK  status: ('A' for Active; 'I' for Inactive)
REMARK    1  A    between atoms: C_2  and  C_4
REMARK    2  A    between atoms: C_7  and  C_8
REMARK    3  A    between atoms: C_8  and  N_9
REMARK    4  A    between atoms: N_9  and  C_10
REMARK                            x       y       z     vdW  Elec       q    Type
REMARK                         _______ _______ _______ _____ _____    ______ ____
ROOT
ATOM      1  C   UNL     1      46.390   2.437   7.725  0.00  0.00    +0.000 A 
ATOM      2  C   UNL     1      45.631   1.786   8.699  0.00  0.00    +0.000 A 
ATOM      3  C   UNL     1      44.746   2.526   9.486  0.00  0.00    +0.000 A 
ATOM      4  C   UNL     1      44.650   3.904   9.289  0.00  0.00    +0.000 A 
ATOM      5  N   UNL     1      45.386   4.549   8.348  0.00  0.00    +0.000 NA
ATOM      6  C   UNL     1      46.240   3.810   7.595  0.00  0.00    +0.000 A 
ENDROOT
BRANCH   1   8
ATOM      7  N   UNL     1      48.459   2.454   6.448  0.00  0.00    +0.000 N 
ATOM      8  C   UNL     1      47.360   1.746   6.852  0.00  0.00    +0.000 C 
ATOM      9  O   UNL     1      47.210   0.575   6.528  0.00  0.00    +0.000 OA
ATOM     10  H   UNL     1      49.165   1.930   5.945  0.00  0.00    +0.000 HD
ATOM     11  H   UNL     1      48.747   3.314   6.892  0.00  0.00    +0.000 HD
ENDBRANCH   1   8
BRANCH   4  12
ATOM     12  C   UNL     1      43.716   4.746  10.142  0.00  0.00    +0.000 C 
BRANCH  12  13
ATOM     13  N   UNL     1      44.433   5.830  10.814  0.00  0.00    +0.000 N 
ATOM     14  H   UNL     1      43.849   6.637  11.011  0.00  0.00    +0.000 HD
BRANCH  13  15
ATOM     15  C   UNL     1      45.332   5.530  11.838  0.00  0.00    +0.000 A 
ATOM     16  C   UNL     1      46.553   6.184  12.019  0.00  0.00    +0.000 A 
ATOM     17  C   UNL     1      47.368   5.887  13.114  0.00  0.00    +0.000 A 
ATOM     18  C   UNL     1      46.931   4.946  14.027  0.00  0.00    +0.000 A 
ATOM     19  N   UNL     1      45.749   4.307  13.925  0.00  0.00    +0.000 NA
ATOM     20  C   UNL     1      44.981   4.632  12.854  0.00  0.00    +0.000 A 
ENDBRANCH  13  15
ENDBRANCH  12  13
ENDBRANCH   4  12
TORSDOF 4
ENDMDL
MODEL 2
REMARK VINA RESULT:    -7.234      2.656      5.944
REMARK INTER + INTRA:          -9.350
REMARK INTER:                  -8.995
REMARK INTRA:                  -0.355
REMARK UNBOUND:                -0.424
REMARK  Name = 
REMARK  4 active torsions:
REMARK  status: ('A' for Active; 'I' for Inactive)
REMARK    1  A    between atoms: C_2  and  C_4
REMARK    2  A    between atoms: C_7  and  C_8
REMARK    3  A    between atoms: C_8  and  N_9
REMARK    4  A    between atoms: N_9  and  C_10
REMARK                            x       y       z     vdW  Elec       q    Type
REMARK                         _______ _______ _______ _____ _____    ______ ____
ROOT
ATOM      1  C   UNL     1      46.632   5.373  13.055  0.00  0.00    +0.000 A 
ATOM      2  C   UNL     1      46.503   6.148  11.902  0.00  0.00    +0.000 A 
ATOM      3  C   UNL     1      45.573   5.779  10.927  0.00  0.00    +0.000 A 
ATOM      4  C   UNL     1      44.802   4.632  11.124  0.00  0.00    +0.000 A 
ATOM      5  N   UNL     1      44.922   3.867  12.239  0.00  0.00    +0.000 NA
ATOM      6  C   UNL     1      45.832   4.245  13.172  0.00  0.00    +0.000 A 
ENDROOT
BRANCH   1   8
ATOM      7  N   UNL     1      47.283   5.232  15.393  0.00  0.00    +0.000 N 
ATOM      8  C   UNL     1      47.592   5.674  14.135  0.00  0.00    +0.000 C 
ATOM      9  O   UNL     1      48.640   6.266  13.915  0.00  0.00    +0.000 OA
ATOM     10  H   UNL     1      48.004   5.350  16.095  0.00  0.00    +0.000 HD
ATOM     11  H   UNL     1      46.576   4.533  15.566  0.00  0.00    +0.000 HD
ENDBRANCH   1   8
BRANCH   4  12
ATOM     12  C   UNL     1      43.798   4.185  10.075  0.00  0.00    +0.000 C 
BRANCH  12  13
ATOM     13  N   UNL     1      44.331   4.338   8.721  0.00  0.00    +0.000 N 
ATOM     14  H   UNL     1      44.587   5.295   8.495  0.00  0.00    +0.000 HD
BRANCH  13  15
ATOM     15  C   UNL     1      45.224   3.390   8.219  0.00  0.00    +0.000 A 
ATOM     16  C   UNL     1      46.247   3.684   7.316  0.00  0.00    +0.000 A 
ATOM     17  C   UNL     1      47.155   2.699   6.918  0.00  0.00    +0.000 A 
ATOM     18  C   UNL     1      47.031   1.431   7.454  0.00  0.00    +0.000 A 
ATOM     19  N   UNL     1      46.087   1.096   8.355  0.00  0.00    +0.000 NA
ATOM     20  C   UNL     1      45.232   2.084   8.725  0.00  0.00    +0.000 A 
ENDBRANCH  13  15
ENDBRANCH  12  13
ENDBRANCH   4  12
TORSDOF 4
ENDMDL
MODEL 3
REMARK VINA RESULT:    -6.829      2.853      6.236
REMARK INTER + INTRA:          -8.850
REMARK INTER:                  -8.590
REMARK INTRA:                  -0.260
REMARK UNBOUND:                -0.424
REMARK  Name = 
REMARK  4 active torsions:
REMARK  status: ('A' for Active; 'I' for Inactive)
REMARK    1  A    between atoms: C_2  and  C_4
REMARK    2  A    between atoms: C_7  and  C_8
REMARK    3  A    between atoms: C_8  and  N_9
REMARK    4  A    between atoms: N_9  and  C_10
REMARK                            x       y       z     vdW  Elec       q    Type
REMARK                         _______ _______ _______ _____ _____    ______ ____
ROOT
ATOM      1  C   UNL     1      45.646   6.006  12.258  0.00  0.00    +0.000 A 
ATOM      2  C   UNL     1      45.139   4.832  12.816  0.00  0.00    +0.000 A 
ATOM      3  C   UNL     1      44.701   3.806  11.975  0.00  0.00    +0.000 A 
ATOM      4  C   UNL     1      44.769   3.985  10.593  0.00  0.00    +0.000 A 
ATOM      5  N   UNL     1      45.256   5.125  10.038  0.00  0.00    +0.000 NA
ATOM      6  C   UNL     1      45.675   6.108  10.875  0.00  0.00    +0.000 A 
ENDROOT
BRANCH   1   8
ATOM      7  N   UNL     1      47.201   6.939  13.878  0.00  0.00    +0.000 N 
ATOM      8  C   UNL     1      46.122   7.149  13.061  0.00  0.00    +0.000 C 
ATOM      9  O   UNL     1      45.599   8.253  12.981  0.00  0.00    +0.000 OA
ATOM     10  H   UNL     1      47.580   7.760  14.334  0.00  0.00    +0.000 HD
ATOM     11  H   UNL     1      47.809   6.138  13.782  0.00  0.00    +0.000 HD
ENDBRANCH   1   8
BRANCH   4  12
ATOM     12  C   UNL     1      44.279   2.902   9.646  0.00  0.00    +0.000 C 
BRANCH  12  13
ATOM     13  N   UNL     1      45.341   1.948   9.326  0.00  0.00    +0.000 N 
ATOM     14  H   UNL     1      45.112   0.991   9.577  0.00  0.00    +0.000 HD
BRANCH  13  15
ATOM     15  C   UNL     1      46.023   2.057   8.113  0.00  0.00    +0.000 A 
ATOM     16  C   UNL     1      45.967   3.182   7.286  0.00  0.00    +0.000 A 
ATOM     17  C   UNL     1      46.740   3.255   6.124  0.00  0.00    +0.000 A 
ATOM     18  C   UNL     1      47.577   2.197   5.821  0.00  0.00    +0.000 A 
ATOM     19  N   UNL     1      47.700   1.103   6.596  0.00  0.00    +0.000 NA
ATOM     20  C   UNL     1      46.942   1.075   7.722  0.00  0.00    +0.000 A 
ENDBRANCH  13  15
ENDBRANCH  12  13
ENDBRANCH   4  12
TORSDOF 4
ENDMDL
MODEL 4
REMARK VINA RESULT:    -5.567      1.777      2.245
REMARK INTER + INTRA:          -7.293
REMARK INTER:                  -6.935
REMARK INTRA:                  -0.358
REMARK UNBOUND:                -0.424
REMARK  Name = 
REMARK  4 active torsions:
REMARK  status: ('A' for Active; 'I' for Inactive)
REMARK    1  A    between atoms: C_2  and  C_4
REMARK    2  A    between atoms: C_7  and  C_8
REMARK    3  A    between atoms: C_8  and  N_9
REMARK    4  A    between atoms: N_9  and  C_10
REMARK                            x       y       z     vdW  Elec       q    Type
REMARK                         _______ _______ _______ _____ _____    ______ ____
ROOT
ATOM      1  C   UNL     1      45.341   3.278   8.753  0.00  0.00    +0.000 A 
ATOM      2  C   UNL     1      44.453   2.671   9.642  0.00  0.00    +0.000 A 
ATOM      3  C   UNL     1      43.789   3.453  10.590  0.00  0.00    +0.000 A 
ATOM      4  C   UNL     1      44.041   4.825  10.635  0.00  0.00    +0.000 A 
ATOM      5  N   UNL     1      44.906   5.426   9.778  0.00  0.00    +0.000 NA
ATOM      6  C   UNL     1      45.540   4.646   8.867  0.00  0.00    +0.000 A 
ENDROOT
BRANCH   1   8
ATOM      7  N   UNL     1      46.465   1.251   8.019  0.00  0.00    +0.000 N 
ATOM      8  C   UNL     1      46.097   2.536   7.725  0.00  0.00    +0.000 C 
ATOM      9  O   UNL     1      46.359   3.033   6.637  0.00  0.00    +0.000 OA
ATOM     10  H   UNL     1      46.883   0.724   7.261  0.00  0.00    +0.000 HD
ATOM     11  H   UNL     1      46.055   0.728   8.779  0.00  0.00    +0.000 HD
ENDBRANCH   1   8
BRANCH   4  12
ATOM     12  C   UNL     1      43.357   5.705  11.668  0.00  0.00    +0.000 C 
BRANCH  12  13
ATOM     13  N   UNL     1      44.116   5.756  12.918  0.00  0.00    +0.000 N 
ATOM     14  H   UNL     1      44.060   4.899  13.458  0.00  0.00    +0.000 HD
BRANCH  13  15
ATOM     15  C   UNL     1      45.384   6.341  12.930  0.00  0.00    +0.000 A 
ATOM     16  C   UNL     1      46.570   5.625  13.108  0.00  0.00    +0.000 A 
ATOM     17  C   UNL     1      47.810   6.264  13.028  0.00  0.00    +0.000 A 
ATOM     18  C   UNL     1      47.838   7.618  12.751  0.00  0.00    +0.000 A 
ATOM     19  N   UNL     1      46.731   8.354  12.536  0.00  0.00    +0.000 NA
ATOM     20  C   UNL     1      45.547   7.694  12.610  0.00  0.00    +0.000 A 
ENDBRANCH  13  15
ENDBRANCH  12  13
ENDBRANCH   4  12
TORSDOF 4
ENDMDL
MODEL 5
REMARK VINA RESULT:    -5.364      2.266      3.692
REMARK INTER + INTRA:          -7.043
REMARK INTER:                  -6.776
REMARK INTRA:                  -0.267
REMARK UNBOUND:                -0.424
REMARK  Name = 
REMARK  4 active torsions:
REMARK  status: ('A' for Active; 'I' for Inactive)
REMARK    1  A    between atoms: C_2  and  C_4
REMARK    2  A    between atoms: C_7  and  C_8
REMARK    3  A    between atoms: C_8  and  N_9
REMARK    4  A    between atoms: N_9  and  C_10
REMARK                            x       y       z     vdW  Elec       q    Type
REMARK                         _______ _______ _______ _____ _____    ______ ____
ROOT
ATOM      1  C   UNL     1      45.258   4.086   9.451  0.00  0.00    +0.000 A 
ATOM      2  C   UNL     1      44.861   3.100  10.355  0.00  0.00    +0.000 A 
ATOM      3  C   UNL     1      44.876   3.377  11.724  0.00  0.00    +0.000 A 
ATOM      4  C   UNL     1      45.301   4.634  12.157  0.00  0.00    +0.000 A 
ATOM      5  N   UNL     1      45.694   5.600  11.288  0.00  0.00    +0.000 NA
ATOM      6  C   UNL     1      45.672   5.307   9.963  0.00  0.00    +0.000 A 
ENDROOT
BRANCH   1   8
ATOM      7  N   UNL     1      44.210   3.264   7.417  0.00  0.00    +0.000 N 
ATOM      8  C   UNL     1      45.288   3.885   7.989  0.00  0.00    +0.000 C 
ATOM      9  O   UNL     1      46.220   4.287   7.305  0.00  0.00    +0.000 OA
ATOM     10  H   UNL     1      44.199   3.236   6.405  0.00  0.00    +0.000 HD
ATOM     11  H   UNL     1      43.328   3.154   7.896  0.00  0.00    +0.000 HD
ENDBRANCH   1   8
BRANCH   4  12
ATOM     12  C   UNL     1      45.355   4.965  13.640  0.00  0.00    +0.000 C 
BRANCH  12  13
ATOM     13  N   UNL     1      46.213   4.030  14.369  0.00  0.00    +0.000 N 
ATOM     14  H   UNL     1      46.561   3.270  13.792  0.00  0.00    +0.000 HD
BRANCH  13  15
ATOM     15  C   UNL     1      47.157   4.522  15.272  0.00  0.00    +0.000 A 
ATOM     16  C   UNL     1      47.476   3.900  16.481  0.00  0.00    +0.000 A 
ATOM     17  C   UNL     1      48.490   4.405  17.299  0.00  0.00    +0.000 A 
ATOM     18  C   UNL     1      49.184   5.523  16.876  0.00  0.00    +0.000 A 
ATOM     19  N   UNL     1      48.945   6.146  15.706  0.00  0.00    +0.000 NA
ATOM     20  C   UNL     1      47.961   5.618  14.934  0.00  0.00    +0.000 A 
ENDBRANCH  13  15
ENDBRANCH  12  13
ENDBRANCH   4  12
TORSDOF 4
ENDMDL
MODEL 6
REMARK VINA RESULT:    -5.353      3.342      5.452
REMARK INTER + INTRA:          -7.029
REMARK INTER:                  -6.678
REMARK INTRA:                  -0.351
REMARK UNBOUND:                -0.424
REMARK  Name = 
REMARK  4 active torsions:
REMARK  status: ('A' for Active; 'I' for Inactive)
REMARK    1  A    between atoms: C_2  and  C_4
REMARK    2  A    between atoms: C_7  and  C_8
REMARK    3  A    between atoms: C_8  and  N_9
REMARK    4  A    between atoms: N_9  and  C_10
REMARK                            x       y       z     vdW  Elec       q    Type
REMARK                         _______ _______ _______ _____ _____    ______ ____
ROOT
ATOM      1  C   UNL     1      45.024   4.417  11.633  0.00  0.00    +0.000 A 
ATOM      2  C   UNL     1      45.596   3.548  12.562  0.00  0.00    +0.000 A 
ATOM      3  C   UNL     1      46.511   4.045  13.493  0.00  0.00    +0.000 A 
ATOM      4  C   UNL     1      46.842   5.400  13.463  0.00  0.00    +0.000 A 
ATOM      5  N   UNL     1      46.296   6.255  12.560  0.00  0.00    +0.000 NA
ATOM      6  C   UNL     1      45.410   5.749  11.665  0.00  0.00    +0.000 A 
ENDROOT
BRANCH   1   8
ATOM      7  N   UNL     1      44.092   4.631   9.397  0.00  0.00    +0.000 N 
ATOM      8  C   UNL     1      44.057   3.986  10.604  0.00  0.00    +0.000 C 
ATOM      9  O   UNL     1      43.275   3.066  10.803  0.00  0.00    +0.000 OA
ATOM     10  H   UNL     1      43.500   4.247   8.670  0.00  0.00    +0.000 HD
ATOM     11  H   UNL     1      44.873   5.202   9.107  0.00  0.00    +0.000 HD
ENDBRANCH   1   8
BRANCH   4  12
ATOM     12  C   UNL     1      47.852   5.973  14.444  0.00  0.00    +0.000 C 
BRANCH  12  13
ATOM     13  N   UNL     1      47.565   5.557  15.816  0.00  0.00    +0.000 N 
ATOM     14  H   UNL     1      46.599   5.276  15.958  0.00  0.00    +0.000 HD
BRANCH  13  15
ATOM     15  C   UNL     1      48.483   4.760  16.502  0.00  0.00    +0.000 A 
ATOM     16  C   UNL     1      48.334   3.384  16.688  0.00  0.00    +0.000 A 
ATOM     17  C   UNL     1      49.333   2.634  17.314  0.00  0.00    +0.000 A 
ATOM     18  C   UNL     1      50.482   3.282  17.728  0.00  0.00    +0.000 A 
ATOM     19  N   UNL     1      50.698   4.599  17.546  0.00  0.00    +0.000 NA
ATOM     20  C   UNL     1      49.709   5.289  16.923  0.00  0.00    +0.000 A 
ENDBRANCH  13  15
ENDBRANCH  12  13
ENDBRANCH   4  12
TORSDOF 4
ENDMDL
MODEL 7
REMARK VINA RESULT:    -5.185      5.174      8.193
REMARK INTER + INTRA:          -6.822
REMARK INTER:                  -6.534
REMARK INTRA:                  -0.288
REMARK UNBOUND:                -0.424
REMARK  Name = 
REMARK  4 active torsions:
REMARK  status: ('A' for Active; 'I' for Inactive)
REMARK    1  A    between atoms: C_2  and  C_4
REMARK    2  A    between atoms: C_7  and  C_8
REMARK    3  A    between atoms: C_8  and  N_9
REMARK    4  A    between atoms: N_9  and  C_10
REMARK                            x       y       z     vdW  Elec       q    Type
REMARK                         _______ _______ _______ _____ _____    ______ ____
ROOT
ATOM      1  C   UNL     1      50.966   2.915  17.544  0.00  0.00    +0.000 A 
ATOM      2  C   UNL     1      50.018   1.969  17.151  0.00  0.00    +0.000 A 
ATOM      3  C   UNL     1      48.782   2.399  16.664  0.00  0.00    +0.000 A 
ATOM      4  C   UNL     1      48.518   3.767  16.594  0.00  0.00    +0.000 A 
ATOM      5  N   UNL     1      49.430   4.697  16.977  0.00  0.00    +0.000 NA
ATOM      6  C   UNL     1      50.624   4.256  17.448  0.00  0.00    +0.000 A 
ENDROOT
BRANCH   1   8
ATOM      7  N   UNL     1      52.546   1.236  18.317  0.00  0.00    +0.000 N 
ATOM      8  C   UNL     1      52.295   2.561  18.082  0.00  0.00    +0.000 C 
ATOM      9  O   UNL     1      53.154   3.410  18.279  0.00  0.00    +0.000 OA
ATOM     10  H   UNL     1      53.497   1.003  18.578  0.00  0.00    +0.000 HD
ATOM     11  H   UNL     1      51.975   0.497  17.933  0.00  0.00    +0.000 HD
ENDBRANCH   1   8
BRANCH   4  12
ATOM     12  C   UNL     1      47.175   4.272  16.092  0.00  0.00    +0.000 C 
BRANCH  12  13
ATOM     13  N   UNL     1      46.861   3.740  14.766  0.00  0.00    +0.000 N 
ATOM     14  H   UNL     1      46.269   2.915  14.793  0.00  0.00    +0.000 HD
BRANCH  13  15
ATOM     15  C   UNL     1      46.546   4.618  13.728  0.00  0.00    +0.000 A 
ATOM     16  C   UNL     1      47.389   5.642  13.291  0.00  0.00    +0.000 A 
ATOM     17  C   UNL     1      47.044   6.433  12.192  0.00  0.00    +0.000 A 
ATOM     18  C   UNL     1      45.859   6.167  11.534  0.00  0.00    +0.000 A 
ATOM     19  N   UNL     1      45.022   5.172  11.886  0.00  0.00    +0.000 NA
ATOM     20  C   UNL     1      45.399   4.418  12.951  0.00  0.00    +0.000 A 
ENDBRANCH  13  15
ENDBRANCH  12  13
ENDBRANCH   4  12
TORSDOF 4
ENDMDL
MODEL 8
REMARK VINA RESULT:    -5.149      3.416      5.025
REMARK INTER + INTRA:          -6.778
REMARK INTER:                  -6.362
REMARK INTRA:                  -0.415
REMARK UNBOUND:                -0.424
REMARK  Name = 
REMARK  4 active torsions:
REMARK  status: ('A' for Active; 'I' for Inactive)
REMARK    1  A    between atoms: C_2  and  C_4
REMARK    2  A    between atoms: C_7  and  C_8
REMARK    3  A    between atoms: C_8  and  N_9
REMARK    4  A    between atoms: N_9  and  C_10
REMARK                            x       y       z     vdW  Elec       q    Type
REMARK                         _______ _______ _______ _____ _____    ______ ____
ROOT
ATOM      1  C   UNL     1      44.485   4.278  11.300  0.00  0.00    +0.000 A 
ATOM      2  C   UNL     1      45.226   5.156  10.508  0.00  0.00    +0.000 A 
ATOM      3  C   UNL     1      45.609   6.394  11.029  0.00  0.00    +0.000 A 
ATOM      4  C   UNL     1      45.229   6.731  12.329  0.00  0.00    +0.000 A 
ATOM      5  N   UNL     1      44.504   5.887  13.108  0.00  0.00    +0.000 NA
ATOM      6  C   UNL     1      44.143   4.691  12.580  0.00  0.00    +0.000 A 
ENDROOT
BRANCH   1   8
ATOM      7  N   UNL     1      43.384   2.157  11.746  0.00  0.00    +0.000 N 
ATOM      8  C   UNL     1      44.025   2.955  10.836  0.00  0.00    +0.000 C 
ATOM      9  O   UNL     1      44.176   2.592   9.678  0.00  0.00    +0.000 OA
ATOM     10  H   UNL     1      42.978   1.303  11.380  0.00  0.00    +0.000 HD
ATOM     11  H   UNL     1      43.015   2.511  12.616  0.00  0.00    +0.000 HD
ENDBRANCH   1   8
BRANCH   4  12
ATOM     12  C   UNL     1      45.605   8.078  12.922  0.00  0.00    +0.000 C 
BRANCH  12  13
ATOM     13  N   UNL     1      46.887   8.017  13.625  0.00  0.00    +0.000 N 
ATOM     14  H   UNL     1      46.964   7.222  14.253  0.00  0.00    +0.000 HD
BRANCH  13  15
ATOM     15  C   UNL     1      48.067   8.297  12.934  0.00  0.00    +0.000 A 
ATOM     16  C   UNL     1      48.958   7.320  12.486  0.00  0.00    +0.000 A 
ATOM     17  C   UNL     1      50.080   7.668  11.729  0.00  0.00    +0.000 A 
ATOM     18  C   UNL     1      50.278   9.000  11.416  0.00  0.00    +0.000 A 
ATOM     19  N   UNL     1      49.436   9.982  11.790  0.00  0.00    +0.000 NA
ATOM     20  C   UNL     1      48.351   9.602  12.513  0.00  0.00    +0.000 A 
ENDBRANCH  13  15
ENDBRANCH  12  13
ENDBRANCH   4  12
TORSDOF 4
ENDMDL
MODEL 9
REMARK VINA RESULT:    -5.109      3.713      6.419
REMARK INTER + INTRA:          -6.728
REMARK INTER:                  -6.380
REMARK INTRA:                  -0.349
REMARK UNBOUND:                -0.424
REMARK  Name = 
REMARK  4 active torsions:
REMARK  status: ('A' for Active; 'I' for Inactive)
REMARK    1  A    between atoms: C_2  and  C_4
REMARK    2  A    between atoms: C_7  and  C_8
REMARK    3  A    between atoms: C_8  and  N_9
REMARK    4  A    between atoms: N_9  and  C_10
REMARK                            x       y       z     vdW  Elec       q    Type
REMARK                         _______ _______ _______ _____ _____    ______ ____
ROOT
ATOM      1  C   UNL     1      49.058   7.418  13.177  0.00  0.00    +0.000 A 
ATOM      2  C   UNL     1      48.728   7.523  11.824  0.00  0.00    +0.000 A 
ATOM      3  C   UNL     1      47.485   7.064  11.384  0.00  0.00    +0.000 A 
ATOM      4  C   UNL     1      46.605   6.496  12.307  0.00  0.00    +0.000 A 
ATOM      5  N   UNL     1      46.916   6.384  13.623  0.00  0.00    +0.000 NA
ATOM      6  C   UNL     1      48.130   6.837  14.028  0.00  0.00    +0.000 A 
ENDROOT
BRANCH   1   8
ATOM      7  N   UNL     1      51.358   8.136  12.852  0.00  0.00    +0.000 N 
ATOM      8  C   UNL     1      50.349   7.864  13.736  0.00  0.00    +0.000 C 
ATOM      9  O   UNL     1      50.508   8.018  14.940  0.00  0.00    +0.000 OA
ATOM     10  H   UNL     1      52.196   8.546  13.246  0.00  0.00    +0.000 HD
ATOM     11  H   UNL     1      51.195   8.270  11.864  0.00  0.00    +0.000 HD
ENDBRANCH   1   8
BRANCH   4  12
ATOM     12  C   UNL     1      45.253   5.963  11.861  0.00  0.00    +0.000 C 
BRANCH  12  13
ATOM     13  N   UNL     1      45.156   5.895  10.403  0.00  0.00    +0.000 N 
ATOM     14  H   UNL     1      45.779   6.541   9.928  0.00  0.00    +0.000 HD
BRANCH  13  15
ATOM     15  C   UNL     1      45.059   4.652   9.775  0.00  0.00    +0.000 A 
ATOM     16  C   UNL     1      45.654   4.350   8.549  0.00  0.00    +0.000 A 
ATOM     17  C   UNL     1      45.583   3.059   8.018  0.00  0.00    +0.000 A 
ATOM     18  C   UNL     1      44.927   2.082   8.743  0.00  0.00    +0.000 A 
ATOM     19  N   UNL     1      44.364   2.305   9.946  0.00  0.00    +0.000 NA
ATOM     20  C   UNL     1      44.465   3.568  10.433  0.00  0.00    +0.000 A 
ENDBRANCH  13  15
ENDBRANCH  12  13
ENDBRANCH   4  12
TORSDOF 4
ENDMDL
