MODEL 1
REMARK VINA RESULT:    -8.485      0.000      0.000
REMARK INTER + INTRA:         -11.802
REMARK INTER:                 -10.966
REMARK INTRA:                  -0.836
REMARK UNBOUND:                -0.836
REMARK  Name = 
REMARK  5 active torsions:
REMARK  status: ('A' for Active; 'I' for Inactive)
REMARK    1  A    between atoms: C_2  and  C_4
REMARK    2  A    between atoms: C_7  and  N_8
REMARK    3  A    between atoms: N_8  and  C_9
REMARK    4  A    between atoms: C_9  and  C_10
REMARK    5  A    between atoms: C_14  and  N_15
REMARK                            x       y       z     vdW  Elec       q    Type
REMARK                         _______ _______ _______ _____ _____    ______ ____
ROOT
ATOM      1  C   UNL     1      43.440   4.635  11.251  0.00  0.00    +0.000 C 
ENDROOT
BRANCH   1   2
ATOM      2  C   UNL     1      44.684   4.778  12.088  0.00  0.00    +0.000 A 
ATOM      3  C   UNL     1      45.141   3.667  12.788  0.00  0.00    +0.000 A 
ATOM      4  N   UNL     1      46.243   3.658  13.561  0.00  0.00    +0.000 NA
ATOM      5  C   UNL     1      46.925   4.825  13.641  0.00  0.00    +0.000 A 
ATOM      6  C   UNL     1      46.584   6.019  12.999  0.00  0.00    +0.000 A 
ATOM      7  C   UNL     1      45.428   5.961  12.216  0.00  0.00    +0.000 A 
BRANCH   6   8
ATOM      8  N   UNL     1      47.337   7.170  13.132  0.00  0.00    +0.000 N 
ATOM      9  C   UNL     1      46.738   8.501  13.301  0.00  0.00    +0.000 C 
ATOM     10  C   UNL     1      47.189   9.457  12.176  0.00  0.00    +0.000 C 
ATOM     11  N   UNL     1      48.656   9.517  12.005  0.00  0.00    +0.000 NA
ATOM     12  C   UNL     1      49.159   8.147  11.766  0.00  0.00    +0.000 C 
ATOM     13  C   UNL     1      48.784   7.142  12.881  0.00  0.00    +0.000 C 
ATOM     14  H   UNL     1      49.061   9.849  12.880  0.00  0.00    +0.000 HD
ENDBRANCH   6   8
ENDBRANCH   1   2
BRANCH   1  15
ATOM     15  N   UNL     1      43.669   4.685   9.816  0.00  0.00    +0.000 N 
ATOM     16  H   UNL     1      42.846   4.881   9.254  0.00  0.00    +0.000 HD
BRANCH  15  20
ATOM     17  C   UNL     1      46.484   2.360   7.716  0.00  0.00    +0.000 A 
ATOM     18  C   UNL     1      46.516   3.750   7.598  0.00  0.00    +0.000 A 
ATOM     19  C   UNL     1      45.610   4.532   8.319  0.00  0.00    +0.000 A 
ATOM     20  C   UNL     1      44.670   3.960   9.183  0.00  0.00    +0.000 A 
ATOM     21  C   UNL     1      44.656   2.561   9.296  0.00  0.00    +0.000 A 
ATOM     22  C   UNL     1      45.552   1.766   8.572  0.00  0.00    +0.000 A 
BRANCH  17  24
ATOM     23  N   UNL     1      48.492   2.050   6.373  0.00  0.00    +0.000 N 
ATOM     24  C   UNL     1      47.365   1.490   6.902  0.00  0.00    +0.000 C 
ATOM     25  O   UNL     1      47.106   0.305   6.721  0.00  0.00    +0.000 OA
ATOM     26  H   UNL     1      49.118   1.421   5.885  0.00  0.00    +0.000 HD
ATOM     27  H   UNL     1      48.866   2.931   6.697  0.00  0.00    +0.000 HD
ENDBRANCH  17  24
ENDBRANCH  15  20
ENDBRANCH   1  15
TORSDOF 5
ENDMDL
MODEL 2
REMARK VINA RESULT:    -8.308      1.693      2.886
REMARK INTER + INTRA:         -11.572
REMARK INTER:                 -10.767
REMARK INTRA:                  -0.805
REMARK UNBOUND:                -0.836
REMARK  Name = 
REMARK  5 active torsions:
REMARK  status: ('A' for Active; 'I' for Inactive)
REMARK    1  A    between atoms: C_2  and  C_4
REMARK    2  A    between atoms: C_7  and  N_8
REMARK    3  A    between atoms: N_8  and  C_9
REMARK    4  A    between atoms: C_9  and  C_10
REMARK    5  A    between atoms: C_14  and  N_15
REMARK                            x       y       z     vdW  Elec       q    Type
REMARK                         _______ _______ _______ _____ _____    ______ ____
ROOT
ATOM      1  C   UNL     1      43.434   5.174  11.050  0.00  0.00    +0.000 C 
ENDROOT
BRANCH   1   2
ATOM      2  C   UNL     1      44.541   5.933  11.733  0.00  0.00    +0.000 A 
ATOM      3  C   UNL     1      44.607   7.310  11.553  0.00  0.00    +0.000 A 
ATOM      4  N   UNL     1      45.537   8.104  12.114  0.00  0.00    +0.000 NA
ATOM      5  C   UNL     1      46.454   7.488  12.898  0.00  0.00    +0.000 A 
ATOM      6  C   UNL     1      46.515   6.118  13.165  0.00  0.00    +0.000 A 
ATOM      7  C   UNL     1      45.523   5.349  12.548  0.00  0.00    +0.000 A 
BRANCH   6   8
ATOM      8  N   UNL     1      47.485   5.567  13.979  0.00  0.00    +0.000 N 
ATOM      9  C   UNL     1      47.352   4.238  14.593  0.00  0.00    +0.000 C 
ATOM     10  C   UNL     1      47.442   4.328  16.132  0.00  0.00    +0.000 C 
ATOM     11  N   UNL     1      48.637   5.055  16.612  0.00  0.00    +0.000 NA
ATOM     12  C   UNL     1      48.646   6.402  16.003  0.00  0.00    +0.000 C 
ATOM     13  C   UNL     1      48.606   6.388  14.457  0.00  0.00    +0.000 C 
ATOM     14  H   UNL     1      49.462   4.556  16.278  0.00  0.00    +0.000 HD
ENDBRANCH   6   8
ENDBRANCH   1   2
BRANCH   1  15
ATOM     15  N   UNL     1      43.649   4.940   9.631  0.00  0.00    +0.000 N 
ATOM     16  H   UNL     1      42.835   5.085   9.041  0.00  0.00    +0.000 HD
BRANCH  15  20
ATOM     17  C   UNL     1      46.274   2.085   7.992  0.00  0.00    +0.000 A 
ATOM     18  C   UNL     1      46.445   3.434   7.680  0.00  0.00    +0.000 A 
ATOM     19  C   UNL     1      45.602   4.392   8.246  0.00  0.00    +0.000 A 
ATOM     20  C   UNL     1      44.590   4.041   9.145  0.00  0.00    +0.000 A 
ATOM     21  C   UNL     1      44.436   2.680   9.455  0.00  0.00    +0.000 A 
ATOM     22  C   UNL     1      45.268   1.710   8.886  0.00  0.00    +0.000 A 
BRANCH  17  24
ATOM     23  N   UNL     1      46.796  -0.271   7.651  0.00  0.00    +0.000 N 
ATOM     24  C   UNL     1      47.086   1.028   7.343  0.00  0.00    +0.000 C 
ATOM     25  O   UNL     1      47.974   1.302   6.543  0.00  0.00    +0.000 OA
ATOM     26  H   UNL     1      47.311  -0.977   7.139  0.00  0.00    +0.000 HD
ATOM     27  H   UNL     1      45.932  -0.545   8.095  0.00  0.00    +0.000 HD
ENDBRANCH  17  24
ENDBRANCH  15  20
ENDBRANCH   1  15
TORSDOF 5
ENDMDL
MODEL 3
REMARK VINA RESULT:    -7.883      2.139      3.740
REMARK INTER + INTRA:         -11.023
REMARK INTER:                 -10.388
REMARK INTRA:                  -0.635
REMARK UNBOUND:                -0.836
REMARK  Name = 
REMARK  5 active torsions:
REMARK  status: ('A' for Active; 'I' for Inactive)
REMARK    1  A    between atoms: C_2  and  C_4
REMARK    2  A    between atoms: C_7  and  N_8
REMARK    3  A    between atoms: N_8  and  C_9
REMARK    4  A    between atoms: C_9  and  C_10
REMARK    5  A    between atoms: C_14  and  N_15
REMARK                            x       y       z     vdW  Elec       q    Type
REMARK                         _______ _______ _______ _____ _____    ______ ____
ROOT
ATOM      1  C   UNL     1      44.465   4.269  12.061  0.00  0.00    +0.000 C 
ENDROOT
BRANCH   1   2
ATOM      2  C   UNL     1      45.629   4.914  12.764  0.00  0.00    +0.000 A 
ATOM      3  C   UNL     1      46.169   6.075  12.219  0.00  0.00    +0.000 A 
ATOM      4  N   UNL     1      47.200   6.754  12.752  0.00  0.00    +0.000 NA
ATOM      5  C   UNL     1      47.724   6.246  13.894  0.00  0.00    +0.000 A 
ATOM      6  C   UNL     1      47.290   5.091  14.551  0.00  0.00    +0.000 A 
ATOM      7  C   UNL     1      46.218   4.431  13.942  0.00  0.00    +0.000 A 
BRANCH   6   8
ATOM      8  N   UNL     1      47.879   4.639  15.715  0.00  0.00    +0.000 N 
ATOM      9  C   UNL     1      47.866   3.226  16.119  0.00  0.00    +0.000 C 
ATOM     10  C   UNL     1      47.196   3.051  17.499  0.00  0.00    +0.000 C 
ATOM     11  N   UNL     1      47.758   3.933  18.545  0.00  0.00    +0.000 NA
ATOM     12  C   UNL     1      47.660   5.334  18.083  0.00  0.00    +0.000 C 
ATOM     13  C   UNL     1      48.354   5.594  16.725  0.00  0.00    +0.000 C 
ATOM     14  H   UNL     1      48.748   3.707  18.646  0.00  0.00    +0.000 HD
ENDBRANCH   6   8
ENDBRANCH   1   2
BRANCH   1  15
ATOM     15  N   UNL     1      44.331   4.629  10.658  0.00  0.00    +0.000 N 
ATOM     16  H   UNL     1      43.471   5.112  10.417  0.00  0.00    +0.000 HD
BRANCH  15  20
ATOM     17  C   UNL     1      46.399   2.525   7.653  0.00  0.00    +0.000 A 
ATOM     18  C   UNL     1      45.671   1.818   8.609  0.00  0.00    +0.000 A 
ATOM     19  C   UNL     1      44.952   2.507   9.589  0.00  0.00    +0.000 A 
ATOM     20  C   UNL     1      44.922   3.905   9.631  0.00  0.00    +0.000 A 
ATOM     21  C   UNL     1      45.654   4.602   8.656  0.00  0.00    +0.000 A 
ATOM     22  C   UNL     1      46.385   3.922   7.676  0.00  0.00    +0.000 A 
BRANCH  17  24
ATOM     23  N   UNL     1      48.063   2.604   5.874  0.00  0.00    +0.000 N 
ATOM     24  C   UNL     1      47.248   1.833   6.654  0.00  0.00    +0.000 C 
ATOM     25  O   UNL     1      47.238   0.613   6.539  0.00  0.00    +0.000 OA
ATOM     26  H   UNL     1      48.689   2.107   5.253  0.00  0.00    +0.000 HD
ATOM     27  H   UNL     1      48.285   3.563   6.102  0.00  0.00    +0.000 HD
ENDBRANCH  17  24
ENDBRANCH  15  20
ENDBRANCH   1  15
TORSDOF 5
ENDMDL
MODEL 4
REMARK VINA RESULT:    -7.259      1.399      2.041
REMARK INTER + INTRA:         -10.217
REMARK INTER:                  -9.605
REMARK INTRA:                  -0.612
REMARK UNBOUND:                -0.836
REMARK  Name = 
REMARK  5 active torsions:
REMARK  status: ('A' for Active; 'I' for Inactive)
REMARK    1  A    between atoms: C_2  and  C_4
REMARK    2  A    between atoms: C_7  and  N_8
REMARK    3  A    between atoms: N_8  and  C_9
REMARK    4  A    between atoms: C_9  and  C_10
REMARK    5  A    between atoms: C_14  and  N_15
REMARK                            x       y       z     vdW  Elec       q    Type
REMARK                         _______ _______ _______ _____ _____    ______ ____
ROOT
ATOM      1  C   UNL     1      44.645   3.651  11.898  0.00  0.00    +0.000 C 
ENDROOT
BRANCH   1   2
ATOM      2  C   UNL     1      44.957   5.122  11.957  0.00  0.00    +0.000 A 
ATOM      3  C   UNL     1      43.977   6.023  11.556  0.00  0.00    +0.000 A 
ATOM      4  N   UNL     1      44.124   7.360  11.570  0.00  0.00    +0.000 NA
ATOM      5  C   UNL     1      45.318   7.825  12.009  0.00  0.00    +0.000 A 
ATOM      6  C   UNL     1      46.394   7.042  12.438  0.00  0.00    +0.000 A 
ATOM      7  C   UNL     1      46.177   5.662  12.394  0.00  0.00    +0.000 A 
BRANCH   6   8
ATOM      8  N   UNL     1      47.582   7.596  12.873  0.00  0.00    +0.000 N 
ATOM      9  C   UNL     1      47.696   8.993  13.316  0.00  0.00    +0.000 C 
ATOM     10  C   UNL     1      48.735   9.758  12.469  0.00  0.00    +0.000 C 
ATOM     11  N   UNL     1      50.048   9.082  12.391  0.00  0.00    +0.000 NA
ATOM     12  C   UNL     1      49.843   7.715  11.867  0.00  0.00    +0.000 C 
ATOM     13  C   UNL     1      48.847   6.871  12.697  0.00  0.00    +0.000 C 
ATOM     14  H   UNL     1      50.416   8.999  13.340  0.00  0.00    +0.000 HD
ENDBRANCH   6   8
ENDBRANCH   1   2
BRANCH   1  15
ATOM     15  N   UNL     1      44.039   3.212  10.650  0.00  0.00    +0.000 N 
ATOM     16  H   UNL     1      43.211   2.634  10.752  0.00  0.00    +0.000 HD
BRANCH  15  20
ATOM     17  C   UNL     1      46.478   2.779   7.244  0.00  0.00    +0.000 A 
ATOM     18  C   UNL     1      46.123   1.650   7.982  0.00  0.00    +0.000 A 
ATOM     19  C   UNL     1      45.285   1.778   9.093  0.00  0.00    +0.000 A 
ATOM     20  C   UNL     1      44.766   3.018   9.483  0.00  0.00    +0.000 A 
ATOM     21  C   UNL     1      45.128   4.143   8.725  0.00  0.00    +0.000 A 
ATOM     22  C   UNL     1      45.974   4.028   7.617  0.00  0.00    +0.000 A 
BRANCH  17  24
ATOM     23  N   UNL     1      48.730   2.371   6.407  0.00  0.00    +0.000 N 
ATOM     24  C   UNL     1      47.436   2.701   6.116  0.00  0.00    +0.000 C 
ATOM     25  O   UNL     1      47.084   2.904   4.960  0.00  0.00    +0.000 OA
ATOM     26  H   UNL     1      49.348   2.248   5.616  0.00  0.00    +0.000 HD
ATOM     27  H   UNL     1      49.001   1.958   7.288  0.00  0.00    +0.000 HD
ENDBRANCH  17  24
ENDBRANCH  15  20
ENDBRANCH   1  15
TORSDOF 5
ENDMDL
MODEL 5
REMARK VINA RESULT:    -6.674      4.580      8.022
REMARK INTER + INTRA:          -9.461
REMARK INTER:                  -8.805
REMARK INTRA:                  -0.656
REMARK UNBOUND:                -0.836
REMARK  Name = 
REMARK  5 active torsions:
REMARK  status: ('A' for Active; 'I' for Inactive)
REMARK    1  A    between atoms: C_2  and  C_4
REMARK    2  A    between atoms: C_7  and  N_8
REMARK    3  A    between atoms: N_8  and  C_9
REMARK    4  A    between atoms: C_9  and  C_10
REMARK    5  A    between atoms: C_14  and  N_15
REMARK                            x       y       z     vdW  Elec       q    Type
REMARK                         _______ _______ _______ _____ _____    ______ ____
ROOT
ATOM      1  C   UNL     1      48.658   6.535  15.663  0.00  0.00    +0.000 C 
ENDROOT
BRANCH   1   2
ATOM      2  C   UNL     1      47.893   6.355  14.378  0.00  0.00    +0.000 A 
ATOM      3  C   UNL     1      48.309   7.064  13.257  0.00  0.00    +0.000 A 
ATOM      4  N   UNL     1      47.720   6.986  12.049  0.00  0.00    +0.000 NA
ATOM      5  C   UNL     1      46.657   6.152  11.956  0.00  0.00    +0.000 A 
ATOM      6  C   UNL     1      46.126   5.382  12.995  0.00  0.00    +0.000 A 
ATOM      7  C   UNL     1      46.781   5.514  14.224  0.00  0.00    +0.000 A 
BRANCH   6   8
ATOM      8  N   UNL     1      45.036   4.554  12.817  0.00  0.00    +0.000 N 
ATOM      9  C   UNL     1      45.136   3.225  12.199  0.00  0.00    +0.000 C 
ATOM     10  C   UNL     1      44.232   3.125  10.951  0.00  0.00    +0.000 C 
ATOM     11  N   UNL     1      42.831   3.527  11.203  0.00  0.00    +0.000 NA
ATOM     12  C   UNL     1      42.825   4.899  11.751  0.00  0.00    +0.000 C 
ATOM     13  C   UNL     1      43.675   5.063  13.034  0.00  0.00    +0.000 C 
ATOM     14  H   UNL     1      42.450   2.905  11.917  0.00  0.00    +0.000 HD
ENDBRANCH   6   8
ENDBRANCH   1   2
BRANCH   1  15
ATOM     15  N   UNL     1      48.372   5.537  16.682  0.00  0.00    +0.000 N 
ATOM     16  H   UNL     1      47.721   5.832  17.403  0.00  0.00    +0.000 HD
BRANCH  15  20
ATOM     17  C   UNL     1      51.126   2.464  17.521  0.00  0.00    +0.000 A 
ATOM     18  C   UNL     1      51.525   3.796  17.641  0.00  0.00    +0.000 A 
ATOM     19  C   UNL     1      50.609   4.822  17.399  0.00  0.00    +0.000 A 
ATOM     20  C   UNL     1      49.279   4.555  17.056  0.00  0.00    +0.000 A 
ATOM     21  C   UNL     1      48.892   3.210  16.948  0.00  0.00    +0.000 A 
ATOM     22  C   UNL     1      49.803   2.173  17.178  0.00  0.00    +0.000 A 
BRANCH  17  24
ATOM     23  N   UNL     1      51.602   0.154  18.132  0.00  0.00    +0.000 N 
ATOM     24  C   UNL     1      52.087   1.347  17.678  0.00  0.00    +0.000 C 
ATOM     25  O   UNL     1      53.273   1.477  17.395  0.00  0.00    +0.000 OA
ATOM     26  H   UNL     1      52.260  -0.615  18.159  0.00  0.00    +0.000 HD
ATOM     27  H   UNL     1      50.616  -0.067  18.135  0.00  0.00    +0.000 HD
ENDBRANCH  17  24
ENDBRANCH  15  20
ENDBRANCH   1  15
TORSDOF 5
ENDMDL
MODEL 6
REMARK VINA RESULT:    -6.524      2.955      7.202
REMARK INTER + INTRA:          -9.267
REMARK INTER:                  -8.860
REMARK INTRA:                  -0.407
REMARK UNBOUND:                -0.836
REMARK  Name = 
REMARK  5 active torsions:
REMARK  status: ('A' for Active; 'I' for Inactive)
REMARK    1  A    between atoms: C_2  and  C_4
REMARK    2  A    between atoms: C_7  and  N_8
REMARK    3  A    between atoms: N_8  and  C_9
REMARK    4  A    between atoms: C_9  and  C_10
REMARK    5  A    between atoms: C_14  and  N_15
REMARK                            x       y       z     vdW  Elec       q    Type
REMARK                         _______ _______ _______ _____ _____    ______ ____
ROOT
ATOM      1  C   UNL     1      45.277   6.459  11.217  0.00  0.00    +0.000 C 
ENDROOT
BRANCH   1   2
ATOM      2  C   UNL     1      44.916   5.093  10.696  0.00  0.00    +0.000 A 
ATOM      3  C   UNL     1      43.939   4.368  11.368  0.00  0.00    +0.000 A 
ATOM      4  N   UNL     1      43.517   3.143  11.002  0.00  0.00    +0.000 NA
ATOM      5  C   UNL     1      44.105   2.613   9.903  0.00  0.00    +0.000 A 
ATOM      6  C   UNL     1      45.100   3.222   9.133  0.00  0.00    +0.000 A 
ATOM      7  C   UNL     1      45.496   4.489   9.570  0.00  0.00    +0.000 A 
BRANCH   6   8
ATOM      8  N   UNL     1      45.650   2.612   8.022  0.00  0.00    +0.000 N 
ATOM      9  C   UNL     1      45.782   1.154   7.896  0.00  0.00    +0.000 C 
ATOM     10  C   UNL     1      47.256   0.748   7.686  0.00  0.00    +0.000 C 
ATOM     11  N   UNL     1      47.917   1.472   6.580  0.00  0.00    +0.000 NA
ATOM     12  C   UNL     1      47.800   2.924   6.830  0.00  0.00    +0.000 C 
ATOM     13  C   UNL     1      46.341   3.412   7.003  0.00  0.00    +0.000 C 
ATOM     14  H   UNL     1      47.409   1.263   5.720  0.00  0.00    +0.000 HD
ENDBRANCH   6   8
ENDBRANCH   1   2
BRANCH   1  15
ATOM     15  N   UNL     1      46.646   6.582  11.693  0.00  0.00    +0.000 N 
ATOM     16  H   UNL     1      47.362   6.466  10.983  0.00  0.00    +0.000 HD
BRANCH  15  20
ATOM     17  C   UNL     1      47.950   5.362  15.507  0.00  0.00    +0.000 A 
ATOM     18  C   UNL     1      48.436   6.551  14.963  0.00  0.00    +0.000 A 
ATOM     19  C   UNL     1      47.983   6.982  13.714  0.00  0.00    +0.000 A 
ATOM     20  C   UNL     1      47.028   6.261  12.990  0.00  0.00    +0.000 A 
ATOM     21  C   UNL     1      46.544   5.071  13.555  0.00  0.00    +0.000 A 
ATOM     22  C   UNL     1      46.998   4.623  14.801  0.00  0.00    +0.000 A 
BRANCH  17  24
ATOM     23  N   UNL     1      47.724   5.024  17.910  0.00  0.00    +0.000 N 
ATOM     24  C   UNL     1      48.472   4.821  16.785  0.00  0.00    +0.000 C 
ATOM     25  O   UNL     1      49.526   4.197  16.835  0.00  0.00    +0.000 OA
ATOM     26  H   UNL     1      48.060   4.581  18.756  0.00  0.00    +0.000 HD
ATOM     27  H   UNL     1      46.753   5.302  17.875  0.00  0.00    +0.000 HD
ENDBRANCH  17  24
ENDBRANCH  15  20
ENDBRANCH   1  15
TORSDOF 5
ENDMDL
MODEL 7
REMARK VINA RESULT:    -6.476      2.679      6.660
REMARK INTER + INTRA:          -9.205
REMARK INTER:                  -8.402
REMARK INTRA:                  -0.802
REMARK UNBOUND:                -0.836
REMARK  Name = 
REMARK  5 active torsions:
REMARK  status: ('A' for Active; 'I' for Inactive)
REMARK    1  A    between atoms: C_2  and  C_4
REMARK    2  A    between atoms: C_7  and  N_8
REMARK    3  A    between atoms: N_8  and  C_9
REMARK    4  A    between atoms: C_9  and  C_10
REMARK    5  A    between atoms: C_14  and  N_15
REMARK                            x       y       z     vdW  Elec       q    Type
REMARK                         _______ _______ _______ _____ _____    ______ ____
ROOT
ATOM      1  C   UNL     1      43.941   6.701  11.853  0.00  0.00    +0.000 C 
ENDROOT
BRANCH   1   2
ATOM      2  C   UNL     1      44.020   5.235  11.517  0.00  0.00    +0.000 A 
ATOM      3  C   UNL     1      43.694   4.313  12.506  0.00  0.00    +0.000 A 
ATOM      4  N   UNL     1      43.713   2.978  12.333  0.00  0.00    +0.000 NA
ATOM      5  C   UNL     1      44.077   2.540  11.105  0.00  0.00    +0.000 A 
ATOM      6  C   UNL     1      44.434   3.347  10.020  0.00  0.00    +0.000 A 
ATOM      7  C   UNL     1      44.398   4.722  10.268  0.00  0.00    +0.000 A 
BRANCH   6   8
ATOM      8  N   UNL     1      44.795   2.819   8.796  0.00  0.00    +0.000 N 
ATOM      9  C   UNL     1      45.122   1.400   8.603  0.00  0.00    +0.000 C 
ATOM     10  C   UNL     1      46.550   1.232   8.042  0.00  0.00    +0.000 C 
ATOM     11  N   UNL     1      46.807   2.040   6.831  0.00  0.00    +0.000 NA
ATOM     12  C   UNL     1      46.525   3.457   7.140  0.00  0.00    +0.000 C 
ATOM     13  C   UNL     1      45.090   3.707   7.664  0.00  0.00    +0.000 C 
ATOM     14  H   UNL     1      46.150   1.741   6.109  0.00  0.00    +0.000 HD
ENDBRANCH   6   8
ENDBRANCH   1   2
BRANCH   1  15
ATOM     15  N   UNL     1      44.897   7.142  12.858  0.00  0.00    +0.000 N 
ATOM     16  H   UNL     1      44.511   7.723  13.595  0.00  0.00    +0.000 HD
BRANCH  15  20
ATOM     17  C   UNL     1      48.993   7.923  12.272  0.00  0.00    +0.000 A 
ATOM     18  C   UNL     1      48.589   6.657  12.696  0.00  0.00    +0.000 A 
ATOM     19  C   UNL     1      47.230   6.377  12.859  0.00  0.00    +0.000 A 
ATOM     20  C   UNL     1      46.246   7.333  12.587  0.00  0.00    +0.000 A 
ATOM     21  C   UNL     1      46.669   8.599  12.154  0.00  0.00    +0.000 A 
ATOM     22  C   UNL     1      48.028   8.895  11.997  0.00  0.00    +0.000 A 
BRANCH  17  24
ATOM     23  N   UNL     1      51.257   7.862  13.171  0.00  0.00    +0.000 N 
ATOM     24  C   UNL     1      50.426   8.290  12.175  0.00  0.00    +0.000 C 
ATOM     25  O   UNL     1      50.860   8.938  11.229  0.00  0.00    +0.000 OA
ATOM     26  H   UNL     1      52.243   8.058  13.046  0.00  0.00    +0.000 HD
ATOM     27  H   UNL     1      50.999   7.131  13.819  0.00  0.00    +0.000 HD
ENDBRANCH  17  24
ENDBRANCH  15  20
ENDBRANCH   1  15
TORSDOF 5
ENDMDL
MODEL 8
REMARK VINA RESULT:    -6.319      3.502      5.841
REMARK INTER + INTRA:          -9.002
REMARK INTER:                  -8.327
REMARK INTRA:                  -0.675
REMARK UNBOUND:                -0.836
REMARK  Name = 
REMARK  5 active torsions:
REMARK  status: ('A' for Active; 'I' for Inactive)
REMARK    1  A    between atoms: C_2  and  C_4
REMARK    2  A    between atoms: C_7  and  N_8
REMARK    3  A    between atoms: N_8  and  C_9
REMARK    4  A    between atoms: C_9  and  C_10
REMARK    5  A    between atoms: C_14  and  N_15
REMARK                            x       y       z     vdW  Elec       q    Type
REMARK                         _______ _______ _______ _____ _____    ______ ____
ROOT
ATOM      1  C   UNL     1      48.243   7.464  12.727  0.00  0.00    +0.000 C 
ENDROOT
BRANCH   1   2
ATOM      2  C   UNL     1      48.900   7.153  14.045  0.00  0.00    +0.000 A 
ATOM      3  C   UNL     1      50.199   7.601  14.257  0.00  0.00    +0.000 A 
ATOM      4  N   UNL     1      50.895   7.401  15.392  0.00  0.00    +0.000 NA
ATOM      5  C   UNL     1      50.257   6.714  16.370  0.00  0.00    +0.000 A 
ATOM      6  C   UNL     1      48.959   6.201  16.297  0.00  0.00    +0.000 A 
ATOM      7  C   UNL     1      48.294   6.440  15.091  0.00  0.00    +0.000 A 
BRANCH   6   8
ATOM      8  N   UNL     1      48.379   5.510  17.343  0.00  0.00    +0.000 N 
ATOM      9  C   UNL     1      48.724   5.756  18.750  0.00  0.00    +0.000 C 
ATOM     10  C   UNL     1      49.248   4.470  19.424  0.00  0.00    +0.000 C 
ATOM     11  N   UNL     1      48.349   3.307  19.258  0.00  0.00    +0.000 NA
ATOM     12  C   UNL     1      48.120   3.091  17.814  0.00  0.00    +0.000 C 
ATOM     13  C   UNL     1      47.548   4.328  17.081  0.00  0.00    +0.000 C 
ATOM     14  H   UNL     1      47.452   3.541  19.684  0.00  0.00    +0.000 HD
ENDBRANCH   6   8
ENDBRANCH   1   2
BRANCH   1  15
ATOM     15  N   UNL     1      46.790   7.517  12.774  0.00  0.00    +0.000 N 
ATOM     16  H   UNL     1      46.404   8.129  13.486  0.00  0.00    +0.000 HD
BRANCH  15  20
ATOM     17  C   UNL     1      44.591   4.156  11.509  0.00  0.00    +0.000 A 
ATOM     18  C   UNL     1      44.664   4.457  12.869  0.00  0.00    +0.000 A 
ATOM     19  C   UNL     1      45.361   5.590  13.297  0.00  0.00    +0.000 A 
ATOM     20  C   UNL     1      45.980   6.456  12.390  0.00  0.00    +0.000 A 
ATOM     21  C   UNL     1      45.891   6.143  11.024  0.00  0.00    +0.000 A 
ATOM     22  C   UNL     1      45.204   5.006  10.585  0.00  0.00    +0.000 A 
BRANCH  17  24
ATOM     23  N   UNL     1      44.540   2.253   9.988  0.00  0.00    +0.000 N 
ATOM     24  C   UNL     1      43.941   2.916  11.021  0.00  0.00    +0.000 C 
ATOM     25  O   UNL     1      42.914   2.486  11.534  0.00  0.00    +0.000 OA
ATOM     26  H   UNL     1      44.123   1.370   9.722  0.00  0.00    +0.000 HD
ATOM     27  H   UNL     1      45.496   2.427   9.711  0.00  0.00    +0.000 HD
ENDBRANCH  17  24
ENDBRANCH  15  20
ENDBRANCH   1  15
TORSDOF 5
ENDMDL
MODEL 9
REMARK VINA RESULT:    -5.839      3.954      6.352
REMARK INTER + INTRA:          -8.381
REMARK INTER:                  -7.705
REMARK INTRA:                  -0.676
REMARK UNBOUND:                -0.836
REMARK  Name = 
REMARK  5 active torsions:
REMARK  status: ('A' for Active; 'I' for Inactive)
REMARK    1  A    between atoms: C_2  and  C_4
REMARK    2  A    between atoms: C_7  and  N_8
REMARK    3  A    between atoms: N_8  and  C_9
REMARK    4  A    between atoms: C_9  and  C_10
REMARK    5  A    between atoms: C_14  and  N_15
REMARK                            x       y       z     vdW  Elec       q    Type
REMARK                         _______ _______ _______ _____ _____    ______ ____
ROOT
ATOM      1  C   UNL     1      48.551   7.679  13.701  0.00  0.00    +0.000 C 
ENDROOT
BRANCH   1   2
ATOM      2  C   UNL     1      48.627   7.683  15.205  0.00  0.00    +0.000 A 
ATOM      3  C   UNL     1      48.345   8.867  15.877  0.00  0.00    +0.000 A 
ATOM      4  N   UNL     1      48.366   9.003  17.216  0.00  0.00    +0.000 NA
ATOM      5  C   UNL     1      48.689   7.894  17.923  0.00  0.00    +0.000 A 
ATOM      6  C   UNL     1      49.000   6.642  17.386  0.00  0.00    +0.000 A 
ATOM      7  C   UNL     1      48.964   6.570  15.990  0.00  0.00    +0.000 A 
BRANCH   6   8
ATOM      8  N   UNL     1      49.319   5.557  18.180  0.00  0.00    +0.000 N 
ATOM      9  C   UNL     1      49.349   4.179  17.672  0.00  0.00    +0.000 C 
ATOM     10  C   UNL     1      48.373   3.278  18.460  0.00  0.00    +0.000 C 
ATOM     11  N   UNL     1      48.560   3.344  19.925  0.00  0.00    +0.000 NA
ATOM     12  C   UNL     1      48.438   4.754  20.352  0.00  0.00    +0.000 C 
ATOM     13  C   UNL     1      49.423   5.710  19.637  0.00  0.00    +0.000 C 
ATOM     14  H   UNL     1      49.509   3.036  20.135  0.00  0.00    +0.000 HD
ENDBRANCH   6   8
ENDBRANCH   1   2
BRANCH   1  15
ATOM     15  N   UNL     1      47.200   7.723  13.165  0.00  0.00    +0.000 N 
ATOM     16  H   UNL     1      46.593   8.421  13.581  0.00  0.00    +0.000 HD
BRANCH  15  20
ATOM     17  C   UNL     1      45.044   4.382  11.777  0.00  0.00    +0.000 A 
ATOM     18  C   UNL     1      45.129   5.524  10.980  0.00  0.00    +0.000 A 
ATOM     19  C   UNL     1      45.872   6.624  11.416  0.00  0.00    +0.000 A 
ATOM     20  C   UNL     1      46.560   6.610  12.633  0.00  0.00    +0.000 A 
ATOM     21  C   UNL     1      46.470   5.451  13.419  0.00  0.00    +0.000 A 
ATOM     22  C   UNL     1      45.722   4.346  12.998  0.00  0.00    +0.000 A 
BRANCH  17  24
ATOM     23  N   UNL     1      43.791   2.384  12.390  0.00  0.00    +0.000 N 
ATOM     24  C   UNL     1      44.194   3.229  11.395  0.00  0.00    +0.000 C 
ATOM     25  O   UNL     1      43.845   3.046  10.234  0.00  0.00    +0.000 OA
ATOM     26  H   UNL     1      43.149   1.649  12.120  0.00  0.00    +0.000 HD
ATOM     27  H   UNL     1      43.841   2.632  13.368  0.00  0.00    +0.000 HD
ENDBRANCH  17  24
ENDBRANCH  15  20
ENDBRANCH   1  15
TORSDOF 5
ENDMDL
