MODEL 1
REMARK VINA RESULT:    -7.937      0.000      0.000
REMARK INTER + INTRA:         -11.039
REMARK INTER:                 -10.488
REMARK INTRA:                  -0.551
REMARK UNBOUND:                -0.551
REMARK  Name = 
REMARK  6 active torsions:
REMARK  status: ('A' for Active; 'I' for Inactive)
REMARK    1  A    between atoms: N_1  and  C_2
REMARK    2  A    between atoms: C_2  and  C_3
REMARK    3  A    between atoms: C_3  and  C_4
REMARK    4  A    between atoms: C_7  and  C_8
REMARK    5  A    between atoms: C_8  and  C_9
REMARK    6  A    between atoms: C_15  and  C_16
REMARK                            x       y       z     vdW  Elec       q    Type
REMARK                         _______ _______ _______ _____ _____    ______ ____
ROOT
ATOM      1  C   UNL     1      45.390   4.595  12.777  0.00  0.00    +0.000 A 
ATOM      2  N   UNL     1      46.078   3.710  13.478  0.00  0.00    +0.000 NA
ATOM      3  C   UNL     1      47.022   4.427  14.166  0.00  0.00    +0.000 A 
ATOM      4  C   UNL     1      46.932   5.772  13.884  0.00  0.00    +0.000 A 
ATOM      5  N   UNL     1      47.648   6.862  14.285  0.00  0.00    +0.000 NA
ATOM      6  C   UNL     1      47.269   8.004  13.785  0.00  0.00    +0.000 A 
ATOM      7  C   UNL     1      46.145   8.225  12.823  0.00  0.00    +0.000 A 
ATOM      8  C   UNL     1      45.467   7.109  12.493  0.00  0.00    +0.000 A 
ATOM      9  N   UNL     1      45.862   5.877  13.007  0.00  0.00    +0.000 N 
ENDROOT
BRANCH   7  10
ATOM     10  C   UNL     1      45.819   9.586  12.343  0.00  0.00    +0.000 C 
ATOM     11  N   UNL     1      44.539  10.018  12.499  0.00  0.00    +0.000 N 
ATOM     12  O   UNL     1      46.653  10.287  11.782  0.00  0.00    +0.000 OA
ATOM     13  H   UNL     1      43.770   9.438  12.795  0.00  0.00    +0.000 HD
ATOM     14  H   UNL     1      44.316  10.920  12.094  0.00  0.00    +0.000 HD
ENDBRANCH   7  10
BRANCH   1  15
ATOM     15  C   UNL     1      44.331   4.259  11.771  0.00  0.00    +0.000 C 
BRANCH  15  19
ATOM     16  C   UNL     1      45.854   3.157   7.860  0.00  0.00    +0.000 A 
ATOM     17  C   UNL     1      45.335   2.182   8.720  0.00  0.00    +0.000 A 
ATOM     18  C   UNL     1      44.843   2.532   9.982  0.00  0.00    +0.000 A 
ATOM     19  C   UNL     1      44.858   3.866  10.410  0.00  0.00    +0.000 A 
ATOM     20  C   UNL     1      45.364   4.842   9.541  0.00  0.00    +0.000 A 
ATOM     21  C   UNL     1      45.847   4.493   8.275  0.00  0.00    +0.000 A 
BRANCH  16  22
ATOM     22  C   UNL     1      46.436   2.767   6.522  0.00  0.00    +0.000 C 
BRANCH  22  23
ATOM     23  C   UNL     1      47.721   1.940   6.640  0.00  0.00    +0.000 C 
BRANCH  23  24
ATOM     24  N   UNL     1      48.457   1.943   5.375  0.00  0.00    +0.000 NA
ATOM     25  H   UNL     1      48.613   2.904   5.073  0.00  0.00    +0.000 HD
ATOM     26  H   UNL     1      47.892   1.504   4.647  0.00  0.00    +0.000 HD
ENDBRANCH  23  24
ENDBRANCH  22  23
ENDBRANCH  16  22
ENDBRANCH  15  19
ENDBRANCH   1  15
TORSDOF 6
ENDMDL
MODEL 2
REMARK VINA RESULT:    -7.672      2.148      3.425
REMARK INTER + INTRA:         -10.689
REMARK INTER:                 -10.197
REMARK INTRA:                  -0.492
REMARK UNBOUND:                -0.551
REMARK  Name = 
REMARK  6 active torsions:
REMARK  status: ('A' for Active; 'I' for Inactive)
REMARK    1  A    between atoms: N_1  and  C_2
REMARK    2  A    between atoms: C_2  and  C_3
REMARK    3  A    between atoms: C_3  and  C_4
REMARK    4  A    between atoms: C_7  and  C_8
REMARK    5  A    between atoms: C_8  and  C_9
REMARK    6  A    between atoms: C_15  and  C_16
REMARK                            x       y       z     vdW  Elec       q    Type
REMARK                         _______ _______ _______ _____ _____    ______ ____
ROOT
ATOM      1  C   UNL     1      45.327   6.186  11.732  0.00  0.00    +0.000 A 
ATOM      2  N   UNL     1      45.452   7.440  11.331  0.00  0.00    +0.000 NA
ATOM      3  C   UNL     1      46.361   8.017  12.180  0.00  0.00    +0.000 A 
ATOM      4  C   UNL     1      46.801   7.120  13.127  0.00  0.00    +0.000 A 
ATOM      5  N   UNL     1      47.662   7.218  14.182  0.00  0.00    +0.000 NA
ATOM      6  C   UNL     1      47.824   6.132  14.883  0.00  0.00    +0.000 A 
ATOM      7  C   UNL     1      47.161   4.812  14.646  0.00  0.00    +0.000 A 
ATOM      8  C   UNL     1      46.346   4.782  13.575  0.00  0.00    +0.000 A 
ATOM      9  N   UNL     1      46.149   5.934  12.818  0.00  0.00    +0.000 N 
ENDROOT
BRANCH   7  10
ATOM     10  C   UNL     1      47.449   3.655  15.523  0.00  0.00    +0.000 C 
ATOM     11  N   UNL     1      46.928   3.672  16.779  0.00  0.00    +0.000 N 
ATOM     12  O   UNL     1      48.168   2.733  15.156  0.00  0.00    +0.000 OA
ATOM     13  H   UNL     1      46.473   4.468  17.199  0.00  0.00    +0.000 HD
ATOM     14  H   UNL     1      47.200   2.911  17.390  0.00  0.00    +0.000 HD
ENDBRANCH   7  10
BRANCH   1  15
ATOM     15  C   UNL     1      44.343   5.201  11.178  0.00  0.00    +0.000 C 
BRANCH  15  19
ATOM     16  C   UNL     1      45.932   2.666   8.034  0.00  0.00    +0.000 A 
ATOM     17  C   UNL     1      45.215   2.110   9.100  0.00  0.00    +0.000 A 
ATOM     18  C   UNL     1      44.700   2.922  10.116  0.00  0.00    +0.000 A 
ATOM     19  C   UNL     1      44.891   4.310  10.087  0.00  0.00    +0.000 A 
ATOM     20  C   UNL     1      45.597   4.866   9.010  0.00  0.00    +0.000 A 
ATOM     21  C   UNL     1      46.102   4.054   7.989  0.00  0.00    +0.000 A 
BRANCH  16  22
ATOM     22  C   UNL     1      46.533   1.780   6.970  0.00  0.00    +0.000 C 
BRANCH  22  23
ATOM     23  C   UNL     1      48.046   1.967   6.811  0.00  0.00    +0.000 C 
BRANCH  23  24
ATOM     24  N   UNL     1      48.431   1.907   5.400  0.00  0.00    +0.000 NA
ATOM     25  H   UNL     1      48.910   1.027   5.215  0.00  0.00    +0.000 HD
ATOM     26  H   UNL     1      49.104   2.646   5.195  0.00  0.00    +0.000 HD
ENDBRANCH  23  24
ENDBRANCH  22  23
ENDBRANCH  16  22
ENDBRANCH  15  19
ENDBRANCH   1  15
TORSDOF 6
ENDMDL
MODEL 3
REMARK VINA RESULT:    -6.944      2.529      3.866
REMARK INTER + INTRA:          -9.727
REMARK INTER:                  -9.560
REMARK INTRA:                  -0.167
REMARK UNBOUND:                -0.551
REMARK  Name = 
REMARK  6 active torsions:
REMARK  status: ('A' for Active; 'I' for Inactive)
REMARK    1  A    between atoms: N_1  and  C_2
REMARK    2  A    between atoms: C_2  and  C_3
REMARK    3  A    between atoms: C_3  and  C_4
REMARK    4  A    between atoms: C_7  and  C_8
REMARK    5  A    between atoms: C_8  and  C_9
REMARK    6  A    between atoms: C_15  and  C_16
REMARK                            x       y       z     vdW  Elec       q    Type
REMARK                         _______ _______ _______ _____ _____    ______ ____
ROOT
ATOM      1  C   UNL     1      46.192   5.792  12.646  0.00  0.00    +0.000 A 
ATOM      2  N   UNL     1      46.612   6.940  12.141  0.00  0.00    +0.000 NA
ATOM      3  C   UNL     1      47.585   7.392  12.995  0.00  0.00    +0.000 A 
ATOM      4  C   UNL     1      47.767   6.526  14.050  0.00  0.00    +0.000 A 
ATOM      5  N   UNL     1      48.576   6.545  15.148  0.00  0.00    +0.000 NA
ATOM      6  C   UNL     1      48.459   5.530  15.956  0.00  0.00    +0.000 A 
ATOM      7  C   UNL     1      47.530   4.368  15.796  0.00  0.00    +0.000 A 
ATOM      8  C   UNL     1      46.782   4.402  14.678  0.00  0.00    +0.000 A 
ATOM      9  N   UNL     1      46.883   5.483  13.806  0.00  0.00    +0.000 N 
ENDROOT
BRANCH   7  10
ATOM     10  C   UNL     1      47.510   3.275  16.794  0.00  0.00    +0.000 C 
ATOM     11  N   UNL     1      48.660   2.575  16.983  0.00  0.00    +0.000 N 
ATOM     12  O   UNL     1      46.487   2.973  17.398  0.00  0.00    +0.000 OA
ATOM     13  H   UNL     1      49.483   2.658  16.406  0.00  0.00    +0.000 HD
ATOM     14  H   UNL     1      48.607   1.782  17.611  0.00  0.00    +0.000 HD
ENDBRANCH   7  10
BRANCH   1  15
ATOM     15  C   UNL     1      45.040   4.992  12.117  0.00  0.00    +0.000 C 
BRANCH  15  19
ATOM     16  C   UNL     1      45.667   3.375   8.139  0.00  0.00    +0.000 A 
ATOM     17  C   UNL     1      45.235   2.547   9.182  0.00  0.00    +0.000 A 
ATOM     18  C   UNL     1      45.031   3.063  10.466  0.00  0.00    +0.000 A 
ATOM     19  C   UNL     1      45.255   4.420  10.734  0.00  0.00    +0.000 A 
ATOM     20  C   UNL     1      45.673   5.250   9.685  0.00  0.00    +0.000 A 
ATOM     21  C   UNL     1      45.867   4.735   8.399  0.00  0.00    +0.000 A 
BRANCH  16  22
ATOM     22  C   UNL     1      45.940   2.802   6.768  0.00  0.00    +0.000 C 
BRANCH  22  23
ATOM     23  C   UNL     1      47.434   2.617   6.477  0.00  0.00    +0.000 C 
BRANCH  23  24
ATOM     24  N   UNL     1      47.891   1.303   6.931  0.00  0.00    +0.000 NA
ATOM     25  H   UNL     1      47.727   1.213   7.933  0.00  0.00    +0.000 HD
ATOM     26  H   UNL     1      48.899   1.225   6.799  0.00  0.00    +0.000 HD
ENDBRANCH  23  24
ENDBRANCH  22  23
ENDBRANCH  16  22
ENDBRANCH  15  19
ENDBRANCH   1  15
TORSDOF 6
ENDMDL
MODEL 4
REMARK VINA RESULT:    -6.841      1.933      3.123
REMARK INTER + INTRA:          -9.591
REMARK INTER:                  -9.117
REMARK INTRA:                  -0.474
REMARK UNBOUND:                -0.551
REMARK  Name = 
REMARK  6 active torsions:
REMARK  status: ('A' for Active; 'I' for Inactive)
REMARK    1  A    between atoms: N_1  and  C_2
REMARK    2  A    between atoms: C_2  and  C_3
REMARK    3  A    between atoms: C_3  and  C_4
REMARK    4  A    between atoms: C_7  and  C_8
REMARK    5  A    between atoms: C_8  and  C_9
REMARK    6  A    between atoms: C_15  and  C_16
REMARK                            x       y       z     vdW  Elec       q    Type
REMARK                         _______ _______ _______ _____ _____    ______ ____
ROOT
ATOM      1  C   UNL     1      44.279   6.459  11.340  0.00  0.00    +0.000 A 
ATOM      2  N   UNL     1      43.384   7.365  10.985  0.00  0.00    +0.000 NA
ATOM      3  C   UNL     1      43.958   8.582  11.244  0.00  0.00    +0.000 A 
ATOM      4  C   UNL     1      45.219   8.437  11.776  0.00  0.00    +0.000 A 
ATOM      5  N   UNL     1      46.158   9.325  12.216  0.00  0.00    +0.000 NA
ATOM      6  C   UNL     1      47.258   8.804  12.679  0.00  0.00    +0.000 A 
ATOM      7  C   UNL     1      47.579   7.346  12.779  0.00  0.00    +0.000 A 
ATOM      8  C   UNL     1      46.619   6.530  12.303  0.00  0.00    +0.000 A 
ATOM      9  N   UNL     1      45.431   7.066  11.813  0.00  0.00    +0.000 N 
ENDROOT
BRANCH   7  10
ATOM     10  C   UNL     1      48.880   6.894  13.322  0.00  0.00    +0.000 C 
ATOM     11  N   UNL     1      49.981   7.072  12.545  0.00  0.00    +0.000 N 
ATOM     12  O   UNL     1      48.964   6.337  14.411  0.00  0.00    +0.000 OA
ATOM     13  H   UNL     1      49.961   7.367  11.581  0.00  0.00    +0.000 HD
ATOM     14  H   UNL     1      50.849   6.687  12.899  0.00  0.00    +0.000 HD
ENDBRANCH   7  10
BRANCH   1  15
ATOM     15  C   UNL     1      44.044   4.978  11.355  0.00  0.00    +0.000 C 
BRANCH  15  19
ATOM     16  C   UNL     1      45.926   2.795   8.111  0.00  0.00    +0.000 A 
ATOM     17  C   UNL     1      46.018   4.190   8.175  0.00  0.00    +0.000 A 
ATOM     18  C   UNL     1      45.413   4.899   9.218  0.00  0.00    +0.000 A 
ATOM     19  C   UNL     1      44.705   4.226  10.222  0.00  0.00    +0.000 A 
ATOM     20  C   UNL     1      44.627   2.828  10.165  0.00  0.00    +0.000 A 
ATOM     21  C   UNL     1      45.241   2.119   9.126  0.00  0.00    +0.000 A 
BRANCH  16  22
ATOM     22  C   UNL     1      46.533   2.039   6.953  0.00  0.00    +0.000 C 
BRANCH  22  23
ATOM     23  C   UNL     1      47.831   2.667   6.434  0.00  0.00    +0.000 C 
BRANCH  23  24
ATOM     24  N   UNL     1      48.559   1.724   5.585  0.00  0.00    +0.000 NA
ATOM     25  H   UNL     1      47.899   1.089   5.137  0.00  0.00    +0.000 HD
ATOM     26  H   UNL     1      49.169   1.143   6.159  0.00  0.00    +0.000 HD
ENDBRANCH  23  24
ENDBRANCH  22  23
ENDBRANCH  16  22
ENDBRANCH  15  19
ENDBRANCH   1  15
TORSDOF 6
ENDMDL
MODEL 5
REMARK VINA RESULT:    -6.538      2.665      6.934
REMARK INTER + INTRA:          -9.191
REMARK INTER:                  -8.649
REMARK INTRA:                  -0.543
REMARK UNBOUND:                -0.551
REMARK  Name = 
REMARK  6 active torsions:
REMARK  status: ('A' for Active; 'I' for Inactive)
REMARK    1  A    between atoms: N_1  and  C_2
REMARK    2  A    between atoms: C_2  and  C_3
REMARK    3  A    between atoms: C_3  and  C_4
REMARK    4  A    between atoms: C_7  and  C_8
REMARK    5  A    between atoms: C_8  and  C_9
REMARK    6  A    between atoms: C_15  and  C_16
REMARK                            x       y       z     vdW  Elec       q    Type
REMARK                         _______ _______ _______ _____ _____    ______ ____
ROOT
ATOM      1  C   UNL     1      44.184   5.606  11.319  0.00  0.00    +0.000 A 
ATOM      2  N   UNL     1      43.331   5.181  12.236  0.00  0.00    +0.000 NA
ATOM      3  C   UNL     1      43.097   3.861  11.949  0.00  0.00    +0.000 A 
ATOM      4  C   UNL     1      43.800   3.458  10.837  0.00  0.00    +0.000 A 
ATOM      5  N   UNL     1      43.878   2.279  10.154  0.00  0.00    +0.000 NA
ATOM      6  C   UNL     1      44.660   2.278   9.112  0.00  0.00    +0.000 A 
ATOM      7  C   UNL     1      45.462   3.433   8.600  0.00  0.00    +0.000 A 
ATOM      8  C   UNL     1      45.357   4.555   9.337  0.00  0.00    +0.000 A 
ATOM      9  N   UNL     1      44.519   4.581  10.449  0.00  0.00    +0.000 N 
ENDROOT
BRANCH   7  10
ATOM     10  C   UNL     1      46.319   3.285   7.403  0.00  0.00    +0.000 C 
ATOM     11  N   UNL     1      46.940   2.090   7.218  0.00  0.00    +0.000 N 
ATOM     12  O   UNL     1      46.505   4.214   6.625  0.00  0.00    +0.000 OA
ATOM     13  H   UNL     1      46.966   1.346   7.898  0.00  0.00    +0.000 HD
ATOM     14  H   UNL     1      47.583   2.032   6.437  0.00  0.00    +0.000 HD
ENDBRANCH   7  10
BRANCH   1  15
ATOM     15  C   UNL     1      44.633   7.026  11.155  0.00  0.00    +0.000 C 
BRANCH  15  19
ATOM     16  C   UNL     1      48.153   8.072  13.469  0.00  0.00    +0.000 A 
ATOM     17  C   UNL     1      46.944   8.750  13.669  0.00  0.00    +0.000 A 
ATOM     18  C   UNL     1      45.807   8.417  12.926  0.00  0.00    +0.000 A 
ATOM     19  C   UNL     1      45.854   7.396  11.967  0.00  0.00    +0.000 A 
ATOM     20  C   UNL     1      47.061   6.709  11.779  0.00  0.00    +0.000 A 
ATOM     21  C   UNL     1      48.195   7.036  12.530  0.00  0.00    +0.000 A 
BRANCH  16  22
ATOM     22  C   UNL     1      49.392   8.473  14.233  0.00  0.00    +0.000 C 
BRANCH  22  23
ATOM     23  C   UNL     1      49.439   7.899  15.653  0.00  0.00    +0.000 C 
BRANCH  23  24
ATOM     24  N   UNL     1      50.063   6.576  15.657  0.00  0.00    +0.000 NA
ATOM     25  H   UNL     1      50.118   6.228  16.613  0.00  0.00    +0.000 HD
ATOM     26  H   UNL     1      51.024   6.647  15.324  0.00  0.00    +0.000 HD
ENDBRANCH  23  24
ENDBRANCH  22  23
ENDBRANCH  16  22
ENDBRANCH  15  19
ENDBRANCH   1  15
TORSDOF 6
ENDMDL
MODEL 6
REMARK VINA RESULT:    -6.254      4.260      7.731
REMARK INTER + INTRA:          -8.815
REMARK INTER:                  -8.588
REMARK INTRA:                  -0.227
REMARK UNBOUND:                -0.551
REMARK  Name = 
REMARK  6 active torsions:
REMARK  status: ('A' for Active; 'I' for Inactive)
REMARK    1  A    between atoms: N_1  and  C_2
REMARK    2  A    between atoms: C_2  and  C_3
REMARK    3  A    between atoms: C_3  and  C_4
REMARK    4  A    between atoms: C_7  and  C_8
REMARK    5  A    between atoms: C_8  and  C_9
REMARK    6  A    between atoms: C_15  and  C_16
REMARK                            x       y       z     vdW  Elec       q    Type
REMARK                         _______ _______ _______ _____ _____    ______ ____
ROOT
ATOM      1  C   UNL     1      47.476   5.208  15.023  0.00  0.00    +0.000 A 
ATOM      2  N   UNL     1      48.438   6.098  14.841  0.00  0.00    +0.000 NA
ATOM      3  C   UNL     1      48.255   6.596  13.577  0.00  0.00    +0.000 A 
ATOM      4  C   UNL     1      47.177   6.005  12.957  0.00  0.00    +0.000 A 
ATOM      5  N   UNL     1      46.622   6.136  11.717  0.00  0.00    +0.000 NA
ATOM      6  C   UNL     1      45.588   5.380  11.477  0.00  0.00    +0.000 A 
ATOM      7  C   UNL     1      44.968   4.395  12.417  0.00  0.00    +0.000 A 
ATOM      8  C   UNL     1      45.550   4.338  13.629  0.00  0.00    +0.000 A 
ATOM      9  N   UNL     1      46.663   5.128  13.904  0.00  0.00    +0.000 N 
ENDROOT
BRANCH   7  10
ATOM     10  C   UNL     1      43.783   3.607  12.010  0.00  0.00    +0.000 C 
ATOM     11  N   UNL     1      43.618   2.381  12.575  0.00  0.00    +0.000 N 
ATOM     12  O   UNL     1      42.999   4.015  11.160  0.00  0.00    +0.000 OA
ATOM     13  H   UNL     1      44.306   1.918  13.148  0.00  0.00    +0.000 HD
ATOM     14  H   UNL     1      42.846   1.825  12.227  0.00  0.00    +0.000 HD
ENDBRANCH   7  10
BRANCH   1  15
ATOM     15  C   UNL     1      47.349   4.312  16.217  0.00  0.00    +0.000 C 
BRANCH  15  19
ATOM     16  C   UNL     1      51.098   2.653  17.640  0.00  0.00    +0.000 A 
ATOM     17  C   UNL     1      50.796   4.005  17.846  0.00  0.00    +0.000 A 
ATOM     18  C   UNL     1      49.590   4.545  17.389  0.00  0.00    +0.000 A 
ATOM     19  C   UNL     1      48.657   3.743  16.718  0.00  0.00    +0.000 A 
ATOM     20  C   UNL     1      48.955   2.386  16.527  0.00  0.00    +0.000 A 
ATOM     21  C   UNL     1      50.157   1.845  16.993  0.00  0.00    +0.000 A 
BRANCH  16  22
ATOM     22  C   UNL     1      52.426   2.088  18.085  0.00  0.00    +0.000 C 
BRANCH  22  23
ATOM     23  C   UNL     1      52.760   0.743  17.429  0.00  0.00    +0.000 C 
BRANCH  23  24
ATOM     24  N   UNL     1      52.839  -0.318  18.434  0.00  0.00    +0.000 NA
ATOM     25  H   UNL     1      51.949  -0.814  18.475  0.00  0.00    +0.000 HD
ATOM     26  H   UNL     1      52.979   0.092  19.358  0.00  0.00    +0.000 HD
ENDBRANCH  23  24
ENDBRANCH  22  23
ENDBRANCH  16  22
ENDBRANCH  15  19
ENDBRANCH   1  15
TORSDOF 6
ENDMDL
MODEL 7
REMARK VINA RESULT:    -6.164      3.447      7.440
REMARK INTER + INTRA:          -8.697
REMARK INTER:                  -8.199
REMARK INTRA:                  -0.498
REMARK UNBOUND:                -0.551
REMARK  Name = 
REMARK  6 active torsions:
REMARK  status: ('A' for Active; 'I' for Inactive)
REMARK    1  A    between atoms: N_1  and  C_2
REMARK    2  A    between atoms: C_2  and  C_3
REMARK    3  A    between atoms: C_3  and  C_4
REMARK    4  A    between atoms: C_7  and  C_8
REMARK    5  A    between atoms: C_8  and  C_9
REMARK    6  A    between atoms: C_15  and  C_16
REMARK                            x       y       z     vdW  Elec       q    Type
REMARK                         _______ _______ _______ _____ _____    ______ ____
ROOT
ATOM      1  C   UNL     1      46.388   6.954  12.329  0.00  0.00    +0.000 A 
ATOM      2  N   UNL     1      46.074   8.238  12.291  0.00  0.00    +0.000 NA
ATOM      3  C   UNL     1      44.786   8.296  11.827  0.00  0.00    +0.000 A 
ATOM      4  C   UNL     1      44.292   7.040  11.560  0.00  0.00    +0.000 A 
ATOM      5  N   UNL     1      43.103   6.586  11.066  0.00  0.00    +0.000 NA
ATOM      6  C   UNL     1      43.001   5.294  10.935  0.00  0.00    +0.000 A 
ATOM      7  C   UNL     1      44.051   4.280  11.264  0.00  0.00    +0.000 A 
ATOM      8  C   UNL     1      45.186   4.797  11.770  0.00  0.00    +0.000 A 
ATOM      9  N   UNL     1      45.321   6.175  11.909  0.00  0.00    +0.000 N 
ENDROOT
BRANCH   7  10
ATOM     10  C   UNL     1      43.791   2.835  11.072  0.00  0.00    +0.000 C 
ATOM     11  N   UNL     1      44.481   2.198  10.089  0.00  0.00    +0.000 N 
ATOM     12  O   UNL     1      42.953   2.238  11.737  0.00  0.00    +0.000 OA
ATOM     13  H   UNL     1      45.056   2.659   9.401  0.00  0.00    +0.000 HD
ATOM     14  H   UNL     1      44.234   1.230   9.920  0.00  0.00    +0.000 HD
ENDBRANCH   7  10
BRANCH   1  15
ATOM     15  C   UNL     1      47.746   6.409  12.654  0.00  0.00    +0.000 C 
BRANCH  15  19
ATOM     16  C   UNL     1      48.199   5.004  16.735  0.00  0.00    +0.000 A 
ATOM     17  C   UNL     1      47.449   4.268  15.810  0.00  0.00    +0.000 A 
ATOM     18  C   UNL     1      47.300   4.716  14.493  0.00  0.00    +0.000 A 
ATOM     19  C   UNL     1      47.899   5.911  14.073  0.00  0.00    +0.000 A 
ATOM     20  C   UNL     1      48.662   6.638  14.998  0.00  0.00    +0.000 A 
ATOM     21  C   UNL     1      48.819   6.184  16.311  0.00  0.00    +0.000 A 
BRANCH  16  22
ATOM     22  C   UNL     1      48.310   4.545  18.170  0.00  0.00    +0.000 C 
BRANCH  22  23
ATOM     23  C   UNL     1      47.689   5.527  19.168  0.00  0.00    +0.000 C 
BRANCH  23  24
ATOM     24  N   UNL     1      46.233   5.568  19.017  0.00  0.00    +0.000 NA
ATOM     25  H   UNL     1      45.852   6.319  19.592  0.00  0.00    +0.000 HD
ATOM     26  H   UNL     1      45.826   4.703  19.372  0.00  0.00    +0.000 HD
ENDBRANCH  23  24
ENDBRANCH  22  23
ENDBRANCH  16  22
ENDBRANCH  15  19
ENDBRANCH   1  15
TORSDOF 6
ENDMDL
MODEL 8
REMARK VINA RESULT:    -5.848      4.250      6.241
REMARK INTER + INTRA:          -8.279
REMARK INTER:                  -7.886
REMARK INTRA:                  -0.392
REMARK UNBOUND:                -0.551
REMARK  Name = 
REMARK  6 active torsions:
REMARK  status: ('A' for Active; 'I' for Inactive)
REMARK    1  A    between atoms: N_1  and  C_2
REMARK    2  A    between atoms: C_2  and  C_3
REMARK    3  A    between atoms: C_3  and  C_4
REMARK    4  A    between atoms: C_7  and  C_8
REMARK    5  A    between atoms: C_8  and  C_9
REMARK    6  A    between atoms: C_15  and  C_16
REMARK                            x       y       z     vdW  Elec       q    Type
REMARK                         _______ _______ _______ _____ _____    ______ ____
ROOT
ATOM      1  C   UNL     1      49.022   7.373  14.855  0.00  0.00    +0.000 A 
ATOM      2  N   UNL     1      49.400   8.622  15.067  0.00  0.00    +0.000 NA
ATOM      3  C   UNL     1      49.392   8.792  16.428  0.00  0.00    +0.000 A 
ATOM      4  C   UNL     1      48.993   7.643  17.073  0.00  0.00    +0.000 A 
ATOM      5  N   UNL     1      48.801   7.325  18.386  0.00  0.00    +0.000 NA
ATOM      6  C   UNL     1      48.396   6.109  18.621  0.00  0.00    +0.000 A 
ATOM      7  C   UNL     1      48.121   5.050  17.601  0.00  0.00    +0.000 A 
ATOM      8  C   UNL     1      48.357   5.425  16.330  0.00  0.00    +0.000 A 
ATOM      9  N   UNL     1      48.780   6.723  16.055  0.00  0.00    +0.000 N 
ENDROOT
BRANCH   7  10
ATOM     10  C   UNL     1      47.672   3.702  18.015  0.00  0.00    +0.000 C 
ATOM     11  N   UNL     1      48.321   3.115  19.056  0.00  0.00    +0.000 N 
ATOM     12  O   UNL     1      46.780   3.109  17.418  0.00  0.00    +0.000 OA
ATOM     13  H   UNL     1      49.164   3.470  19.479  0.00  0.00    +0.000 HD
ATOM     14  H   UNL     1      48.052   2.162  19.274  0.00  0.00    +0.000 HD
ENDBRANCH   7  10
BRANCH   1  15
ATOM     15  C   UNL     1      48.762   6.770  13.508  0.00  0.00    +0.000 C 
BRANCH  15  19
ATOM     16  C   UNL     1      44.607   5.776  12.745  0.00  0.00    +0.000 A 
ATOM     17  C   UNL     1      45.048   7.102  12.657  0.00  0.00    +0.000 A 
ATOM     18  C   UNL     1      46.386   7.428  12.902  0.00  0.00    +0.000 A 
ATOM     19  C   UNL     1      47.313   6.433  13.239  0.00  0.00    +0.000 A 
ATOM     20  C   UNL     1      46.873   5.104  13.312  0.00  0.00    +0.000 A 
ATOM     21  C   UNL     1      45.536   4.778  13.056  0.00  0.00    +0.000 A 
BRANCH  16  22
ATOM     22  C   UNL     1      43.150   5.437  12.535  0.00  0.00    +0.000 C 
BRANCH  22  23
ATOM     23  C   UNL     1      42.910   4.527  11.325  0.00  0.00    +0.000 C 
BRANCH  23  24
ATOM     24  N   UNL     1      43.422   5.146  10.101  0.00  0.00    +0.000 NA
ATOM     25  H   UNL     1      43.501   4.441   9.370  0.00  0.00    +0.000 HD
ATOM     26  H   UNL     1      44.366   5.497  10.262  0.00  0.00    +0.000 HD
ENDBRANCH  23  24
ENDBRANCH  22  23
ENDBRANCH  16  22
ENDBRANCH  15  19
ENDBRANCH   1  15
TORSDOF 6
ENDMDL
MODEL 9
REMARK VINA RESULT:    -5.740      4.125      8.185
REMARK INTER + INTRA:          -8.136
REMARK INTER:                  -7.742
REMARK INTRA:                  -0.394
REMARK UNBOUND:                -0.551
REMARK  Name = 
REMARK  6 active torsions:
REMARK  status: ('A' for Active; 'I' for Inactive)
REMARK    1  A    between atoms: N_1  and  C_2
REMARK    2  A    between atoms: C_2  and  C_3
REMARK    3  A    between atoms: C_3  and  C_4
REMARK    4  A    between atoms: C_7  and  C_8
REMARK    5  A    between atoms: C_8  and  C_9
REMARK    6  A    between atoms: C_15  and  C_16
REMARK                            x       y       z     vdW  Elec       q    Type
REMARK                         _______ _______ _______ _____ _____    ______ ____
ROOT
ATOM      1  C   UNL     1      47.285   5.029  14.367  0.00  0.00    +0.000 A 
ATOM      2  N   UNL     1      48.271   5.904  14.474  0.00  0.00    +0.000 NA
ATOM      3  C   UNL     1      48.223   6.665  13.335  0.00  0.00    +0.000 A 
ATOM      4  C   UNL     1      47.207   6.256  12.502  0.00  0.00    +0.000 A 
ATOM      5  N   UNL     1      46.782   6.667  11.272  0.00  0.00    +0.000 NA
ATOM      6  C   UNL     1      45.769   6.015  10.776  0.00  0.00    +0.000 A 
ATOM      7  C   UNL     1      45.045   4.874  11.417  0.00  0.00    +0.000 A 
ATOM      8  C   UNL     1      45.500   4.541  12.639  0.00  0.00    +0.000 A 
ATOM      9  N   UNL     1      46.589   5.216  13.184  0.00  0.00    +0.000 N 
ENDROOT
BRANCH   7  10
ATOM     10  C   UNL     1      43.898   4.231  10.737  0.00  0.00    +0.000 C 
ATOM     11  N   UNL     1      43.801   4.380   9.389  0.00  0.00    +0.000 N 
ATOM     12  O   UNL     1      43.036   3.624  11.364  0.00  0.00    +0.000 OA
ATOM     13  H   UNL     1      44.374   5.000   8.839  0.00  0.00    +0.000 HD
ATOM     14  H   UNL     1      42.969   4.001   8.953  0.00  0.00    +0.000 HD
ENDBRANCH   7  10
BRANCH   1  15
ATOM     15  C   UNL     1      47.026   3.904  15.323  0.00  0.00    +0.000 C 
BRANCH  15  19
ATOM     16  C   UNL     1      48.703   4.475  19.284  0.00  0.00    +0.000 A 
ATOM     17  C   UNL     1      47.579   5.204  18.877  0.00  0.00    +0.000 A 
ATOM     18  C   UNL     1      47.034   5.024  17.601  0.00  0.00    +0.000 A 
ATOM     19  C   UNL     1      47.602   4.109  16.705  0.00  0.00    +0.000 A 
ATOM     20  C   UNL     1      48.718   3.369  17.121  0.00  0.00    +0.000 A 
ATOM     21  C   UNL     1      49.256   3.543  18.401  0.00  0.00    +0.000 A 
BRANCH  16  22
ATOM     22  C   UNL     1      49.321   4.714  20.642  0.00  0.00    +0.000 C 
BRANCH  22  23
ATOM     23  C   UNL     1      50.714   5.348  20.568  0.00  0.00    +0.000 C 
BRANCH  23  24
ATOM     24  N   UNL     1      51.742   4.386  20.967  0.00  0.00    +0.000 NA
ATOM     25  H   UNL     1      52.653   4.706  20.640  0.00  0.00    +0.000 HD
ATOM     26  H   UNL     1      51.574   3.491  20.509  0.00  0.00    +0.000 HD
ENDBRANCH  23  24
ENDBRANCH  22  23
ENDBRANCH  16  22
ENDBRANCH  15  19
ENDBRANCH   1  15
TORSDOF 6
ENDMDL
