MODEL 1
REMARK VINA RESULT:    -8.068      0.000      0.000
REMARK INTER + INTRA:         -10.536
REMARK INTER:                  -9.955
REMARK INTRA:                  -0.581
REMARK UNBOUND:                -0.581
REMARK  Name = 
REMARK  4 active torsions:
REMARK  status: ('A' for Active; 'I' for Inactive)
REMARK    1  A    between atoms: C_2  and  C_4
REMARK    2  A    between atoms: C_7  and  C_8
REMARK    3  A    between atoms: C_8  and  C_9
REMARK    4  A    between atoms: C_9  and  C_10
REMARK                            x       y       z     vdW  Elec       q    Type
REMARK                         _______ _______ _______ _____ _____    ______ ____
ROOT
ATOM      1  C   UNL     1      46.442   2.566   7.767  0.00  0.00    +0.000 A 
ATOM      2  N   UNL     1      45.768   1.837   8.687  0.00  0.00    +0.000 NA
ATOM      3  C   UNL     1      44.961   2.577   9.492  0.00  0.00    +0.000 A 
ATOM      4  C   UNL     1      44.852   3.952   9.447  0.00  0.00    +0.000 A 
ATOM      5  N   UNL     1      45.555   4.602   8.490  0.00  0.00    +0.000 NA
ATOM      6  N   UNL     1      46.363   3.901   7.630  0.00  0.00    +0.000 NA
ENDROOT
BRANCH   1   8
ATOM      7  N   UNL     1      48.431   2.529   6.343  0.00  0.00    +0.000 N 
ATOM      8  C   UNL     1      47.357   1.816   6.835  0.00  0.00    +0.000 C 
ATOM      9  O   UNL     1      47.188   0.649   6.504  0.00  0.00    +0.000 OA
ATOM     10  H   UNL     1      49.065   2.077   5.699  0.00  0.00    +0.000 HD
ATOM     11  H   UNL     1      48.567   3.497   6.604  0.00  0.00    +0.000 HD
ENDBRANCH   1   8
BRANCH   4  12
ATOM     12  C   UNL     1      43.867   4.791  10.225  0.00  0.00    +0.000 C 
BRANCH  12  13
ATOM     13  C   UNL     1      43.955   4.945  11.747  0.00  0.00    +0.000 C 
ATOM     14  C   UNL     1      43.422   3.890  12.705  0.00  0.00    +0.000 C 
ATOM     15  C   UNL     1      42.726   5.207  12.619  0.00  0.00    +0.000 C 
BRANCH  13  16
ATOM     16  C   UNL     1      45.277   5.578  12.228  0.00  0.00    +0.000 A 
ATOM     17  C   UNL     1      46.035   5.017  13.270  0.00  0.00    +0.000 A 
ATOM     18  C   UNL     1      47.350   5.425  13.507  0.00  0.00    +0.000 A 
ATOM     19  C   UNL     1      47.915   6.437  12.735  0.00  0.00    +0.000 A 
ATOM     20  C   UNL     1      47.147   7.081  11.770  0.00  0.00    +0.000 A 
ATOM     21  C   UNL     1      45.840   6.660  11.527  0.00  0.00    +0.000 A 
ENDBRANCH  13  16
ENDBRANCH  12  13
ENDBRANCH   4  12
TORSDOF 4
ENDMDL
MODEL 2
REMARK VINA RESULT:    -7.842      0.584      1.585
REMARK INTER + INTRA:         -10.257
REMARK INTER:                  -9.758
REMARK INTRA:                  -0.499
REMARK UNBOUND:                -0.581
REMARK  Name = 
REMARK  4 active torsions:
REMARK  status: ('A' for Active; 'I' for Inactive)
REMARK    1  A    between atoms: C_2  and  C_4
REMARK    2  A    between atoms: C_7  and  C_8
REMARK    3  A    between atoms: C_8  and  C_9
REMARK    4  A    between atoms: C_9  and  C_10
REMARK                            x       y       z     vdW  Elec       q    Type
REMARK                         _______ _______ _______ _____ _____    ______ ____
ROOT
ATOM      1  C   UNL     1      46.344   2.288   7.885  0.00  0.00    +0.000 A 
ATOM      2  N   UNL     1      46.411   3.619   7.641  0.00  0.00    +0.000 NA
ATOM      3  C   UNL     1      45.542   4.359   8.377  0.00  0.00    +0.000 A 
ATOM      4  C   UNL     1      44.619   3.838   9.262  0.00  0.00    +0.000 A 
ATOM      5  N   UNL     1      44.625   2.499   9.453  0.00  0.00    +0.000 NA
ATOM      6  N   UNL     1      45.503   1.705   8.757  0.00  0.00    +0.000 NA
ENDROOT
BRANCH   1   8
ATOM      7  N   UNL     1      48.414   2.009   6.612  0.00  0.00    +0.000 N 
ATOM      8  C   UNL     1      47.279   1.400   7.108  0.00  0.00    +0.000 C 
ATOM      9  O   UNL     1      47.078   0.210   6.901  0.00  0.00    +0.000 OA
ATOM     10  H   UNL     1      49.065   1.461   6.067  0.00  0.00    +0.000 HD
ATOM     11  H   UNL     1      48.578   2.995   6.770  0.00  0.00    +0.000 HD
ENDBRANCH   1   8
BRANCH   4  12
ATOM     12  C   UNL     1      43.740   4.633  10.197  0.00  0.00    +0.000 C 
BRANCH  12  13
ATOM     13  C   UNL     1      44.014   4.706  11.703  0.00  0.00    +0.000 C 
ATOM     14  C   UNL     1      43.515   3.647  12.675  0.00  0.00    +0.000 C 
ATOM     15  C   UNL     1      42.916   5.013  12.724  0.00  0.00    +0.000 C 
BRANCH  13  16
ATOM     16  C   UNL     1      45.426   5.220  12.050  0.00  0.00    +0.000 A 
ATOM     17  C   UNL     1      45.979   6.354  11.431  0.00  0.00    +0.000 A 
ATOM     18  C   UNL     1      47.122   6.971  11.944  0.00  0.00    +0.000 A 
ATOM     19  C   UNL     1      47.762   6.436  13.058  0.00  0.00    +0.000 A 
ATOM     20  C   UNL     1      47.296   5.252  13.621  0.00  0.00    +0.000 A 
ATOM     21  C   UNL     1      46.145   4.648  13.115  0.00  0.00    +0.000 A 
ENDBRANCH  13  16
ENDBRANCH  12  13
ENDBRANCH   4  12
TORSDOF 4
ENDMDL
MODEL 3
REMARK VINA RESULT:    -6.737      4.216      6.474
REMARK INTER + INTRA:          -8.893
REMARK INTER:                  -8.829
REMARK INTRA:                  -0.064
REMARK UNBOUND:                -0.581
REMARK  Name = 
REMARK  4 active torsions:
REMARK  status: ('A' for Active; 'I' for Inactive)
REMARK    1  A    between atoms: C_2  and  C_4
REMARK    2  A    between atoms: C_7  and  C_8
REMARK    3  A    between atoms: C_8  and  C_9
REMARK    4  A    between atoms: C_9  and  C_10
REMARK                            x       y       z     vdW  Elec       q    Type
REMARK                         _______ _______ _______ _____ _____    ______ ____
ROOT
ATOM      1  C   UNL     1      47.399   4.605  15.106  0.00  0.00    +0.000 A 
ATOM      2  N   UNL     1      46.688   5.574  14.482  0.00  0.00    +0.000 NA
ATOM      3  C   UNL     1      45.973   5.133  13.414  0.00  0.00    +0.000 A 
ATOM      4  C   UNL     1      45.986   3.836  12.941  0.00  0.00    +0.000 A 
ATOM      5  N   UNL     1      46.717   2.928  13.629  0.00  0.00    +0.000 NA
ATOM      6  N   UNL     1      47.435   3.314  14.733  0.00  0.00    +0.000 NA
ENDROOT
BRANCH   1   8
ATOM      7  N   UNL     1      48.750   6.289  16.256  0.00  0.00    +0.000 N 
ATOM      8  C   UNL     1      48.217   5.016  16.301  0.00  0.00    +0.000 C 
ATOM      9  O   UNL     1      48.425   4.295  17.268  0.00  0.00    +0.000 OA
ATOM     10  H   UNL     1      49.323   6.607  17.026  0.00  0.00    +0.000 HD
ATOM     11  H   UNL     1      48.591   6.884  15.454  0.00  0.00    +0.000 HD
ENDBRANCH   1   8
BRANCH   4  12
ATOM     12  C   UNL     1      45.101   3.280  11.851  0.00  0.00    +0.000 C 
BRANCH  12  13
ATOM     13  C   UNL     1      44.753   4.088  10.597  0.00  0.00    +0.000 C 
ATOM     14  C   UNL     1      44.752   5.609  10.582  0.00  0.00    +0.000 C 
ATOM     15  C   UNL     1      43.453   4.884  10.468  0.00  0.00    +0.000 C 
BRANCH  13  16
ATOM     16  C   UNL     1      45.307   3.477   9.295  0.00  0.00    +0.000 A 
ATOM     17  C   UNL     1      45.863   4.271   8.276  0.00  0.00    +0.000 A 
ATOM     18  C   UNL     1      46.609   3.701   7.242  0.00  0.00    +0.000 A 
ATOM     19  C   UNL     1      46.772   2.319   7.180  0.00  0.00    +0.000 A 
ATOM     20  C   UNL     1      46.140   1.506   8.116  0.00  0.00    +0.000 A 
ATOM     21  C   UNL     1      45.410   2.081   9.156  0.00  0.00    +0.000 A 
ENDBRANCH  13  16
ENDBRANCH  12  13
ENDBRANCH   4  12
TORSDOF 4
ENDMDL
MODEL 4
REMARK VINA RESULT:    -6.731      4.136      6.295
REMARK INTER + INTRA:          -8.886
REMARK INTER:                  -9.066
REMARK INTRA:                   0.180
REMARK UNBOUND:                -0.581
REMARK  Name = 
REMARK  4 active torsions:
REMARK  status: ('A' for Active; 'I' for Inactive)
REMARK    1  A    between atoms: C_2  and  C_4
REMARK    2  A    between atoms: C_7  and  C_8
REMARK    3  A    between atoms: C_8  and  C_9
REMARK    4  A    between atoms: C_9  and  C_10
REMARK                            x       y       z     vdW  Elec       q    Type
REMARK                         _______ _______ _______ _____ _____    ______ ____
ROOT
ATOM      1  C   UNL     1      47.440   4.038  15.180  0.00  0.00    +0.000 A 
ATOM      2  N   UNL     1      47.655   5.360  14.980  0.00  0.00    +0.000 NA
ATOM      3  C   UNL     1      47.129   5.834  13.820  0.00  0.00    +0.000 A 
ATOM      4  C   UNL     1      46.479   5.062  12.878  0.00  0.00    +0.000 A 
ATOM      5  N   UNL     1      46.300   3.751  13.162  0.00  0.00    +0.000 NA
ATOM      6  N   UNL     1      46.784   3.225  14.334  0.00  0.00    +0.000 NA
ENDROOT
BRANCH   1   8
ATOM      7  N   UNL     1      47.056   2.969  17.347  0.00  0.00    +0.000 N 
ATOM      8  C   UNL     1      47.992   3.438  16.447  0.00  0.00    +0.000 C 
ATOM      9  O   UNL     1      49.187   3.359  16.702  0.00  0.00    +0.000 OA
ATOM     10  H   UNL     1      47.374   2.574  18.222  0.00  0.00    +0.000 HD
ATOM     11  H   UNL     1      46.068   3.043  17.146  0.00  0.00    +0.000 HD
ENDBRANCH   1   8
BRANCH   4  12
ATOM     12  C   UNL     1      45.762   5.575  11.652  0.00  0.00    +0.000 C 
BRANCH  12  13
ATOM     13  C   UNL     1      44.594   4.813  11.018  0.00  0.00    +0.000 C 
ATOM     14  C   UNL     1      43.200   5.411  10.897  0.00  0.00    +0.000 C 
ATOM     15  C   UNL     1      43.420   4.277  11.841  0.00  0.00    +0.000 C 
BRANCH  13  16
ATOM     16  C   UNL     1      44.996   3.979   9.785  0.00  0.00    +0.000 A 
ATOM     17  C   UNL     1      45.567   4.566   8.642  0.00  0.00    +0.000 A 
ATOM     18  C   UNL     1      46.182   3.786   7.661  0.00  0.00    +0.000 A 
ATOM     19  C   UNL     1      46.193   2.398   7.779  0.00  0.00    +0.000 A 
ATOM     20  C   UNL     1      45.539   1.790   8.846  0.00  0.00    +0.000 A 
ATOM     21  C   UNL     1      44.941   2.574   9.833  0.00  0.00    +0.000 A 
ENDBRANCH  13  16
ENDBRANCH  12  13
ENDBRANCH   4  12
TORSDOF 4
ENDMDL
MODEL 5
REMARK VINA RESULT:    -6.253      4.911      6.804
REMARK INTER + INTRA:          -8.297
REMARK INTER:                  -8.160
REMARK INTRA:                  -0.137
REMARK UNBOUND:                -0.581
REMARK  Name = 
REMARK  4 active torsions:
REMARK  status: ('A' for Active; 'I' for Inactive)
REMARK    1  A    between atoms: C_2  and  C_4
REMARK    2  A    between atoms: C_7  and  C_8
REMARK    3  A    between atoms: C_8  and  C_9
REMARK    4  A    between atoms: C_9  and  C_10
REMARK                            x       y       z     vdW  Elec       q    Type
REMARK                         _______ _______ _______ _____ _____    ______ ____
ROOT
ATOM      1  C   UNL     1      47.982   4.615  16.264  0.00  0.00    +0.000 A 
ATOM      2  N   UNL     1      46.962   3.958  15.662  0.00  0.00    +0.000 NA
ATOM      3  C   UNL     1      46.647   4.439  14.431  0.00  0.00    +0.000 A 
ATOM      4  C   UNL     1      47.249   5.529  13.835  0.00  0.00    +0.000 A 
ATOM      5  N   UNL     1      48.266   6.122  14.501  0.00  0.00    +0.000 NA
ATOM      6  N   UNL     1      48.646   5.659  15.736  0.00  0.00    +0.000 NA
ENDROOT
BRANCH   1   8
ATOM      7  N   UNL     1      47.482   4.367  18.645  0.00  0.00    +0.000 N 
ATOM      8  C   UNL     1      48.392   4.140  17.632  0.00  0.00    +0.000 C 
ATOM      9  O   UNL     1      49.458   3.588  17.874  0.00  0.00    +0.000 OA
ATOM     10  H   UNL     1      47.717   4.083  19.587  0.00  0.00    +0.000 HD
ATOM     11  H   UNL     1      46.605   4.833  18.452  0.00  0.00    +0.000 HD
ENDBRANCH   1   8
BRANCH   4  12
ATOM     12  C   UNL     1      47.025   6.002  12.418  0.00  0.00    +0.000 C 
BRANCH  12  13
ATOM     13  C   UNL     1      45.635   6.000  11.772  0.00  0.00    +0.000 C 
ATOM     14  C   UNL     1      44.921   7.282  11.372  0.00  0.00    +0.000 C 
ATOM     15  C   UNL     1      44.386   6.483  12.512  0.00  0.00    +0.000 C 
BRANCH  13  16
ATOM     16  C   UNL     1      45.426   4.856  10.760  0.00  0.00    +0.000 A 
ATOM     17  C   UNL     1      44.866   3.622  11.135  0.00  0.00    +0.000 A 
ATOM     18  C   UNL     1      44.423   2.710  10.176  0.00  0.00    +0.000 A 
ATOM     19  C   UNL     1      44.576   2.992   8.821  0.00  0.00    +0.000 A 
ATOM     20  C   UNL     1      45.226   4.158   8.427  0.00  0.00    +0.000 A 
ATOM     21  C   UNL     1      45.652   5.074   9.389  0.00  0.00    +0.000 A 
ENDBRANCH  13  16
ENDBRANCH  12  13
ENDBRANCH   4  12
TORSDOF 4
ENDMDL
MODEL 6
REMARK VINA RESULT:    -5.520      3.162      5.093
REMARK INTER + INTRA:          -7.391
REMARK INTER:                  -6.992
REMARK INTRA:                  -0.400
REMARK UNBOUND:                -0.581
REMARK  Name = 
REMARK  4 active torsions:
REMARK  status: ('A' for Active; 'I' for Inactive)
REMARK    1  A    between atoms: C_2  and  C_4
REMARK    2  A    between atoms: C_7  and  C_8
REMARK    3  A    between atoms: C_8  and  C_9
REMARK    4  A    between atoms: C_9  and  C_10
REMARK                            x       y       z     vdW  Elec       q    Type
REMARK                         _______ _______ _______ _____ _____    ______ ____
ROOT
ATOM      1  C   UNL     1      44.512   4.031  11.620  0.00  0.00    +0.000 A 
ATOM      2  N   UNL     1      44.857   4.051  12.929  0.00  0.00    +0.000 NA
ATOM      3  C   UNL     1      45.412   5.223  13.335  0.00  0.00    +0.000 A 
ATOM      4  C   UNL     1      45.670   6.298  12.510  0.00  0.00    +0.000 A 
ATOM      5  N   UNL     1      45.286   6.198  11.216  0.00  0.00    +0.000 NA
ATOM      6  N   UNL     1      44.693   5.048  10.759  0.00  0.00    +0.000 NA
ENDROOT
BRANCH   1   8
ATOM      7  N   UNL     1      44.476   2.229   9.966  0.00  0.00    +0.000 N 
ATOM      8  C   UNL     1      43.888   2.765  11.094  0.00  0.00    +0.000 C 
ATOM      9  O   UNL     1      42.917   2.220  11.603  0.00  0.00    +0.000 OA
ATOM     10  H   UNL     1      44.083   1.389   9.562  0.00  0.00    +0.000 HD
ATOM     11  H   UNL     1      45.270   2.683   9.536  0.00  0.00    +0.000 HD
ENDBRANCH   1   8
BRANCH   4  12
ATOM     12  C   UNL     1      46.152   7.660  12.950  0.00  0.00    +0.000 C 
BRANCH  12  13
ATOM     13  C   UNL     1      47.642   7.986  13.092  0.00  0.00    +0.000 C 
ATOM     14  C   UNL     1      48.721   6.914  13.043  0.00  0.00    +0.000 C 
ATOM     15  C   UNL     1      48.451   7.609  14.335  0.00  0.00    +0.000 C 
BRANCH  13  16
ATOM     16  C   UNL     1      48.060   9.289  12.380  0.00  0.00    +0.000 A 
ATOM     17  C   UNL     1      49.316   9.432  11.765  0.00  0.00    +0.000 A 
ATOM     18  C   UNL     1      49.576  10.489  10.891  0.00  0.00    +0.000 A 
ATOM     19  C   UNL     1      48.600  11.453  10.653  0.00  0.00    +0.000 A 
ATOM     20  C   UNL     1      47.388  11.392  11.335  0.00  0.00    +0.000 A 
ATOM     21  C   UNL     1      47.127  10.325  12.194  0.00  0.00    +0.000 A 
ENDBRANCH  13  16
ENDBRANCH  12  13
ENDBRANCH   4  12
TORSDOF 4
ENDMDL
MODEL 7
REMARK VINA RESULT:    -5.421      3.057      5.010
REMARK INTER + INTRA:          -7.269
REMARK INTER:                  -6.951
REMARK INTRA:                  -0.318
REMARK UNBOUND:                -0.581
REMARK  Name = 
REMARK  4 active torsions:
REMARK  status: ('A' for Active; 'I' for Inactive)
REMARK    1  A    between atoms: C_2  and  C_4
REMARK    2  A    between atoms: C_7  and  C_8
REMARK    3  A    between atoms: C_8  and  C_9
REMARK    4  A    between atoms: C_9  and  C_10
REMARK                            x       y       z     vdW  Elec       q    Type
REMARK                         _______ _______ _______ _____ _____    ______ ____
ROOT
ATOM      1  C   UNL     1      44.528   4.051  11.580  0.00  0.00    +0.000 A 
ATOM      2  N   UNL     1      44.855   4.121  12.892  0.00  0.00    +0.000 NA
ATOM      3  C   UNL     1      45.405   5.308  13.260  0.00  0.00    +0.000 A 
ATOM      4  C   UNL     1      45.674   6.351  12.396  0.00  0.00    +0.000 A 
ATOM      5  N   UNL     1      45.307   6.201  11.103  0.00  0.00    +0.000 NA
ATOM      6  N   UNL     1      44.720   5.033  10.682  0.00  0.00    +0.000 NA
ENDROOT
BRANCH   1   8
ATOM      7  N   UNL     1      44.511   2.187   9.995  0.00  0.00    +0.000 N 
ATOM      8  C   UNL     1      43.910   2.765  11.096  0.00  0.00    +0.000 C 
ATOM      9  O   UNL     1      42.934   2.238  11.613  0.00  0.00    +0.000 OA
ATOM     10  H   UNL     1      44.123   1.332   9.619  0.00  0.00    +0.000 HD
ATOM     11  H   UNL     1      45.310   2.625   9.557  0.00  0.00    +0.000 HD
ENDBRANCH   1   8
BRANCH   4  12
ATOM     12  C   UNL     1      46.150   7.729  12.790  0.00  0.00    +0.000 C 
BRANCH  12  13
ATOM     13  C   UNL     1      47.639   8.081  12.869  0.00  0.00    +0.000 C 
ATOM     14  C   UNL     1      48.249   9.230  12.081  0.00  0.00    +0.000 C 
ATOM     15  C   UNL     1      48.606   7.829  11.710  0.00  0.00    +0.000 C 
BRANCH  13  16
ATOM     16  C   UNL     1      48.230   7.947  14.287  0.00  0.00    +0.000 A 
ATOM     17  C   UNL     1      48.309   9.041  15.168  0.00  0.00    +0.000 A 
ATOM     18  C   UNL     1      48.576   8.856  16.526  0.00  0.00    +0.000 A 
ATOM     19  C   UNL     1      48.820   7.578  17.021  0.00  0.00    +0.000 A 
ATOM     20  C   UNL     1      48.855   6.494  16.149  0.00  0.00    +0.000 A 
ATOM     21  C   UNL     1      48.571   6.681  14.796  0.00  0.00    +0.000 A 
ENDBRANCH  13  16
ENDBRANCH  12  13
ENDBRANCH   4  12
TORSDOF 4
ENDMDL
MODEL 8
REMARK VINA RESULT:    -5.362      5.309      6.821
REMARK INTER + INTRA:          -7.197
REMARK INTER:                  -6.970
REMARK INTRA:                  -0.227
REMARK UNBOUND:                -0.581
REMARK  Name = 
REMARK  4 active torsions:
REMARK  status: ('A' for Active; 'I' for Inactive)
REMARK    1  A    between atoms: C_2  and  C_4
REMARK    2  A    between atoms: C_7  and  C_8
REMARK    3  A    between atoms: C_8  and  C_9
REMARK    4  A    between atoms: C_9  and  C_10
REMARK                            x       y       z     vdW  Elec       q    Type
REMARK                         _______ _______ _______ _____ _____    ______ ____
ROOT
ATOM      1  C   UNL     1      47.407   4.331  15.693  0.00  0.00    +0.000 A 
ATOM      2  N   UNL     1      46.410   4.025  14.829  0.00  0.00    +0.000 NA
ATOM      3  C   UNL     1      46.392   4.800  13.713  0.00  0.00    +0.000 A 
ATOM      4  C   UNL     1      47.255   5.849  13.469  0.00  0.00    +0.000 A 
ATOM      5  N   UNL     1      48.227   6.081  14.381  0.00  0.00    +0.000 NA
ATOM      6  N   UNL     1      48.312   5.309  15.513  0.00  0.00    +0.000 NA
ENDROOT
BRANCH   1   8
ATOM      7  N   UNL     1      48.742   3.453  17.546  0.00  0.00    +0.000 N 
ATOM      8  C   UNL     1      47.496   3.514  16.955  0.00  0.00    +0.000 C 
ATOM      9  O   UNL     1      46.548   2.920  17.453  0.00  0.00    +0.000 OA
ATOM     10  H   UNL     1      48.859   2.902  18.386  0.00  0.00    +0.000 HD
ATOM     11  H   UNL     1      49.530   3.933  17.132  0.00  0.00    +0.000 HD
ENDBRANCH   1   8
BRANCH   4  12
ATOM     12  C   UNL     1      47.354   6.637  12.185  0.00  0.00    +0.000 C 
BRANCH  12  13
ATOM     13  C   UNL     1      47.120   8.150  12.142  0.00  0.00    +0.000 C 
ATOM     14  C   UNL     1      46.305   8.880  13.199  0.00  0.00    +0.000 C 
ATOM     15  C   UNL     1      45.755   8.761  11.817  0.00  0.00    +0.000 C 
BRANCH  13  16
ATOM     16  C   UNL     1      48.351   8.953  11.675  0.00  0.00    +0.000 A 
ATOM     17  C   UNL     1      48.318  10.351  11.531  0.00  0.00    +0.000 A 
ATOM     18  C   UNL     1      49.494  11.090  11.387  0.00  0.00    +0.000 A 
ATOM     19  C   UNL     1      50.724  10.439  11.334  0.00  0.00    +0.000 A 
ATOM     20  C   UNL     1      50.772   9.048  11.365  0.00  0.00    +0.000 A 
ATOM     21  C   UNL     1      49.596   8.316  11.525  0.00  0.00    +0.000 A 
ENDBRANCH  13  16
ENDBRANCH  12  13
ENDBRANCH   4  12
TORSDOF 4
ENDMDL
MODEL 9
REMARK VINA RESULT:    -5.226      5.524      7.146
REMARK INTER + INTRA:          -7.029
REMARK INTER:                  -6.455
REMARK INTRA:                  -0.574
REMARK UNBOUND:                -0.581
REMARK  Name = 
REMARK  4 active torsions:
REMARK  status: ('A' for Active; 'I' for Inactive)
REMARK    1  A    between atoms: C_2  and  C_4
REMARK    2  A    between atoms: C_7  and  C_8
REMARK    3  A    between atoms: C_8  and  C_9
REMARK    4  A    between atoms: C_9  and  C_10
REMARK                            x       y       z     vdW  Elec       q    Type
REMARK                         _______ _______ _______ _____ _____    ______ ____
ROOT
ATOM      1  C   UNL     1      48.058   4.689  17.142  0.00  0.00    +0.000 A 
ATOM      2  N   UNL     1      47.083   3.830  16.761  0.00  0.00    +0.000 NA
ATOM      3  C   UNL     1      46.749   3.924  15.447  0.00  0.00    +0.000 A 
ATOM      4  C   UNL     1      47.289   4.835  14.561  0.00  0.00    +0.000 A 
ATOM      5  N   UNL     1      48.265   5.651  15.022  0.00  0.00    +0.000 NA
ATOM      6  N   UNL     1      48.662   5.579  16.334  0.00  0.00    +0.000 NA
ENDROOT
BRANCH   1   8
ATOM      7  N   UNL     1      48.382   3.416  19.205  0.00  0.00    +0.000 N 
ATOM      8  C   UNL     1      48.485   4.645  18.585  0.00  0.00    +0.000 C 
ATOM      9  O   UNL     1      48.896   5.617  19.207  0.00  0.00    +0.000 OA
ATOM     10  H   UNL     1      48.638   3.337  20.180  0.00  0.00    +0.000 HD
ATOM     11  H   UNL     1      48.032   2.613  18.699  0.00  0.00    +0.000 HD
ENDBRANCH   1   8
BRANCH   4  12
ATOM     12  C   UNL     1      47.048   4.874  13.071  0.00  0.00    +0.000 C 
BRANCH  12  13
ATOM     13  C   UNL     1      46.054   5.851  12.435  0.00  0.00    +0.000 C 
ATOM     14  C   UNL     1      44.602   5.942  12.880  0.00  0.00    +0.000 C 
ATOM     15  C   UNL     1      44.911   5.387  11.530  0.00  0.00    +0.000 C 
BRANCH  13  16
ATOM     16  C   UNL     1      46.666   7.227  12.105  0.00  0.00    +0.000 A 
ATOM     17  C   UNL     1      45.979   8.428  12.357  0.00  0.00    +0.000 A 
ATOM     18  C   UNL     1      46.639   9.658  12.322  0.00  0.00    +0.000 A 
ATOM     19  C   UNL     1      47.989   9.716  11.984  0.00  0.00    +0.000 A 
ATOM     20  C   UNL     1      48.662   8.552  11.624  0.00  0.00    +0.000 A 
ATOM     21  C   UNL     1      48.002   7.324  11.677  0.00  0.00    +0.000 A 
ENDBRANCH  13  16
ENDBRANCH  12  13
ENDBRANCH   4  12
TORSDOF 4
ENDMDL
