MODEL 1
REMARK VINA RESULT:    -8.189      0.000      0.000
REMARK INTER + INTRA:         -10.139
REMARK INTER:                 -10.104
REMARK INTRA:                  -0.035
REMARK UNBOUND:                -0.035
REMARK  Name = 
REMARK  4 active torsions:
REMARK  status: ('A' for Active; 'I' for Inactive)
REMARK    1  A    between atoms: C_2  and  C_4
REMARK    2  A    between atoms: C_7  and  O_8
REMARK    3  A    between atoms: O_8  and  C_9
REMARK    4  A    between atoms: C_9  and  C_10
REMARK                            x       y       z     vdW  Elec       q    Type
REMARK                         _______ _______ _______ _____ _____    ______ ____
ROOT
ATOM      1  C   UNL     1      46.520   2.609   7.487  0.00  0.00    +0.000 A 
ATOM      2  C   UNL     1      45.923   1.702   8.364  0.00  0.00    +0.000 A 
ATOM      3  C   UNL     1      44.928   2.149   9.230  0.00  0.00    +0.000 A 
ATOM      4  C   UNL     1      44.562   3.489   9.197  0.00  0.00    +0.000 A 
ATOM      5  N   UNL     1      45.127   4.392   8.370  0.00  0.00    +0.000 NA
ATOM      6  C   UNL     1      46.093   3.933   7.533  0.00  0.00    +0.000 A 
ENDROOT
BRANCH   1   8
ATOM      7  N   UNL     1      47.793   3.000   5.443  0.00  0.00    +0.000 N 
ATOM      8  C   UNL     1      47.616   2.239   6.564  0.00  0.00    +0.000 C 
ATOM      9  O   UNL     1      48.357   1.293   6.805  0.00  0.00    +0.000 OA
ATOM     10  H   UNL     1      48.585   2.766   4.857  0.00  0.00    +0.000 HD
ATOM     11  H   UNL     1      47.378   3.914   5.322  0.00  0.00    +0.000 HD
ENDBRANCH   1   8
BRANCH   4  12
ATOM     12  O   UNL     1      43.552   3.852  10.075  0.00  0.00    +0.000 OA
BRANCH  12  13
ATOM     13  C   UNL     1      43.825   4.864  11.072  0.00  0.00    +0.000 C 
ATOM     14  C   UNL     1      42.684   4.974  12.076  0.00  0.00    +0.000 C 
ATOM     15  C   UNL     1      42.975   6.115  11.158  0.00  0.00    +0.000 C 
BRANCH  13  16
ATOM     16  C   UNL     1      45.242   4.849  11.636  0.00  0.00    +0.000 C 
ATOM     17  C   UNL     1      45.375   3.917  12.850  0.00  0.00    +0.000 C 
ATOM     18  C   UNL     1      46.786   3.941  13.440  0.00  0.00    +0.000 C 
ATOM     19  C   UNL     1      47.225   5.360  13.788  0.00  0.00    +0.000 C 
ATOM     20  C   UNL     1      47.124   6.281  12.576  0.00  0.00    +0.000 C 
ATOM     21  C   UNL     1      45.717   6.273  11.982  0.00  0.00    +0.000 C 
ENDBRANCH  13  16
ENDBRANCH  12  13
ENDBRANCH   4  12
TORSDOF 4
ENDMDL
MODEL 2
REMARK VINA RESULT:    -6.858      3.309      6.171
REMARK INTER + INTRA:          -8.496
REMARK INTER:                  -8.041
REMARK INTRA:                  -0.455
REMARK UNBOUND:                -0.035
REMARK  Name = 
REMARK  4 active torsions:
REMARK  status: ('A' for Active; 'I' for Inactive)
REMARK    1  A    between atoms: C_2  and  C_4
REMARK    2  A    between atoms: C_7  and  O_8
REMARK    3  A    between atoms: O_8  and  C_9
REMARK    4  A    between atoms: C_9  and  C_10
REMARK                            x       y       z     vdW  Elec       q    Type
REMARK                         _______ _______ _______ _____ _____    ______ ____
ROOT
ATOM      1  C   UNL     1      47.655   7.151  13.898  0.00  0.00    +0.000 A 
ATOM      2  C   UNL     1      46.794   8.170  13.485  0.00  0.00    +0.000 A 
ATOM      3  C   UNL     1      45.856   7.904  12.488  0.00  0.00    +0.000 A 
ATOM      4  C   UNL     1      45.810   6.632  11.933  0.00  0.00    +0.000 A 
ATOM      5  N   UNL     1      46.635   5.630  12.302  0.00  0.00    +0.000 NA
ATOM      6  C   UNL     1      47.539   5.912  13.276  0.00  0.00    +0.000 A 
ENDROOT
BRANCH   1   8
ATOM      7  N   UNL     1      48.372   7.987  16.074  0.00  0.00    +0.000 N 
ATOM      8  C   UNL     1      48.713   7.351  14.913  0.00  0.00    +0.000 C 
ATOM      9  O   UNL     1      49.853   6.942  14.731  0.00  0.00    +0.000 OA
ATOM     10  H   UNL     1      49.097   8.059  16.779  0.00  0.00    +0.000 HD
ATOM     11  H   UNL     1      47.417   8.124  16.372  0.00  0.00    +0.000 HD
ENDBRANCH   1   8
BRANCH   4  12
ATOM     12  O   UNL     1      44.839   6.441  10.963  0.00  0.00    +0.000 OA
BRANCH  12  13
ATOM     13  C   UNL     1      44.032   5.240  11.008  0.00  0.00    +0.000 C 
ATOM     14  C   UNL     1      42.593   5.555  11.393  0.00  0.00    +0.000 C 
ATOM     15  C   UNL     1      43.447   4.751  12.317  0.00  0.00    +0.000 C 
BRANCH  13  16
ATOM     16  C   UNL     1      44.242   4.278   9.845  0.00  0.00    +0.000 C 
ATOM     17  C   UNL     1      44.395   2.822  10.313  0.00  0.00    +0.000 C 
ATOM     18  C   UNL     1      44.653   1.867   9.147  0.00  0.00    +0.000 C 
ATOM     19  C   UNL     1      45.856   2.305   8.318  0.00  0.00    +0.000 C 
ATOM     20  C   UNL     1      45.693   3.739   7.824  0.00  0.00    +0.000 C 
ATOM     21  C   UNL     1      45.444   4.705   8.980  0.00  0.00    +0.000 C 
ENDBRANCH  13  16
ENDBRANCH  12  13
ENDBRANCH   4  12
TORSDOF 4
ENDMDL
MODEL 3
REMARK VINA RESULT:    -6.599      1.043      1.926
REMARK INTER + INTRA:          -8.177
REMARK INTER:                  -9.386
REMARK INTRA:                   1.209
REMARK UNBOUND:                -0.035
REMARK  Name = 
REMARK  4 active torsions:
REMARK  status: ('A' for Active; 'I' for Inactive)
REMARK    1  A    between atoms: C_2  and  C_4
REMARK    2  A    between atoms: C_7  and  O_8
REMARK    3  A    between atoms: O_8  and  C_9
REMARK    4  A    between atoms: C_9  and  C_10
REMARK                            x       y       z     vdW  Elec       q    Type
REMARK                         _______ _______ _______ _____ _____    ______ ____
ROOT
ATOM      1  C   UNL     1      46.540   2.763   7.609  0.00  0.00    +0.000 A 
ATOM      2  C   UNL     1      45.709   1.961   8.393  0.00  0.00    +0.000 A 
ATOM      3  C   UNL     1      44.832   2.567   9.292  0.00  0.00    +0.000 A 
ATOM      4  C   UNL     1      44.816   3.953   9.382  0.00  0.00    +0.000 A 
ATOM      5  N   UNL     1      45.615   4.754   8.647  0.00  0.00    +0.000 NA
ATOM      6  C   UNL     1      46.459   4.142   7.777  0.00  0.00    +0.000 A 
ENDROOT
BRANCH   1   8
ATOM      7  N   UNL     1      47.876   2.970   5.579  0.00  0.00    +0.000 N 
ATOM      8  C   UNL     1      47.536   2.211   6.664  0.00  0.00    +0.000 C 
ATOM      9  O   UNL     1      48.056   1.118   6.853  0.00  0.00    +0.000 OA
ATOM     10  H   UNL     1      48.602   2.599   4.978  0.00  0.00    +0.000 HD
ATOM     11  H   UNL     1      47.667   3.956   5.504  0.00  0.00    +0.000 HD
ENDBRANCH   1   8
BRANCH   4  12
ATOM     12  O   UNL     1      43.904   4.480  10.283  0.00  0.00    +0.000 OA
BRANCH  12  13
ATOM     13  C   UNL     1      44.231   4.472  11.693  0.00  0.00    +0.000 C 
ATOM     14  C   UNL     1      44.871   3.152  12.105  0.00  0.00    +0.000 C 
ATOM     15  C   UNL     1      43.530   3.524  12.644  0.00  0.00    +0.000 C 
BRANCH  13  16
ATOM     16  C   UNL     1      44.884   5.748  12.211  0.00  0.00    +0.000 C 
ATOM     17  C   UNL     1      44.419   6.994  11.441  0.00  0.00    +0.000 C 
ATOM     18  C   UNL     1      45.112   8.265  11.933  0.00  0.00    +0.000 C 
ATOM     19  C   UNL     1      46.631   8.129  11.890  0.00  0.00    +0.000 C 
ATOM     20  C   UNL     1      47.098   6.912  12.680  0.00  0.00    +0.000 C 
ATOM     21  C   UNL     1      46.420   5.633  12.194  0.00  0.00    +0.000 C 
ENDBRANCH  13  16
ENDBRANCH  12  13
ENDBRANCH   4  12
TORSDOF 4
ENDMDL
MODEL 4
REMARK VINA RESULT:    -6.193      3.090      6.073
REMARK INTER + INTRA:          -7.676
REMARK INTER:                  -7.579
REMARK INTRA:                  -0.097
REMARK UNBOUND:                -0.035
REMARK  Name = 
REMARK  4 active torsions:
REMARK  status: ('A' for Active; 'I' for Inactive)
REMARK    1  A    between atoms: C_2  and  C_4
REMARK    2  A    between atoms: C_7  and  O_8
REMARK    3  A    between atoms: O_8  and  C_9
REMARK    4  A    between atoms: C_9  and  C_10
REMARK                            x       y       z     vdW  Elec       q    Type
REMARK                         _______ _______ _______ _____ _____    ______ ____
ROOT
ATOM      1  C   UNL     1      46.980   8.112  12.609  0.00  0.00    +0.000 A 
ATOM      2  C   UNL     1      45.621   8.430  12.574  0.00  0.00    +0.000 A 
ATOM      3  C   UNL     1      44.753   7.621  11.841  0.00  0.00    +0.000 A 
ATOM      4  C   UNL     1      45.270   6.524  11.164  0.00  0.00    +0.000 A 
ATOM      5  N   UNL     1      46.580   6.198  11.169  0.00  0.00    +0.000 NA
ATOM      6  C   UNL     1      47.404   6.999  11.891  0.00  0.00    +0.000 A 
ENDROOT
BRANCH   1   8
ATOM      7  N   UNL     1      47.667   9.394  14.567  0.00  0.00    +0.000 N 
ATOM      8  C   UNL     1      47.983   8.936  13.319  0.00  0.00    +0.000 C 
ATOM      9  O   UNL     1      49.072   9.186  12.815  0.00  0.00    +0.000 OA
ATOM     10  H   UNL     1      48.390   9.905  15.058  0.00  0.00    +0.000 HD
ATOM     11  H   UNL     1      46.902   9.025  15.116  0.00  0.00    +0.000 HD
ENDBRANCH   1   8
BRANCH   4  12
ATOM     12  O   UNL     1      44.343   5.759  10.475  0.00  0.00    +0.000 OA
BRANCH  12  13
ATOM     13  C   UNL     1      44.393   4.318  10.601  0.00  0.00    +0.000 C 
ATOM     14  C   UNL     1      43.209   3.790  11.400  0.00  0.00    +0.000 C 
ATOM     15  C   UNL     1      44.589   3.666  11.954  0.00  0.00    +0.000 C 
BRANCH  13  16
ATOM     16  C   UNL     1      44.752   3.571   9.322  0.00  0.00    +0.000 C 
ATOM     17  C   UNL     1      45.313   2.168   9.605  0.00  0.00    +0.000 C 
ATOM     18  C   UNL     1      45.716   1.441   8.321  0.00  0.00    +0.000 C 
ATOM     19  C   UNL     1      46.695   2.266   7.492  0.00  0.00    +0.000 C 
ATOM     20  C   UNL     1      46.129   3.647   7.182  0.00  0.00    +0.000 C 
ATOM     21  C   UNL     1      45.730   4.389   8.456  0.00  0.00    +0.000 C 
ENDBRANCH  13  16
ENDBRANCH  12  13
ENDBRANCH   4  12
TORSDOF 4
ENDMDL
MODEL 5
REMARK VINA RESULT:    -5.949      4.285      6.637
REMARK INTER + INTRA:          -7.376
REMARK INTER:                  -6.572
REMARK INTRA:                  -0.804
REMARK UNBOUND:                -0.035
REMARK  Name = 
REMARK  4 active torsions:
REMARK  status: ('A' for Active; 'I' for Inactive)
REMARK    1  A    between atoms: C_2  and  C_4
REMARK    2  A    between atoms: C_7  and  O_8
REMARK    3  A    between atoms: O_8  and  C_9
REMARK    4  A    between atoms: C_9  and  C_10
REMARK                            x       y       z     vdW  Elec       q    Type
REMARK                         _______ _______ _______ _____ _____    ______ ____
ROOT
ATOM      1  C   UNL     1      45.271   4.730  12.825  0.00  0.00    +0.000 A 
ATOM      2  C   UNL     1      45.542   5.875  12.074  0.00  0.00    +0.000 A 
ATOM      3  C   UNL     1      46.805   6.458  12.157  0.00  0.00    +0.000 A 
ATOM      4  C   UNL     1      47.756   5.882  12.990  0.00  0.00    +0.000 A 
ATOM      5  N   UNL     1      47.521   4.782  13.735  0.00  0.00    +0.000 NA
ATOM      6  C   UNL     1      46.285   4.231  13.636  0.00  0.00    +0.000 A 
ENDROOT
BRANCH   1   8
ATOM      7  N   UNL     1      43.897   2.732  12.561  0.00  0.00    +0.000 N 
ATOM      8  C   UNL     1      43.947   4.069  12.839  0.00  0.00    +0.000 C 
ATOM      9  O   UNL     1      42.927   4.692  13.110  0.00  0.00    +0.000 OA
ATOM     10  H   UNL     1      42.989   2.288  12.635  0.00  0.00    +0.000 HD
ATOM     11  H   UNL     1      44.711   2.132  12.570  0.00  0.00    +0.000 HD
ENDBRANCH   1   8
BRANCH   4  12
ATOM     12  O   UNL     1      48.993   6.508  13.003  0.00  0.00    +0.000 OA
BRANCH  12  13
ATOM     13  C   UNL     1      49.195   7.635  13.887  0.00  0.00    +0.000 C 
ATOM     14  C   UNL     1      50.219   7.314  14.969  0.00  0.00    +0.000 C 
ATOM     15  C   UNL     1      48.795   7.557  15.345  0.00  0.00    +0.000 C 
BRANCH  13  16
ATOM     16  C   UNL     1      49.326   8.985  13.190  0.00  0.00    +0.000 C 
ATOM     17  C   UNL     1      48.003   9.766  13.181  0.00  0.00    +0.000 C 
ATOM     18  C   UNL     1      48.128  11.098  12.440  0.00  0.00    +0.000 C 
ATOM     19  C   UNL     1      48.660  10.905  11.024  0.00  0.00    +0.000 C 
ATOM     20  C   UNL     1      49.990  10.158  11.031  0.00  0.00    +0.000 C 
ATOM     21  C   UNL     1      49.878   8.821  11.761  0.00  0.00    +0.000 C 
ENDBRANCH  13  16
ENDBRANCH  12  13
ENDBRANCH   4  12
TORSDOF 4
ENDMDL
MODEL 6
REMARK VINA RESULT:    -5.734      3.647      5.691
REMARK INTER + INTRA:          -7.110
REMARK INTER:                  -6.377
REMARK INTRA:                  -0.733
REMARK UNBOUND:                -0.035
REMARK  Name = 
REMARK  4 active torsions:
REMARK  status: ('A' for Active; 'I' for Inactive)
REMARK    1  A    between atoms: C_2  and  C_4
REMARK    2  A    between atoms: C_7  and  O_8
REMARK    3  A    between atoms: O_8  and  C_9
REMARK    4  A    between atoms: C_9  and  C_10
REMARK                            x       y       z     vdW  Elec       q    Type
REMARK                         _______ _______ _______ _____ _____    ______ ____
ROOT
ATOM      1  C   UNL     1      44.749   4.573  11.831  0.00  0.00    +0.000 A 
ATOM      2  C   UNL     1      44.491   5.763  11.148  0.00  0.00    +0.000 A 
ATOM      3  C   UNL     1      45.137   6.930  11.552  0.00  0.00    +0.000 A 
ATOM      4  C   UNL     1      46.017   6.873  12.626  0.00  0.00    +0.000 A 
ATOM      5  N   UNL     1      46.278   5.742  13.312  0.00  0.00    +0.000 NA
ATOM      6  C   UNL     1      45.639   4.617  12.899  0.00  0.00    +0.000 A 
ENDROOT
BRANCH   1   8
ATOM      7  N   UNL     1      43.851   2.415  12.528  0.00  0.00    +0.000 N 
ATOM      8  C   UNL     1      44.077   3.295  11.507  0.00  0.00    +0.000 C 
ATOM      9  O   UNL     1      43.715   3.038  10.364  0.00  0.00    +0.000 OA
ATOM     10  H   UNL     1      43.337   1.574  12.294  0.00  0.00    +0.000 HD
ATOM     11  H   UNL     1      43.906   2.671  13.504  0.00  0.00    +0.000 HD
ENDBRANCH   1   8
BRANCH   4  12
ATOM     12  O   UNL     1      46.633   8.070  12.954  0.00  0.00    +0.000 OA
BRANCH  12  13
ATOM     13  C   UNL     1      48.073   8.167  12.846  0.00  0.00    +0.000 C 
ATOM     14  C   UNL     1      48.483   9.112  11.725  0.00  0.00    +0.000 C 
ATOM     15  C   UNL     1      48.793   7.656  11.616  0.00  0.00    +0.000 C 
BRANCH  13  16
ATOM     16  C   UNL     1      48.811   8.308  14.174  0.00  0.00    +0.000 C 
ATOM     17  C   UNL     1      49.407   6.975  14.653  0.00  0.00    +0.000 C 
ATOM     18  C   UNL     1      50.104   7.111  16.007  0.00  0.00    +0.000 C 
ATOM     19  C   UNL     1      49.175   7.706  17.060  0.00  0.00    +0.000 C 
ATOM     20  C   UNL     1      48.606   9.045  16.601  0.00  0.00    +0.000 C 
ATOM     21  C   UNL     1      47.899   8.921  15.253  0.00  0.00    +0.000 C 
ENDBRANCH  13  16
ENDBRANCH  12  13
ENDBRANCH   4  12
TORSDOF 4
ENDMDL
MODEL 7
REMARK VINA RESULT:    -5.500      3.334      4.809
REMARK INTER + INTRA:          -6.822
REMARK INTER:                  -6.469
REMARK INTRA:                  -0.352
REMARK UNBOUND:                -0.035
REMARK  Name = 
REMARK  4 active torsions:
REMARK  status: ('A' for Active; 'I' for Inactive)
REMARK    1  A    between atoms: C_2  and  C_4
REMARK    2  A    between atoms: C_7  and  O_8
REMARK    3  A    between atoms: O_8  and  C_9
REMARK    4  A    between atoms: C_9  and  C_10
REMARK                            x       y       z     vdW  Elec       q    Type
REMARK                         _______ _______ _______ _____ _____    ______ ____
ROOT
ATOM      1  C   UNL     1      44.160   3.894  11.641  0.00  0.00    +0.000 A 
ATOM      2  C   UNL     1      45.030   4.036  12.724  0.00  0.00    +0.000 A 
ATOM      3  C   UNL     1      45.325   5.314  13.195  0.00  0.00    +0.000 A 
ATOM      4  C   UNL     1      44.746   6.410  12.568  0.00  0.00    +0.000 A 
ATOM      5  N   UNL     1      43.911   6.307  11.514  0.00  0.00    +0.000 NA
ATOM      6  C   UNL     1      43.637   5.052  11.074  0.00  0.00    +0.000 A 
ENDROOT
BRANCH   1   8
ATOM      7  N   UNL     1      44.566   2.161   9.974  0.00  0.00    +0.000 N 
ATOM      8  C   UNL     1      43.825   2.584  11.041  0.00  0.00    +0.000 C 
ATOM      9  O   UNL     1      42.924   1.888  11.496  0.00  0.00    +0.000 OA
ATOM     10  H   UNL     1      44.358   1.236   9.617  0.00  0.00    +0.000 HD
ATOM     11  H   UNL     1      45.453   2.571   9.718  0.00  0.00    +0.000 HD
ENDBRANCH   1   8
BRANCH   4  12
ATOM     12  O   UNL     1      45.073   7.645  13.107  0.00  0.00    +0.000 OA
BRANCH  12  13
ATOM     13  C   UNL     1      45.687   8.639  12.252  0.00  0.00    +0.000 C 
ATOM     14  C   UNL     1      44.924   9.956  12.299  0.00  0.00    +0.000 C 
ATOM     15  C   UNL     1      44.960   9.166  11.033  0.00  0.00    +0.000 C 
BRANCH  13  16
ATOM     16  C   UNL     1      47.207   8.717  12.343  0.00  0.00    +0.000 C 
ATOM     17  C   UNL     1      47.896   7.614  11.525  0.00  0.00    +0.000 C 
ATOM     18  C   UNL     1      49.419   7.667  11.657  0.00  0.00    +0.000 C 
ATOM     19  C   UNL     1      49.858   7.622  13.117  0.00  0.00    +0.000 C 
ATOM     20  C   UNL     1      49.201   8.736  13.925  0.00  0.00    +0.000 C 
ATOM     21  C   UNL     1      47.678   8.689  13.810  0.00  0.00    +0.000 C 
ENDBRANCH  13  16
ENDBRANCH  12  13
ENDBRANCH   4  12
TORSDOF 4
ENDMDL
MODEL 8
REMARK VINA RESULT:    -5.480      3.914      6.557
REMARK INTER + INTRA:          -6.797
REMARK INTER:                  -6.477
REMARK INTRA:                  -0.319
REMARK UNBOUND:                -0.035
REMARK  Name = 
REMARK  4 active torsions:
REMARK  status: ('A' for Active; 'I' for Inactive)
REMARK    1  A    between atoms: C_2  and  C_4
REMARK    2  A    between atoms: C_7  and  O_8
REMARK    3  A    between atoms: O_8  and  C_9
REMARK    4  A    between atoms: C_9  and  C_10
REMARK                            x       y       z     vdW  Elec       q    Type
REMARK                         _______ _______ _______ _____ _____    ______ ____
ROOT
ATOM      1  C   UNL     1      45.284   4.871  12.487  0.00  0.00    +0.000 A 
ATOM      2  C   UNL     1      45.798   6.066  12.993  0.00  0.00    +0.000 A 
ATOM      3  C   UNL     1      46.813   6.019  13.947  0.00  0.00    +0.000 A 
ATOM      4  C   UNL     1      47.281   4.780  14.368  0.00  0.00    +0.000 A 
ATOM      5  N   UNL     1      46.798   3.608  13.907  0.00  0.00    +0.000 NA
ATOM      6  C   UNL     1      45.810   3.680  12.977  0.00  0.00    +0.000 A 
ENDROOT
BRANCH   1   8
ATOM      7  N   UNL     1      44.295   5.558  10.367  0.00  0.00    +0.000 N 
ATOM      8  C   UNL     1      44.174   4.819  11.510  0.00  0.00    +0.000 C 
ATOM      9  O   UNL     1      43.186   4.121  11.705  0.00  0.00    +0.000 OA
ATOM     10  H   UNL     1      43.551   5.461   9.685  0.00  0.00    +0.000 HD
ATOM     11  H   UNL     1      45.170   5.949  10.049  0.00  0.00    +0.000 HD
ENDBRANCH   1   8
BRANCH   4  12
ATOM     12  O   UNL     1      48.304   4.817  15.302  0.00  0.00    +0.000 OA
BRANCH  12  13
ATOM     13  C   UNL     1      48.007   4.472  16.676  0.00  0.00    +0.000 C 
ATOM     14  C   UNL     1      48.495   3.069  17.012  0.00  0.00    +0.000 C 
ATOM     15  C   UNL     1      47.031   3.361  17.002  0.00  0.00    +0.000 C 
BRANCH  13  16
ATOM     16  C   UNL     1      48.302   5.568  17.694  0.00  0.00    +0.000 C 
ATOM     17  C   UNL     1      47.113   5.824  18.634  0.00  0.00    +0.000 C 
ATOM     18  C   UNL     1      47.396   6.956  19.622  0.00  0.00    +0.000 C 
ATOM     19  C   UNL     1      47.812   8.236  18.905  0.00  0.00    +0.000 C 
ATOM     20  C   UNL     1      49.011   7.994  17.996  0.00  0.00    +0.000 C 
ATOM     21  C   UNL     1      48.740   6.871  16.997  0.00  0.00    +0.000 C 
ENDBRANCH  13  16
ENDBRANCH  12  13
ENDBRANCH   4  12
TORSDOF 4
ENDMDL
