MODEL 1
REMARK VINA RESULT:    -8.170      0.000      0.000
REMARK INTER + INTRA:         -14.558
REMARK INTER:                 -12.707
REMARK INTRA:                  -1.851
REMARK UNBOUND:                -1.851
REMARK  Name = 
REMARK  10 active torsions:
REMARK  status: ('A' for Active; 'I' for Inactive)
REMARK    1  A    between atoms: C_2  and  C_23
REMARK    2  A    between atoms: N_3  and  C_4
REMARK    3  A    between atoms: C_4  and  C_5
REMARK    4  A    between atoms: C_8  and  C_9
REMARK    5  A    between atoms: C_9  and  N_10
REMARK    6  A    between atoms: N_10  and  C_11
REMARK    7  A    between atoms: N_10  and  C_14
REMARK    8  A    between atoms: C_11  and  C_12
REMARK    9  A    between atoms: C_12  and  O_13
REMARK   10  A    between atoms: C_14  and  C_15
REMARK                            x       y       z     vdW  Elec       q    Type
REMARK                         _______ _______ _______ _____ _____    ______ ____
ROOT
ATOM      1  C   UNL     1      46.288   7.535  12.341  0.00  0.00    +0.000 A 
ATOM      2  C   UNL     1      46.940   6.695  11.431  0.00  0.00    +0.000 A 
ATOM      3  C   UNL     1      46.210   5.837  10.611  0.00  0.00    +0.000 A 
ATOM      4  C   UNL     1      44.812   5.795  10.696  0.00  0.00    +0.000 A 
ATOM      5  C   UNL     1      44.155   6.726  11.513  0.00  0.00    +0.000 A 
ATOM      6  C   UNL     1      44.888   7.596  12.324  0.00  0.00    +0.000 A 
ENDROOT
BRANCH   1   7
ATOM      7  C   UNL     1      47.095   8.321  13.340  0.00  0.00    +0.000 C 
BRANCH   7  10
ATOM      8  O   UNL     1      49.678   7.290  13.843  0.00  0.00    +0.000 OA
ATOM      9  C   UNL     1      48.784   7.109  14.663  0.00  0.00    +0.000 C 
ATOM     10  N   UNL     1      47.494   7.522  14.464  0.00  0.00    +0.000 N 
ATOM     11  H   UNL     1      46.841   7.501  15.238  0.00  0.00    +0.000 HD
BRANCH   9  12
ATOM     12  C   UNL     1      49.018   6.366  15.903  0.00  0.00    +0.000 A 
ATOM     13  C   UNL     1      49.981   6.801  16.809  0.00  0.00    +0.000 A 
ATOM     14  S   UNL     1      50.141   5.783  18.170  0.00  0.00    +0.000 S 
ATOM     15  C   UNL     1      48.899   4.756  17.618  0.00  0.00    +0.000 A 
ATOM     16  N   UNL     1      48.515   3.668  18.339  0.00  0.00    +0.000 NA
ATOM     17  C   UNL     1      47.533   3.006  17.821  0.00  0.00    +0.000 A 
ATOM     18  N   UNL     1      46.901   3.331  16.650  0.00  0.00    +0.000 N 
ATOM     19  C   UNL     1      47.307   4.364  15.856  0.00  0.00    +0.000 A 
ATOM     20  O   UNL     1      46.826   4.532  14.739  0.00  0.00    +0.000 OA
ATOM     21  C   UNL     1      48.385   5.175  16.404  0.00  0.00    +0.000 A 
ATOM     22  H   UNL     1      46.164   2.753  16.284  0.00  0.00    +0.000 HD
ENDBRANCH   9  12
ENDBRANCH   7  10
ENDBRANCH   1   7
BRANCH   4  23
ATOM     23  C   UNL     1      44.035   4.725   9.956  0.00  0.00    +0.000 C 
BRANCH  23  24
ATOM     24  N   UNL     1      44.397   3.338  10.363  0.00  0.00    +0.000 NA
BRANCH  24  25
ATOM     25  C   UNL     1      43.528   2.864  11.470  0.00  0.00    +0.000 C 
BRANCH  25  26
ATOM     26  C   UNL     1      44.147   2.960  12.880  0.00  0.00    +0.000 C 
BRANCH  26  27
ATOM     27  O   UNL     1      45.566   2.828  12.817  0.00  0.00    +0.000 OA
ATOM     28  H   UNL     1      45.835   2.257  13.558  0.00  0.00    +0.000 HD
ENDBRANCH  26  27
ENDBRANCH  25  26
ENDBRANCH  24  25
BRANCH  24  29
ATOM     29  C   UNL     1      44.256   2.440   9.190  0.00  0.00    +0.000 C 
BRANCH  29  30
ATOM     30  C   UNL     1      45.495   2.307   8.322  0.00  0.00    +0.000 A 
ATOM     31  C   UNL     1      46.012   3.417   7.656  0.00  0.00    +0.000 A 
ATOM     32  C   UNL     1      47.179   3.269   6.913  0.00  0.00    +0.000 A 
ATOM     33  C   UNL     1      47.795   2.026   6.854  0.00  0.00    +0.000 A 
ATOM     34  C   UNL     1      47.211   0.972   7.538  0.00  0.00    +0.000 A 
ATOM     35  N   UNL     1      46.078   1.084   8.265  0.00  0.00    +0.000 NA
ENDBRANCH  29  30
ENDBRANCH  24  29
ENDBRANCH  23  24
ENDBRANCH   4  23
TORSDOF 10
ENDMDL
MODEL 2
REMARK VINA RESULT:    -7.633      2.757      3.605
REMARK INTER + INTRA:         -13.723
REMARK INTER:                 -12.362
REMARK INTRA:                  -1.361
REMARK UNBOUND:                -1.851
REMARK  Name = 
REMARK  10 active torsions:
REMARK  status: ('A' for Active; 'I' for Inactive)
REMARK    1  A    between atoms: C_2  and  C_23
REMARK    2  A    between atoms: N_3  and  C_4
REMARK    3  A    between atoms: C_4  and  C_5
REMARK    4  A    between atoms: C_8  and  C_9
REMARK    5  A    between atoms: C_9  and  N_10
REMARK    6  A    between atoms: N_10  and  C_11
REMARK    7  A    between atoms: N_10  and  C_14
REMARK    8  A    between atoms: C_11  and  C_12
REMARK    9  A    between atoms: C_12  and  O_13
REMARK   10  A    between atoms: C_14  and  C_15
REMARK                            x       y       z     vdW  Elec       q    Type
REMARK                         _______ _______ _______ _____ _____    ______ ____
ROOT
ATOM      1  C   UNL     1      46.966   4.666  14.775  0.00  0.00    +0.000 A 
ATOM      2  C   UNL     1      46.460   3.620  13.995  0.00  0.00    +0.000 A 
ATOM      3  C   UNL     1      46.089   3.841  12.670  0.00  0.00    +0.000 A 
ATOM      4  C   UNL     1      46.205   5.118  12.105  0.00  0.00    +0.000 A 
ATOM      5  C   UNL     1      46.831   6.131  12.845  0.00  0.00    +0.000 A 
ATOM      6  C   UNL     1      47.216   5.905  14.170  0.00  0.00    +0.000 A 
ENDROOT
BRANCH   1   7
ATOM      7  C   UNL     1      47.192   4.455  16.249  0.00  0.00    +0.000 C 
BRANCH   7  10
ATOM      8  O   UNL     1      48.392   4.898  18.769  0.00  0.00    +0.000 OA
ATOM      9  C   UNL     1      49.076   4.493  17.835  0.00  0.00    +0.000 C 
ATOM     10  N   UNL     1      48.583   4.314  16.571  0.00  0.00    +0.000 N 
ATOM     11  H   UNL     1      49.142   3.819  15.886  0.00  0.00    +0.000 HD
BRANCH   9  12
ATOM     12  C   UNL     1      50.509   4.234  17.990  0.00  0.00    +0.000 A 
ATOM     13  C   UNL     1      51.354   5.230  18.470  0.00  0.00    +0.000 A 
ATOM     14  S   UNL     1      52.993   4.757  18.537  0.00  0.00    +0.000 S 
ATOM     15  C   UNL     1      52.623   3.193  17.973  0.00  0.00    +0.000 A 
ATOM     16  N   UNL     1      53.596   2.256  17.811  0.00  0.00    +0.000 NA
ATOM     17  C   UNL     1      53.163   1.103  17.418  0.00  0.00    +0.000 A 
ATOM     18  N   UNL     1      51.851   0.801  17.172  0.00  0.00    +0.000 N 
ATOM     19  C   UNL     1      50.854   1.731  17.242  0.00  0.00    +0.000 A 
ATOM     20  O   UNL     1      49.716   1.473  16.862  0.00  0.00    +0.000 OA
ATOM     21  C   UNL     1      51.271   3.043  17.719  0.00  0.00    +0.000 A 
ATOM     22  H   UNL     1      51.585  -0.109  16.836  0.00  0.00    +0.000 HD
ENDBRANCH   9  12
ENDBRANCH   7  10
ENDBRANCH   1   7
BRANCH   4  23
ATOM     23  C   UNL     1      45.616   5.404  10.738  0.00  0.00    +0.000 C 
BRANCH  23  24
ATOM     24  N   UNL     1      44.334   4.687  10.482  0.00  0.00    +0.000 NA
BRANCH  24  25
ATOM     25  C   UNL     1      43.176   5.483  10.960  0.00  0.00    +0.000 C 
BRANCH  25  26
ATOM     26  C   UNL     1      42.571   5.022  12.303  0.00  0.00    +0.000 C 
BRANCH  26  27
ATOM     27  O   UNL     1      43.016   5.858  13.370  0.00  0.00    +0.000 OA
ATOM     28  H   UNL     1      42.330   5.833  14.059  0.00  0.00    +0.000 HD
ENDBRANCH  26  27
ENDBRANCH  25  26
ENDBRANCH  24  25
BRANCH  24  29
ATOM     29  C   UNL     1      44.207   4.435   9.025  0.00  0.00    +0.000 C 
BRANCH  29  30
ATOM     30  C   UNL     1      45.270   3.529   8.428  0.00  0.00    +0.000 A 
ATOM     31  C   UNL     1      45.331   2.183   8.787  0.00  0.00    +0.000 A 
ATOM     32  C   UNL     1      46.284   1.370   8.180  0.00  0.00    +0.000 A 
ATOM     33  C   UNL     1      47.143   1.918   7.237  0.00  0.00    +0.000 A 
ATOM     34  C   UNL     1      47.021   3.266   6.943  0.00  0.00    +0.000 A 
ATOM     35  N   UNL     1      46.109   4.080   7.517  0.00  0.00    +0.000 NA
ENDBRANCH  29  30
ENDBRANCH  24  29
ENDBRANCH  23  24
ENDBRANCH   4  23
TORSDOF 10
ENDMDL
MODEL 3
REMARK VINA RESULT:    -7.157      1.490      2.005
REMARK INTER + INTRA:         -12.982
REMARK INTER:                 -11.446
REMARK INTRA:                  -1.536
REMARK UNBOUND:                -1.851
REMARK  Name = 
REMARK  10 active torsions:
REMARK  status: ('A' for Active; 'I' for Inactive)
REMARK    1  A    between atoms: C_2  and  C_23
REMARK    2  A    between atoms: N_3  and  C_4
REMARK    3  A    between atoms: C_4  and  C_5
REMARK    4  A    between atoms: C_8  and  C_9
REMARK    5  A    between atoms: C_9  and  N_10
REMARK    6  A    between atoms: N_10  and  C_11
REMARK    7  A    between atoms: N_10  and  C_14
REMARK    8  A    between atoms: C_11  and  C_12
REMARK    9  A    between atoms: C_12  and  O_13
REMARK   10  A    between atoms: C_14  and  C_15
REMARK                            x       y       z     vdW  Elec       q    Type
REMARK                         _______ _______ _______ _____ _____    ______ ____
ROOT
ATOM      1  C   UNL     1      47.593   7.645  13.074  0.00  0.00    +0.000 A 
ATOM      2  C   UNL     1      46.391   8.356  12.985  0.00  0.00    +0.000 A 
ATOM      3  C   UNL     1      45.284   7.798  12.349  0.00  0.00    +0.000 A 
ATOM      4  C   UNL     1      45.363   6.521  11.779  0.00  0.00    +0.000 A 
ATOM      5  C   UNL     1      46.523   5.760  11.982  0.00  0.00    +0.000 A 
ATOM      6  C   UNL     1      47.628   6.315  12.632  0.00  0.00    +0.000 A 
ENDROOT
BRANCH   1   7
ATOM      7  C   UNL     1      48.827   8.328  13.601  0.00  0.00    +0.000 C 
BRANCH   7  10
ATOM      8  O   UNL     1      48.011   9.276  16.136  0.00  0.00    +0.000 OA
ATOM      9  C   UNL     1      48.743   8.294  16.063  0.00  0.00    +0.000 C 
ATOM     10  N   UNL     1      49.230   7.812  14.878  0.00  0.00    +0.000 N 
ATOM     11  H   UNL     1      49.685   6.908  14.860  0.00  0.00    +0.000 HD
BRANCH   9  12
ATOM     12  C   UNL     1      49.213   7.596  17.262  0.00  0.00    +0.000 A 
ATOM     13  C   UNL     1      49.846   8.301  18.280  0.00  0.00    +0.000 A 
ATOM     14  S   UNL     1      50.362   7.312  19.572  0.00  0.00    +0.000 S 
ATOM     15  C   UNL     1      49.715   5.918  18.837  0.00  0.00    +0.000 A 
ATOM     16  N   UNL     1      49.804   4.701  19.439  0.00  0.00    +0.000 NA
ATOM     17  C   UNL     1      49.232   3.743  18.787  0.00  0.00    +0.000 A 
ATOM     18  N   UNL     1      48.581   3.888  17.591  0.00  0.00    +0.000 N 
ATOM     19  C   UNL     1      48.539   5.073  16.914  0.00  0.00    +0.000 A 
ATOM     20  O   UNL     1      48.090   5.136  15.773  0.00  0.00    +0.000 OA
ATOM     21  C   UNL     1      49.133   6.203  17.615  0.00  0.00    +0.000 A 
ATOM     22  H   UNL     1      48.185   3.093  17.118  0.00  0.00    +0.000 HD
ENDBRANCH   9  12
ENDBRANCH   7  10
ENDBRANCH   1   7
BRANCH   4  23
ATOM     23  C   UNL     1      44.231   5.999  10.917  0.00  0.00    +0.000 C 
BRANCH  23  24
ATOM     24  N   UNL     1      44.352   4.548  10.593  0.00  0.00    +0.000 NA
BRANCH  24  25
ATOM     25  C   UNL     1      43.319   3.756  11.308  0.00  0.00    +0.000 C 
BRANCH  25  26
ATOM     26  C   UNL     1      43.745   3.212  12.687  0.00  0.00    +0.000 C 
BRANCH  26  27
ATOM     27  O   UNL     1      45.027   2.592  12.610  0.00  0.00    +0.000 OA
ATOM     28  H   UNL     1      44.888   1.684  12.289  0.00  0.00    +0.000 HD
ENDBRANCH  26  27
ENDBRANCH  25  26
ENDBRANCH  24  25
BRANCH  24  29
ATOM     29  C   UNL     1      44.202   4.369   9.127  0.00  0.00    +0.000 C 
BRANCH  29  30
ATOM     30  C   UNL     1      45.280   3.531   8.463  0.00  0.00    +0.000 A 
ATOM     31  C   UNL     1      45.396   2.172   8.752  0.00  0.00    +0.000 A 
ATOM     32  C   UNL     1      46.362   1.425   8.084  0.00  0.00    +0.000 A 
ATOM     33  C   UNL     1      47.179   2.049   7.151  0.00  0.00    +0.000 A 
ATOM     34  C   UNL     1      47.004   3.405   6.928  0.00  0.00    +0.000 A 
ATOM     35  N   UNL     1      46.079   4.157   7.562  0.00  0.00    +0.000 NA
ENDBRANCH  29  30
ENDBRANCH  24  29
ENDBRANCH  23  24
ENDBRANCH   4  23
TORSDOF 10
ENDMDL
MODEL 4
REMARK VINA RESULT:    -7.103      2.829      3.997
REMARK INTER + INTRA:         -12.898
REMARK INTER:                 -11.961
REMARK INTRA:                  -0.938
REMARK UNBOUND:                -1.851
REMARK  Name = 
REMARK  10 active torsions:
REMARK  status: ('A' for Active; 'I' for Inactive)
REMARK    1  A    between atoms: C_2  and  C_23
REMARK    2  A    between atoms: N_3  and  C_4
REMARK    3  A    between atoms: C_4  and  C_5
REMARK    4  A    between atoms: C_8  and  C_9
REMARK    5  A    between atoms: C_9  and  N_10
REMARK    6  A    between atoms: N_10  and  C_11
REMARK    7  A    between atoms: N_10  and  C_14
REMARK    8  A    between atoms: C_11  and  C_12
REMARK    9  A    between atoms: C_12  and  O_13
REMARK   10  A    between atoms: C_14  and  C_15
REMARK                            x       y       z     vdW  Elec       q    Type
REMARK                         _______ _______ _______ _____ _____    ______ ____
ROOT
ATOM      1  C   UNL     1      47.326   4.645  14.832  0.00  0.00    +0.000 A 
ATOM      2  C   UNL     1      46.830   3.591  14.056  0.00  0.00    +0.000 A 
ATOM      3  C   UNL     1      46.175   3.845  12.853  0.00  0.00    +0.000 A 
ATOM      4  C   UNL     1      45.992   5.161  12.410  0.00  0.00    +0.000 A 
ATOM      5  C   UNL     1      46.601   6.205  13.120  0.00  0.00    +0.000 A 
ATOM      6  C   UNL     1      47.270   5.949  14.320  0.00  0.00    +0.000 A 
ENDROOT
BRANCH   1   7
ATOM      7  C   UNL     1      47.868   4.367  16.209  0.00  0.00    +0.000 C 
BRANCH   7  10
ATOM      8  O   UNL     1      49.824   5.789  17.672  0.00  0.00    +0.000 OA
ATOM      9  C   UNL     1      48.648   6.130  17.743  0.00  0.00    +0.000 C 
ATOM     10  N   UNL     1      47.636   5.456  17.115  0.00  0.00    +0.000 N 
ATOM     11  H   UNL     1      46.715   5.875  17.066  0.00  0.00    +0.000 HD
BRANCH   9  12
ATOM     12  C   UNL     1      48.225   7.259  18.573  0.00  0.00    +0.000 A 
ATOM     13  C   UNL     1      47.961   7.074  19.927  0.00  0.00    +0.000 A 
ATOM     14  S   UNL     1      47.438   8.493  20.718  0.00  0.00    +0.000 S 
ATOM     15  C   UNL     1      47.590   9.411  19.291  0.00  0.00    +0.000 A 
ATOM     16  N   UNL     1      47.305  10.742  19.278  0.00  0.00    +0.000 NA
ATOM     17  C   UNL     1      47.507  11.318  18.139  0.00  0.00    +0.000 A 
ATOM     18  N   UNL     1      47.967  10.688  17.013  0.00  0.00    +0.000 N 
ATOM     19  C   UNL     1      48.188   9.342  16.960  0.00  0.00    +0.000 A 
ATOM     20  O   UNL     1      48.444   8.783  15.898  0.00  0.00    +0.000 OA
ATOM     21  C   UNL     1      48.016   8.640  18.225  0.00  0.00    +0.000 A 
ATOM     22  H   UNL     1      48.071  11.189  16.147  0.00  0.00    +0.000 HD
ENDBRANCH   9  12
ENDBRANCH   7  10
ENDBRANCH   1   7
BRANCH   4  23
ATOM     23  C   UNL     1      45.109   5.447  11.212  0.00  0.00    +0.000 C 
BRANCH  23  24
ATOM     24  N   UNL     1      44.401   4.242  10.694  0.00  0.00    +0.000 NA
BRANCH  24  25
ATOM     25  C   UNL     1      43.029   4.149  11.255  0.00  0.00    +0.000 C 
BRANCH  25  26
ATOM     26  C   UNL     1      42.671   5.226  12.300  0.00  0.00    +0.000 C 
BRANCH  26  27
ATOM     27  O   UNL     1      41.961   6.303  11.692  0.00  0.00    +0.000 OA
ATOM     28  H   UNL     1      42.297   7.127  12.085  0.00  0.00    +0.000 HD
ENDBRANCH  26  27
ENDBRANCH  25  26
ENDBRANCH  24  25
BRANCH  24  29
ATOM     29  C   UNL     1      44.338   4.320   9.213  0.00  0.00    +0.000 C 
BRANCH  29  30
ATOM     30  C   UNL     1      45.335   3.444   8.475  0.00  0.00    +0.000 A 
ATOM     31  C   UNL     1      45.462   2.093   8.799  0.00  0.00    +0.000 A 
ATOM     32  C   UNL     1      46.348   1.309   8.065  0.00  0.00    +0.000 A 
ATOM     33  C   UNL     1      47.076   1.889   7.034  0.00  0.00    +0.000 A 
ATOM     34  C   UNL     1      46.896   3.239   6.783  0.00  0.00    +0.000 A 
ATOM     35  N   UNL     1      46.047   4.026   7.479  0.00  0.00    +0.000 NA
ENDBRANCH  29  30
ENDBRANCH  24  29
ENDBRANCH  23  24
ENDBRANCH   4  23
TORSDOF 10
ENDMDL
MODEL 5
REMARK VINA RESULT:    -6.600      2.790      3.924
REMARK INTER + INTRA:         -12.116
REMARK INTER:                 -10.935
REMARK INTRA:                  -1.182
REMARK UNBOUND:                -1.851
REMARK  Name = 
REMARK  10 active torsions:
REMARK  status: ('A' for Active; 'I' for Inactive)
REMARK    1  A    between atoms: C_2  and  C_23
REMARK    2  A    between atoms: N_3  and  C_4
REMARK    3  A    between atoms: C_4  and  C_5
REMARK    4  A    between atoms: C_8  and  C_9
REMARK    5  A    between atoms: C_9  and  N_10
REMARK    6  A    between atoms: N_10  and  C_11
REMARK    7  A    between atoms: N_10  and  C_14
REMARK    8  A    between atoms: C_11  and  C_12
REMARK    9  A    between atoms: C_12  and  O_13
REMARK   10  A    between atoms: C_14  and  C_15
REMARK                            x       y       z     vdW  Elec       q    Type
REMARK                         _______ _______ _______ _____ _____    ______ ____
ROOT
ATOM      1  C   UNL     1      47.197   4.532  14.739  0.00  0.00    +0.000 A 
ATOM      2  C   UNL     1      46.658   3.519  13.938  0.00  0.00    +0.000 A 
ATOM      3  C   UNL     1      46.188   3.804  12.657  0.00  0.00    +0.000 A 
ATOM      4  C   UNL     1      46.237   5.113  12.159  0.00  0.00    +0.000 A 
ATOM      5  C   UNL     1      46.894   6.098  12.909  0.00  0.00    +0.000 A 
ATOM      6  C   UNL     1      47.378   5.809  14.188  0.00  0.00    +0.000 A 
ENDROOT
BRANCH   1   7
ATOM      7  C   UNL     1      47.532   4.246  16.178  0.00  0.00    +0.000 C 
BRANCH   7  10
ATOM      8  O   UNL     1      46.513   5.233  18.623  0.00  0.00    +0.000 OA
ATOM      9  C   UNL     1      47.462   5.798  18.090  0.00  0.00    +0.000 C 
ATOM     10  N   UNL     1      47.972   5.420  16.878  0.00  0.00    +0.000 N 
ATOM     11  H   UNL     1      48.855   5.807  16.568  0.00  0.00    +0.000 HD
BRANCH   9  12
ATOM     12  C   UNL     1      48.085   6.981  18.688  0.00  0.00    +0.000 A 
ATOM     13  C   UNL     1      47.297   8.042  19.126  0.00  0.00    +0.000 A 
ATOM     14  S   UNL     1      48.202   9.348  19.750  0.00  0.00    +0.000 S 
ATOM     15  C   UNL     1      49.671   8.522  19.500  0.00  0.00    +0.000 A 
ATOM     16  N   UNL     1      50.861   9.086  19.841  0.00  0.00    +0.000 NA
ATOM     17  C   UNL     1      51.888   8.328  19.635  0.00  0.00    +0.000 A 
ATOM     18  N   UNL     1      51.834   7.061  19.120  0.00  0.00    +0.000 N 
ATOM     19  C   UNL     1      50.673   6.488  18.689  0.00  0.00    +0.000 A 
ATOM     20  O   UNL     1      50.677   5.419  18.086  0.00  0.00    +0.000 OA
ATOM     21  C   UNL     1      49.472   7.277  18.931  0.00  0.00    +0.000 A 
ATOM     22  H   UNL     1      52.676   6.535  18.953  0.00  0.00    +0.000 HD
ENDBRANCH   9  12
ENDBRANCH   7  10
ENDBRANCH   1   7
BRANCH   4  23
ATOM     23  C   UNL     1      45.547   5.459  10.855  0.00  0.00    +0.000 C 
BRANCH  23  24
ATOM     24  N   UNL     1      44.535   4.449  10.432  0.00  0.00    +0.000 NA
BRANCH  24  25
ATOM     25  C   UNL     1      43.192   4.782  10.971  0.00  0.00    +0.000 C 
BRANCH  25  26
ATOM     26  C   UNL     1      42.982   6.265  11.342  0.00  0.00    +0.000 C 
BRANCH  26  27
ATOM     27  O   UNL     1      41.650   6.486  11.800  0.00  0.00    +0.000 OA
ATOM     28  H   UNL     1      41.050   6.115  11.131  0.00  0.00    +0.000 HD
ENDBRANCH  26  27
ENDBRANCH  25  26
ENDBRANCH  24  25
BRANCH  24  29
ATOM     29  C   UNL     1      44.489   4.406   8.949  0.00  0.00    +0.000 C 
BRANCH  29  30
ATOM     30  C   UNL     1      45.471   3.450   8.296  0.00  0.00    +0.000 A 
ATOM     31  C   UNL     1      45.570   2.131   8.736  0.00  0.00    +0.000 A 
ATOM     32  C   UNL     1      46.443   1.269   8.079  0.00  0.00    +0.000 A 
ATOM     33  C   UNL     1      47.188   1.742   7.007  0.00  0.00    +0.000 A 
ATOM     34  C   UNL     1      47.037   3.069   6.639  0.00  0.00    +0.000 A 
ATOM     35  N   UNL     1      46.201   3.930   7.258  0.00  0.00    +0.000 NA
ENDBRANCH  29  30
ENDBRANCH  24  29
ENDBRANCH  23  24
ENDBRANCH   4  23
TORSDOF 10
ENDMDL
MODEL 6
REMARK VINA RESULT:    -6.520      3.666      4.940
REMARK INTER + INTRA:         -11.991
REMARK INTER:                 -10.913
REMARK INTRA:                  -1.079
REMARK UNBOUND:                -1.851
REMARK  Name = 
REMARK  10 active torsions:
REMARK  status: ('A' for Active; 'I' for Inactive)
REMARK    1  A    between atoms: C_2  and  C_23
REMARK    2  A    between atoms: N_3  and  C_4
REMARK    3  A    between atoms: C_4  and  C_5
REMARK    4  A    between atoms: C_8  and  C_9
REMARK    5  A    between atoms: C_9  and  N_10
REMARK    6  A    between atoms: N_10  and  C_11
REMARK    7  A    between atoms: N_10  and  C_14
REMARK    8  A    between atoms: C_11  and  C_12
REMARK    9  A    between atoms: C_12  and  O_13
REMARK   10  A    between atoms: C_14  and  C_15
REMARK                            x       y       z     vdW  Elec       q    Type
REMARK                         _______ _______ _______ _____ _____    ______ ____
ROOT
ATOM      1  C   UNL     1      48.113   4.628  16.402  0.00  0.00    +0.000 A 
ATOM      2  C   UNL     1      48.490   5.899  15.954  0.00  0.00    +0.000 A 
ATOM      3  C   UNL     1      48.026   6.386  14.733  0.00  0.00    +0.000 A 
ATOM      4  C   UNL     1      47.185   5.603  13.932  0.00  0.00    +0.000 A 
ATOM      5  C   UNL     1      46.706   4.387  14.439  0.00  0.00    +0.000 A 
ATOM      6  C   UNL     1      47.160   3.906  15.670  0.00  0.00    +0.000 A 
ENDROOT
BRANCH   1   7
ATOM      7  C   UNL     1      48.762   4.047  17.630  0.00  0.00    +0.000 C 
BRANCH   7  10
ATOM      8  O   UNL     1      50.843   4.617  19.456  0.00  0.00    +0.000 OA
ATOM      9  C   UNL     1      51.102   4.051  18.399  0.00  0.00    +0.000 C 
ATOM     10  N   UNL     1      50.162   3.796  17.438  0.00  0.00    +0.000 N 
ATOM     11  H   UNL     1      50.393   3.180  16.668  0.00  0.00    +0.000 HD
BRANCH   9  12
ATOM     12  C   UNL     1      52.471   3.662  18.052  0.00  0.00    +0.000 A 
ATOM     13  C   UNL     1      53.495   4.604  18.078  0.00  0.00    +0.000 A 
ATOM     14  S   UNL     1      55.008   3.976  17.600  0.00  0.00    +0.000 S 
ATOM     15  C   UNL     1      54.357   2.416  17.389  0.00  0.00    +0.000 A 
ATOM     16  N   UNL     1      55.139   1.375  16.994  0.00  0.00    +0.000 NA
ATOM     17  C   UNL     1      54.520   0.243  16.917  0.00  0.00    +0.000 A 
ATOM     18  N   UNL     1      53.193   0.056  17.199  0.00  0.00    +0.000 N 
ATOM     19  C   UNL     1      52.355   1.085  17.519  0.00  0.00    +0.000 A 
ATOM     20  O   UNL     1      51.143   0.912  17.609  0.00  0.00    +0.000 OA
ATOM     21  C   UNL     1      53.001   2.383  17.661  0.00  0.00    +0.000 A 
ATOM     22  H   UNL     1      52.764  -0.847  17.087  0.00  0.00    +0.000 HD
ENDBRANCH   9  12
ENDBRANCH   7  10
ENDBRANCH   1   7
BRANCH   4  23
ATOM     23  C   UNL     1      46.846   6.045  12.522  0.00  0.00    +0.000 C 
BRANCH  23  24
ATOM     24  N   UNL     1      45.557   5.490  12.019  0.00  0.00    +0.000 NA
BRANCH  24  25
ATOM     25  C   UNL     1      44.406   6.062  12.761  0.00  0.00    +0.000 C 
BRANCH  25  26
ATOM     26  C   UNL     1      43.227   5.094  12.996  0.00  0.00    +0.000 C 
BRANCH  26  27
ATOM     27  O   UNL     1      42.269   5.203  11.945  0.00  0.00    +0.000 OA
ATOM     28  H   UNL     1      41.863   4.326  11.835  0.00  0.00    +0.000 HD
ENDBRANCH  26  27
ENDBRANCH  25  26
ENDBRANCH  24  25
BRANCH  24  29
ATOM     29  C   UNL     1      45.432   5.800  10.573  0.00  0.00    +0.000 C 
BRANCH  29  30
ATOM     30  C   UNL     1      45.439   4.595   9.648  0.00  0.00    +0.000 A 
ATOM     31  C   UNL     1      44.898   3.381  10.068  0.00  0.00    +0.000 A 
ATOM     32  C   UNL     1      44.874   2.314   9.174  0.00  0.00    +0.000 A 
ATOM     33  C   UNL     1      45.386   2.486   7.895  0.00  0.00    +0.000 A 
ATOM     34  C   UNL     1      45.913   3.723   7.561  0.00  0.00    +0.000 A 
ATOM     35  N   UNL     1      45.954   4.775   8.406  0.00  0.00    +0.000 NA
ENDBRANCH  29  30
ENDBRANCH  24  29
ENDBRANCH  23  24
ENDBRANCH   4  23
TORSDOF 10
ENDMDL
MODEL 7
REMARK VINA RESULT:    -6.342      2.386      3.293
REMARK INTER + INTRA:         -11.715
REMARK INTER:                 -10.539
REMARK INTRA:                  -1.176
REMARK UNBOUND:                -1.851
REMARK  Name = 
REMARK  10 active torsions:
REMARK  status: ('A' for Active; 'I' for Inactive)
REMARK    1  A    between atoms: C_2  and  C_23
REMARK    2  A    between atoms: N_3  and  C_4
REMARK    3  A    between atoms: C_4  and  C_5
REMARK    4  A    between atoms: C_8  and  C_9
REMARK    5  A    between atoms: C_9  and  N_10
REMARK    6  A    between atoms: N_10  and  C_11
REMARK    7  A    between atoms: N_10  and  C_14
REMARK    8  A    between atoms: C_11  and  C_12
REMARK    9  A    between atoms: C_12  and  O_13
REMARK   10  A    between atoms: C_14  and  C_15
REMARK                            x       y       z     vdW  Elec       q    Type
REMARK                         _______ _______ _______ _____ _____    ______ ____
ROOT
ATOM      1  C   UNL     1      48.411   8.157  13.293  0.00  0.00    +0.000 A 
ATOM      2  C   UNL     1      48.582   7.281  12.216  0.00  0.00    +0.000 A 
ATOM      3  C   UNL     1      47.479   6.801  11.511  0.00  0.00    +0.000 A 
ATOM      4  C   UNL     1      46.183   7.182  11.881  0.00  0.00    +0.000 A 
ATOM      5  C   UNL     1      46.021   8.158  12.874  0.00  0.00    +0.000 A 
ATOM      6  C   UNL     1      47.128   8.649  13.571  0.00  0.00    +0.000 A 
ENDROOT
BRANCH   1   7
ATOM      7  C   UNL     1      49.592   8.521  14.153  0.00  0.00    +0.000 C 
BRANCH   7  10
ATOM      8  O   UNL     1      48.773   7.841  16.771  0.00  0.00    +0.000 OA
ATOM      9  C   UNL     1      49.567   7.118  16.178  0.00  0.00    +0.000 C 
ATOM     10  N   UNL     1      50.059   7.412  14.935  0.00  0.00    +0.000 N 
ATOM     11  H   UNL     1      50.573   6.704  14.424  0.00  0.00    +0.000 HD
BRANCH   9  12
ATOM     12  C   UNL     1      50.110   5.906  16.794  0.00  0.00    +0.000 A 
ATOM     13  C   UNL     1      49.253   4.907  17.248  0.00  0.00    +0.000 A 
ATOM     14  S   UNL     1      50.066   3.594  17.976  0.00  0.00    +0.000 S 
ATOM     15  C   UNL     1      51.589   4.293  17.666  0.00  0.00    +0.000 A 
ATOM     16  N   UNL     1      52.738   3.663  18.031  0.00  0.00    +0.000 NA
ATOM     17  C   UNL     1      53.818   4.289  17.694  0.00  0.00    +0.000 A 
ATOM     18  N   UNL     1      53.854   5.486  17.029  0.00  0.00    +0.000 N 
ATOM     19  C   UNL     1      52.728   6.190  16.718  0.00  0.00    +0.000 A 
ATOM     20  O   UNL     1      52.796   7.330  16.267  0.00  0.00    +0.000 OA
ATOM     21  C   UNL     1      51.475   5.519  17.035  0.00  0.00    +0.000 A 
ATOM     22  H   UNL     1      54.730   5.937  16.826  0.00  0.00    +0.000 HD
ENDBRANCH   9  12
ENDBRANCH   7  10
ENDBRANCH   1   7
BRANCH   4  23
ATOM     23  C   UNL     1      44.981   6.508  11.250  0.00  0.00    +0.000 C 
BRANCH  23  24
ATOM     24  N   UNL     1      45.181   5.052  10.996  0.00  0.00    +0.000 NA
BRANCH  24  25
ATOM     25  C   UNL     1      44.573   4.235  12.077  0.00  0.00    +0.000 C 
BRANCH  25  26
ATOM     26  C   UNL     1      43.952   5.039  13.239  0.00  0.00    +0.000 C 
BRANCH  26  27
ATOM     27  O   UNL     1      42.529   4.946  13.211  0.00  0.00    +0.000 OA
ATOM     28  H   UNL     1      42.194   5.772  12.823  0.00  0.00    +0.000 HD
ENDBRANCH  26  27
ENDBRANCH  25  26
ENDBRANCH  24  25
BRANCH  24  29
ATOM     29  C   UNL     1      44.565   4.703   9.691  0.00  0.00    +0.000 C 
BRANCH  29  30
ATOM     30  C   UNL     1      45.394   3.788   8.807  0.00  0.00    +0.000 A 
ATOM     31  C   UNL     1      45.402   2.412   9.027  0.00  0.00    +0.000 A 
ATOM     32  C   UNL     1      46.131   1.599   8.164  0.00  0.00    +0.000 A 
ATOM     33  C   UNL     1      46.827   2.178   7.111  0.00  0.00    +0.000 A 
ATOM     34  C   UNL     1      46.774   3.555   6.968  0.00  0.00    +0.000 A 
ATOM     35  N   UNL     1      46.078   4.369   7.790  0.00  0.00    +0.000 NA
ENDBRANCH  29  30
ENDBRANCH  24  29
ENDBRANCH  23  24
ENDBRANCH   4  23
TORSDOF 10
ENDMDL
MODEL 8
REMARK VINA RESULT:    -6.275      2.861      8.142
REMARK INTER + INTRA:         -11.611
REMARK INTER:                  -9.642
REMARK INTRA:                  -1.969
REMARK UNBOUND:                -1.851
REMARK  Name = 
REMARK  10 active torsions:
REMARK  status: ('A' for Active; 'I' for Inactive)
REMARK    1  A    between atoms: C_2  and  C_23
REMARK    2  A    between atoms: N_3  and  C_4
REMARK    3  A    between atoms: C_4  and  C_5
REMARK    4  A    between atoms: C_8  and  C_9
REMARK    5  A    between atoms: C_9  and  N_10
REMARK    6  A    between atoms: N_10  and  C_11
REMARK    7  A    between atoms: N_10  and  C_14
REMARK    8  A    between atoms: C_11  and  C_12
REMARK    9  A    between atoms: C_12  and  O_13
REMARK   10  A    between atoms: C_14  and  C_15
REMARK                            x       y       z     vdW  Elec       q    Type
REMARK                         _______ _______ _______ _____ _____    ______ ____
ROOT
ATOM      1  C   UNL     1      48.506   8.010  13.311  0.00  0.00    +0.000 A 
ATOM      2  C   UNL     1      47.841   8.934  14.125  0.00  0.00    +0.000 A 
ATOM      3  C   UNL     1      48.185   9.070  15.469  0.00  0.00    +0.000 A 
ATOM      4  C   UNL     1      49.194   8.274  16.026  0.00  0.00    +0.000 A 
ATOM      5  C   UNL     1      49.945   7.444  15.181  0.00  0.00    +0.000 A 
ATOM      6  C   UNL     1      49.608   7.318  13.831  0.00  0.00    +0.000 A 
ENDROOT
BRANCH   1   7
ATOM      7  C   UNL     1      48.003   7.747  11.917  0.00  0.00    +0.000 C 
BRANCH   7  10
ATOM      8  O   UNL     1      45.177   7.718  11.969  0.00  0.00    +0.000 OA
ATOM      9  C   UNL     1      45.791   6.666  11.826  0.00  0.00    +0.000 C 
ATOM     10  N   UNL     1      47.158   6.589  11.852  0.00  0.00    +0.000 N 
ATOM     11  H   UNL     1      47.613   5.733  11.560  0.00  0.00    +0.000 HD
BRANCH   9  12
ATOM     12  C   UNL     1      45.097   5.384  11.683  0.00  0.00    +0.000 A 
ATOM     13  C   UNL     1      44.399   4.842  12.758  0.00  0.00    +0.000 A 
ATOM     14  S   UNL     1      43.695   3.326  12.416  0.00  0.00    +0.000 S 
ATOM     15  C   UNL     1      44.257   3.365  10.808  0.00  0.00    +0.000 A 
ATOM     16  N   UNL     1      43.984   2.351   9.943  0.00  0.00    +0.000 NA
ATOM     17  C   UNL     1      44.436   2.536   8.747  0.00  0.00    +0.000 A 
ATOM     18  N   UNL     1      45.136   3.639   8.336  0.00  0.00    +0.000 N 
ATOM     19  C   UNL     1      45.502   4.640   9.189  0.00  0.00    +0.000 A 
ATOM     20  O   UNL     1      46.263   5.533   8.829  0.00  0.00    +0.000 OA
ATOM     21  C   UNL     1      44.988   4.510  10.545  0.00  0.00    +0.000 A 
ATOM     22  H   UNL     1      45.489   3.706   7.396  0.00  0.00    +0.000 HD
ENDBRANCH   9  12
ENDBRANCH   7  10
ENDBRANCH   1   7
BRANCH   4  23
ATOM     23  C   UNL     1      49.430   8.278  17.523  0.00  0.00    +0.000 C 
BRANCH  23  24
ATOM     24  N   UNL     1      50.040   7.016  18.032  0.00  0.00    +0.000 NA
BRANCH  24  25
ATOM     25  C   UNL     1      51.037   7.298  19.095  0.00  0.00    +0.000 C 
BRANCH  25  26
ATOM     26  C   UNL     1      51.136   6.229  20.204  0.00  0.00    +0.000 C 
BRANCH  26  27
ATOM     27  O   UNL     1      51.934   5.128  19.773  0.00  0.00    +0.000 OA
ATOM     28  H   UNL     1      51.348   4.522  19.287  0.00  0.00    +0.000 HD
ENDBRANCH  26  27
ENDBRANCH  25  26
ENDBRANCH  24  25
BRANCH  24  29
ATOM     29  C   UNL     1      48.964   6.143  18.566  0.00  0.00    +0.000 C 
BRANCH  29  30
ATOM     30  C   UNL     1      48.745   4.846  17.808  0.00  0.00    +0.000 A 
ATOM     31  C   UNL     1      47.744   4.753  16.842  0.00  0.00    +0.000 A 
ATOM     32  C   UNL     1      47.607   3.565  16.130  0.00  0.00    +0.000 A 
ATOM     33  C   UNL     1      48.468   2.509  16.399  0.00  0.00    +0.000 A 
ATOM     34  C   UNL     1      49.430   2.680  17.381  0.00  0.00    +0.000 A 
ATOM     35  N   UNL     1      49.585   3.819  18.089  0.00  0.00    +0.000 NA
ENDBRANCH  29  30
ENDBRANCH  24  29
ENDBRANCH  23  24
ENDBRANCH   4  23
TORSDOF 10
ENDMDL
MODEL 9
REMARK VINA RESULT:    -6.093      3.389      8.211
REMARK INTER + INTRA:         -11.328
REMARK INTER:                  -9.043
REMARK INTRA:                  -2.285
REMARK UNBOUND:                -1.851
REMARK  Name = 
REMARK  10 active torsions:
REMARK  status: ('A' for Active; 'I' for Inactive)
REMARK    1  A    between atoms: C_2  and  C_23
REMARK    2  A    between atoms: N_3  and  C_4
REMARK    3  A    between atoms: C_4  and  C_5
REMARK    4  A    between atoms: C_8  and  C_9
REMARK    5  A    between atoms: C_9  and  N_10
REMARK    6  A    between atoms: N_10  and  C_11
REMARK    7  A    between atoms: N_10  and  C_14
REMARK    8  A    between atoms: C_11  and  C_12
REMARK    9  A    between atoms: C_12  and  O_13
REMARK   10  A    between atoms: C_14  and  C_15
REMARK                            x       y       z     vdW  Elec       q    Type
REMARK                         _______ _______ _______ _____ _____    ______ ____
ROOT
ATOM      1  C   UNL     1      48.582   8.735  15.664  0.00  0.00    +0.000 A 
ATOM      2  C   UNL     1      47.914   9.298  16.758  0.00  0.00    +0.000 A 
ATOM      3  C   UNL     1      48.297   8.983  18.060  0.00  0.00    +0.000 A 
ATOM      4  C   UNL     1      49.350   8.088  18.292  0.00  0.00    +0.000 A 
ATOM      5  C   UNL     1      50.100   7.627  17.200  0.00  0.00    +0.000 A 
ATOM      6  C   UNL     1      49.724   7.955  15.895  0.00  0.00    +0.000 A 
ENDROOT
BRANCH   1   7
ATOM      7  C   UNL     1      48.043   8.943  14.274  0.00  0.00    +0.000 C 
BRANCH   7  10
ATOM      8  O   UNL     1      48.663   6.827  12.506  0.00  0.00    +0.000 OA
ATOM      9  C   UNL     1      47.563   6.860  13.048  0.00  0.00    +0.000 C 
ATOM     10  N   UNL     1      47.166   7.882  13.867  0.00  0.00    +0.000 N 
ATOM     11  H   UNL     1      46.323   7.777  14.419  0.00  0.00    +0.000 HD
BRANCH   9  12
ATOM     12  C   UNL     1      46.553   5.829  12.800  0.00  0.00    +0.000 A 
ATOM     13  C   UNL     1      46.803   4.506  13.149  0.00  0.00    +0.000 A 
ATOM     14  S   UNL     1      45.530   3.444  12.743  0.00  0.00    +0.000 S 
ATOM     15  C   UNL     1      44.584   4.722  12.132  0.00  0.00    +0.000 A 
ATOM     16  N   UNL     1      43.341   4.497  11.628  0.00  0.00    +0.000 NA
ATOM     17  C   UNL     1      42.723   5.565  11.241  0.00  0.00    +0.000 A 
ATOM     18  N   UNL     1      43.233   6.833  11.309  0.00  0.00    +0.000 N 
ATOM     19  C   UNL     1      44.505   7.095  11.731  0.00  0.00    +0.000 A 
ATOM     20  O   UNL     1      44.988   8.218  11.631  0.00  0.00    +0.000 OA
ATOM     21  C   UNL     1      45.241   5.937  12.220  0.00  0.00    +0.000 A 
ATOM     22  H   UNL     1      42.712   7.619  10.959  0.00  0.00    +0.000 HD
ENDBRANCH   9  12
ENDBRANCH   7  10
ENDBRANCH   1   7
BRANCH   4  23
ATOM     23  C   UNL     1      49.635   7.591  19.695  0.00  0.00    +0.000 C 
BRANCH  23  24
ATOM     24  N   UNL     1      49.927   6.131  19.761  0.00  0.00    +0.000 NA
BRANCH  24  25
ATOM     25  C   UNL     1      50.726   5.802  20.968  0.00  0.00    +0.000 C 
BRANCH  25  26
ATOM     26  C   UNL     1      52.085   5.125  20.694  0.00  0.00    +0.000 C 
BRANCH  26  27
ATOM     27  O   UNL     1      51.916   3.971  19.873  0.00  0.00    +0.000 OA
ATOM     28  H   UNL     1      51.198   4.165  19.247  0.00  0.00    +0.000 HD
ENDBRANCH  26  27
ENDBRANCH  25  26
ENDBRANCH  24  25
BRANCH  24  29
ATOM     29  C   UNL     1      48.644   5.384  19.785  0.00  0.00    +0.000 C 
BRANCH  29  30
ATOM     30  C   UNL     1      48.383   4.503  18.576  0.00  0.00    +0.000 A 
ATOM     31  C   UNL     1      47.275   4.733  17.761  0.00  0.00    +0.000 A 
ATOM     32  C   UNL     1      47.098   3.940  16.631  0.00  0.00    +0.000 A 
ATOM     33  C   UNL     1      48.025   2.945  16.347  0.00  0.00    +0.000 A 
ATOM     34  C   UNL     1      49.093   2.777  17.213  0.00  0.00    +0.000 A 
ATOM     35  N   UNL     1      49.290   3.528  18.317  0.00  0.00    +0.000 NA
ENDBRANCH  29  30
ENDBRANCH  24  29
ENDBRANCH  23  24
ENDBRANCH   4  23
TORSDOF 10
ENDMDL
