MODEL 1
REMARK VINA RESULT:    -8.651      0.000      0.000
REMARK INTER + INTRA:         -13.741
REMARK INTER:                 -12.191
REMARK INTRA:                  -1.550
REMARK UNBOUND:                -1.550
REMARK  Name = 
REMARK  8 active torsions:
REMARK  status: ('A' for Active; 'I' for Inactive)
REMARK    1  A    between atoms: C_1  and  O_2
REMARK    2  A    between atoms: O_2  and  C_3
REMARK    3  A    between atoms: C_10  and  C_11
REMARK    4  A    between atoms: N_13  and  C_14
REMARK    5  A    between atoms: C_14  and  C_15
REMARK    6  A    between atoms: C_18  and  N_19
REMARK    7  A    between atoms: N_19  and  C_20
REMARK    8  A    between atoms: C_20  and  C_21
REMARK                            x       y       z     vdW  Elec       q    Type
REMARK                         _______ _______ _______ _____ _____    ______ ____
ROOT
ATOM      1  C   UNL     1      46.994   8.110  13.324  0.00  0.00    +0.000 C 
ENDROOT
BRANCH   1   2
ATOM      2  C   UNL     1      46.264   7.174  12.396  0.00  0.00    +0.000 A 
ATOM      3  C   UNL     1      46.746   6.921  11.106  0.00  0.00    +0.000 A 
ATOM      4  C   UNL     1      46.162   5.929  10.307  0.00  0.00    +0.000 A 
ATOM      5  C   UNL     1      45.087   5.169  10.777  0.00  0.00    +0.000 A 
ATOM      6  C   UNL     1      44.516   5.533  12.002  0.00  0.00    +0.000 A 
ATOM      7  C   UNL     1      45.104   6.513  12.812  0.00  0.00    +0.000 A 
BRANCH   5   8
ATOM      8  N   UNL     1      44.535   4.086  10.092  0.00  0.00    +0.000 N 
ATOM      9  H   UNL     1      43.651   3.786  10.497  0.00  0.00    +0.000 HD
BRANCH   8  10
ATOM     10  C   UNL     1      44.515   4.109   8.634  0.00  0.00    +0.000 C 
BRANCH  10  11
ATOM     11  C   UNL     1      45.613   3.218   8.093  0.00  0.00    +0.000 A 
ATOM     12  C   UNL     1      46.627   3.758   7.281  0.00  0.00    +0.000 A 
ATOM     13  C   UNL     1      47.620   2.943   6.731  0.00  0.00    +0.000 A 
ATOM     14  C   UNL     1      47.611   1.573   6.983  0.00  0.00    +0.000 A 
ATOM     15  C   UNL     1      46.606   1.035   7.778  0.00  0.00    +0.000 A 
ATOM     16  F   UNL     1      46.590  -0.285   8.010  0.00  0.00    +0.000 F 
ATOM     17  C   UNL     1      45.610   1.838   8.331  0.00  0.00    +0.000 A 
ENDBRANCH  10  11
ENDBRANCH   8  10
ENDBRANCH   5   8
ENDBRANCH   1   2
BRANCH   1  20
ATOM     18  C   UNL     1      48.664   6.889  14.646  0.00  0.00    +0.000 C 
ATOM     19  O   UNL     1      49.470   6.922  13.718  0.00  0.00    +0.000 OA
ATOM     20  N   UNL     1      47.422   7.457  14.531  0.00  0.00    +0.000 N 
ATOM     21  H   UNL     1      46.765   7.410  15.296  0.00  0.00    +0.000 HD
BRANCH  18  29
ATOM     22  C   UNL     1      47.351   4.173  16.298  0.00  0.00    +0.000 A 
ATOM     23  N   UNL     1      47.076   3.131  17.105  0.00  0.00    +0.000 NA
ATOM     24  C   UNL     1      47.824   2.975  18.202  0.00  0.00    +0.000 A 
ATOM     25  N   UNL     1      48.824   3.753  18.608  0.00  0.00    +0.000 NA
ATOM     26  C   UNL     1      49.073   4.771  17.766  0.00  0.00    +0.000 A 
ATOM     27  S   UNL     1      50.310   5.876  18.127  0.00  0.00    +0.000 S 
ATOM     28  C   UNL     1      50.016   6.748  16.698  0.00  0.00    +0.000 A 
ATOM     29  C   UNL     1      48.988   6.226  15.921  0.00  0.00    +0.000 A 
ATOM     30  C   UNL     1      48.409   5.056  16.578  0.00  0.00    +0.000 A 
BRANCH  22  32
ATOM     31  C   UNL     1      47.002   3.523  14.075  0.00  0.00    +0.000 C 
ATOM     32  O   UNL     1      46.583   4.338  15.165  0.00  0.00    +0.000 OA
ENDBRANCH  22  32
ENDBRANCH  18  29
ENDBRANCH   1  20
TORSDOF 7
ENDMDL
MODEL 2
REMARK VINA RESULT:    -8.090      1.435      1.696
REMARK INTER + INTRA:         -12.950
REMARK INTER:                 -11.633
REMARK INTRA:                  -1.317
REMARK UNBOUND:                -1.550
REMARK  Name = 
REMARK  8 active torsions:
REMARK  status: ('A' for Active; 'I' for Inactive)
REMARK    1  A    between atoms: C_1  and  O_2
REMARK    2  A    between atoms: O_2  and  C_3
REMARK    3  A    between atoms: C_10  and  C_11
REMARK    4  A    between atoms: N_13  and  C_14
REMARK    5  A    between atoms: C_14  and  C_15
REMARK    6  A    between atoms: C_18  and  N_19
REMARK    7  A    between atoms: N_19  and  C_20
REMARK    8  A    between atoms: C_20  and  C_21
REMARK                            x       y       z     vdW  Elec       q    Type
REMARK                         _______ _______ _______ _____ _____    ______ ____
ROOT
ATOM      1  C   UNL     1      47.833   7.069  13.363  0.00  0.00    +0.000 C 
ENDROOT
BRANCH   1   2
ATOM      2  C   UNL     1      46.852   6.065  12.816  0.00  0.00    +0.000 A 
ATOM      3  C   UNL     1      46.092   6.352  11.676  0.00  0.00    +0.000 A 
ATOM      4  C   UNL     1      45.305   5.360  11.074  0.00  0.00    +0.000 A 
ATOM      5  C   UNL     1      45.262   4.064  11.595  0.00  0.00    +0.000 A 
ATOM      6  C   UNL     1      45.901   3.829  12.818  0.00  0.00    +0.000 A 
ATOM      7  C   UNL     1      46.701   4.811  13.417  0.00  0.00    +0.000 A 
BRANCH   5   8
ATOM      8  N   UNL     1      44.603   2.995  10.984  0.00  0.00    +0.000 N 
ATOM      9  H   UNL     1      43.882   2.597  11.581  0.00  0.00    +0.000 HD
BRANCH   8  10
ATOM     10  C   UNL     1      44.183   3.128   9.594  0.00  0.00    +0.000 C 
BRANCH  10  11
ATOM     11  C   UNL     1      45.299   2.674   8.677  0.00  0.00    +0.000 A 
ATOM     12  C   UNL     1      45.956   3.603   7.848  0.00  0.00    +0.000 A 
ATOM     13  C   UNL     1      46.953   3.195   6.958  0.00  0.00    +0.000 A 
ATOM     14  C   UNL     1      47.306   1.850   6.882  0.00  0.00    +0.000 A 
ATOM     15  C   UNL     1      46.655   0.928   7.694  0.00  0.00    +0.000 A 
ATOM     16  F   UNL     1      46.985  -0.367   7.611  0.00  0.00    +0.000 F 
ATOM     17  C   UNL     1      45.657   1.324   8.583  0.00  0.00    +0.000 A 
ENDBRANCH  10  11
ENDBRANCH   8  10
ENDBRANCH   5   8
ENDBRANCH   1   2
BRANCH   1  20
ATOM     18  C   UNL     1      49.059   7.376  15.469  0.00  0.00    +0.000 C 
ATOM     19  O   UNL     1      50.064   7.749  14.867  0.00  0.00    +0.000 OA
ATOM     20  N   UNL     1      47.915   7.027  14.798  0.00  0.00    +0.000 N 
ATOM     21  H   UNL     1      47.102   6.708  15.304  0.00  0.00    +0.000 HD
BRANCH  18  29
ATOM     22  C   UNL     1      48.646   4.746  17.647  0.00  0.00    +0.000 A 
ATOM     23  N   UNL     1      48.577   3.906  18.697  0.00  0.00    +0.000 NA
ATOM     24  C   UNL     1      48.707   4.424  19.922  0.00  0.00    +0.000 A 
ATOM     25  N   UNL     1      48.887   5.704  20.236  0.00  0.00    +0.000 NA
ATOM     26  C   UNL     1      48.963   6.505  19.159  0.00  0.00    +0.000 A 
ATOM     27  S   UNL     1      49.181   8.174  19.367  0.00  0.00    +0.000 S 
ATOM     28  C   UNL     1      49.192   8.433  17.688  0.00  0.00    +0.000 A 
ATOM     29  C   UNL     1      49.038   7.272  16.938  0.00  0.00    +0.000 A 
ATOM     30  C   UNL     1      48.875   6.122  17.825  0.00  0.00    +0.000 A 
BRANCH  22  32
ATOM     31  C   UNL     1      47.979   2.897  16.372  0.00  0.00    +0.000 C 
ATOM     32  O   UNL     1      48.514   4.217  16.381  0.00  0.00    +0.000 OA
ENDBRANCH  22  32
ENDBRANCH  18  29
ENDBRANCH   1  20
TORSDOF 7
ENDMDL
MODEL 3
REMARK VINA RESULT:    -7.880      2.415      3.193
REMARK INTER + INTRA:         -12.654
REMARK INTER:                 -11.369
REMARK INTRA:                  -1.285
REMARK UNBOUND:                -1.550
REMARK  Name = 
REMARK  8 active torsions:
REMARK  status: ('A' for Active; 'I' for Inactive)
REMARK    1  A    between atoms: C_1  and  O_2
REMARK    2  A    between atoms: O_2  and  C_3
REMARK    3  A    between atoms: C_10  and  C_11
REMARK    4  A    between atoms: N_13  and  C_14
REMARK    5  A    between atoms: C_14  and  C_15
REMARK    6  A    between atoms: C_18  and  N_19
REMARK    7  A    between atoms: N_19  and  C_20
REMARK    8  A    between atoms: C_20  and  C_21
REMARK                            x       y       z     vdW  Elec       q    Type
REMARK                         _______ _______ _______ _____ _____    ______ ____
ROOT
ATOM      1  C   UNL     1      48.264   6.548  13.922  0.00  0.00    +0.000 C 
ENDROOT
BRANCH   1   2
ATOM      2  C   UNL     1      47.136   5.845  13.212  0.00  0.00    +0.000 A 
ATOM      3  C   UNL     1      46.542   6.406  12.075  0.00  0.00    +0.000 A 
ATOM      4  C   UNL     1      45.611   5.678  11.322  0.00  0.00    +0.000 A 
ATOM      5  C   UNL     1      45.254   4.377  11.685  0.00  0.00    +0.000 A 
ATOM      6  C   UNL     1      45.735   3.884  12.904  0.00  0.00    +0.000 A 
ATOM      7  C   UNL     1      46.677   4.599  13.654  0.00  0.00    +0.000 A 
BRANCH   5   8
ATOM      8  N   UNL     1      44.432   3.547  10.921  0.00  0.00    +0.000 N 
ATOM      9  H   UNL     1      43.571   3.308  11.406  0.00  0.00    +0.000 HD
BRANCH   8  10
ATOM     10  C   UNL     1      44.225   3.863   9.513  0.00  0.00    +0.000 C 
BRANCH  10  11
ATOM     11  C   UNL     1      45.274   3.168   8.672  0.00  0.00    +0.000 A 
ATOM     12  C   UNL     1      46.036   3.901   7.743  0.00  0.00    +0.000 A 
ATOM     13  C   UNL     1      46.974   3.269   6.921  0.00  0.00    +0.000 A 
ATOM     14  C   UNL     1      47.161   1.892   7.016  0.00  0.00    +0.000 A 
ATOM     15  C   UNL     1      46.406   1.163   7.928  0.00  0.00    +0.000 A 
ATOM     16  F   UNL     1      46.577  -0.163   8.010  0.00  0.00    +0.000 F 
ATOM     17  C   UNL     1      45.466   1.784   8.750  0.00  0.00    +0.000 A 
ENDBRANCH  10  11
ENDBRANCH   8  10
ENDBRANCH   5   8
ENDBRANCH   1   2
BRANCH   1  20
ATOM     18  C   UNL     1      49.065   6.408  16.238  0.00  0.00    +0.000 C 
ATOM     19  O   UNL     1      50.205   6.146  15.862  0.00  0.00    +0.000 OA
ATOM     20  N   UNL     1      48.051   6.625  15.342  0.00  0.00    +0.000 N 
ATOM     21  H   UNL     1      47.116   6.825  15.665  0.00  0.00    +0.000 HD
BRANCH  18  29
ATOM     22  C   UNL     1      47.823   8.918  18.236  0.00  0.00    +0.000 A 
ATOM     23  N   UNL     1      47.296   9.686  19.208  0.00  0.00    +0.000 NA
ATOM     24  C   UNL     1      47.149   9.146  20.422  0.00  0.00    +0.000 A 
ATOM     25  N   UNL     1      47.483   7.914  20.797  0.00  0.00    +0.000 NA
ATOM     26  C   UNL     1      47.992   7.178  19.794  0.00  0.00    +0.000 A 
ATOM     27  S   UNL     1      48.484   5.581  20.089  0.00  0.00    +0.000 S 
ATOM     28  C   UNL     1      48.941   5.369  18.466  0.00  0.00    +0.000 A 
ATOM     29  C   UNL     1      48.728   6.489  17.670  0.00  0.00    +0.000 A 
ATOM     30  C   UNL     1      48.184   7.580  18.476  0.00  0.00    +0.000 A 
BRANCH  22  32
ATOM     31  C   UNL     1      49.179  10.213  16.833  0.00  0.00    +0.000 C 
ATOM     32  O   UNL     1      47.975   9.468  16.982  0.00  0.00    +0.000 OA
ENDBRANCH  22  32
ENDBRANCH  18  29
ENDBRANCH   1  20
TORSDOF 7
ENDMDL
MODEL 4
REMARK VINA RESULT:    -7.634      1.876      3.513
REMARK INTER + INTRA:         -12.308
REMARK INTER:                 -11.057
REMARK INTRA:                  -1.252
REMARK UNBOUND:                -1.550
REMARK  Name = 
REMARK  8 active torsions:
REMARK  status: ('A' for Active; 'I' for Inactive)
REMARK    1  A    between atoms: C_1  and  O_2
REMARK    2  A    between atoms: O_2  and  C_3
REMARK    3  A    between atoms: C_10  and  C_11
REMARK    4  A    between atoms: N_13  and  C_14
REMARK    5  A    between atoms: C_14  and  C_15
REMARK    6  A    between atoms: C_18  and  N_19
REMARK    7  A    between atoms: N_19  and  C_20
REMARK    8  A    between atoms: C_20  and  C_21
REMARK                            x       y       z     vdW  Elec       q    Type
REMARK                         _______ _______ _______ _____ _____    ______ ____
ROOT
ATOM      1  C   UNL     1      46.790   4.414  14.992  0.00  0.00    +0.000 C 
ENDROOT
BRANCH   1   2
ATOM      2  C   UNL     1      46.419   4.487  13.533  0.00  0.00    +0.000 A 
ATOM      3  C   UNL     1      45.818   3.399  12.890  0.00  0.00    +0.000 A 
ATOM      4  C   UNL     1      45.325   3.524  11.584  0.00  0.00    +0.000 A 
ATOM      5  C   UNL     1      45.419   4.736  10.894  0.00  0.00    +0.000 A 
ATOM      6  C   UNL     1      46.156   5.769  11.486  0.00  0.00    +0.000 A 
ATOM      7  C   UNL     1      46.638   5.656  12.796  0.00  0.00    +0.000 A 
BRANCH   5   8
ATOM      8  N   UNL     1      44.844   4.973   9.644  0.00  0.00    +0.000 N 
ATOM      9  H   UNL     1      45.393   5.623   9.086  0.00  0.00    +0.000 HD
BRANCH   8  10
ATOM     10  C   UNL     1      44.342   3.843   8.873  0.00  0.00    +0.000 C 
BRANCH  10  11
ATOM     11  C   UNL     1      45.497   3.122   8.210  0.00  0.00    +0.000 A 
ATOM     12  C   UNL     1      46.359   3.816   7.340  0.00  0.00    +0.000 A 
ATOM     13  C   UNL     1      47.399   3.156   6.680  0.00  0.00    +0.000 A 
ATOM     14  C   UNL     1      47.590   1.791   6.878  0.00  0.00    +0.000 A 
ATOM     15  C   UNL     1      46.737   1.101   7.731  0.00  0.00    +0.000 A 
ATOM     16  F   UNL     1      46.913  -0.215   7.911  0.00  0.00    +0.000 F 
ATOM     17  C   UNL     1      45.695   1.748   8.393  0.00  0.00    +0.000 A 
ENDBRANCH  10  11
ENDBRANCH   8  10
ENDBRANCH   5   8
ENDBRANCH   1   2
BRANCH   1  20
ATOM     18  C   UNL     1      48.570   5.479  16.304  0.00  0.00    +0.000 C 
ATOM     19  O   UNL     1      48.936   4.394  16.749  0.00  0.00    +0.000 OA
ATOM     20  N   UNL     1      47.521   5.573  15.428  0.00  0.00    +0.000 N 
ATOM     21  H   UNL     1      47.222   6.473  15.082  0.00  0.00    +0.000 HD
BRANCH  18  29
ATOM     22  C   UNL     1      50.179   7.961  14.547  0.00  0.00    +0.000 A 
ATOM     23  N   UNL     1      50.788   9.078  14.108  0.00  0.00    +0.000 NA
ATOM     24  C   UNL     1      51.139   9.997  15.013  0.00  0.00    +0.000 A 
ATOM     25  N   UNL     1      50.966   9.931  16.331  0.00  0.00    +0.000 NA
ATOM     26  C   UNL     1      50.343   8.807  16.724  0.00  0.00    +0.000 A 
ATOM     27  S   UNL     1      50.045   8.544  18.374  0.00  0.00    +0.000 S 
ATOM     28  C   UNL     1      49.284   7.060  18.052  0.00  0.00    +0.000 A 
ATOM     29  C   UNL     1      49.233   6.734  16.701  0.00  0.00    +0.000 A 
ATOM     30  C   UNL     1      49.892   7.772  15.911  0.00  0.00    +0.000 A 
BRANCH  22  32
ATOM     31  C   UNL     1      49.593   7.547  12.317  0.00  0.00    +0.000 C 
ATOM     32  O   UNL     1      49.813   7.011  13.618  0.00  0.00    +0.000 OA
ENDBRANCH  22  32
ENDBRANCH  18  29
ENDBRANCH   1  20
TORSDOF 7
ENDMDL
MODEL 5
REMARK VINA RESULT:    -7.086      1.682      2.264
REMARK INTER + INTRA:         -11.536
REMARK INTER:                 -10.221
REMARK INTRA:                  -1.315
REMARK UNBOUND:                -1.550
REMARK  Name = 
REMARK  8 active torsions:
REMARK  status: ('A' for Active; 'I' for Inactive)
REMARK    1  A    between atoms: C_1  and  O_2
REMARK    2  A    between atoms: O_2  and  C_3
REMARK    3  A    between atoms: C_10  and  C_11
REMARK    4  A    between atoms: N_13  and  C_14
REMARK    5  A    between atoms: C_14  and  C_15
REMARK    6  A    between atoms: C_18  and  N_19
REMARK    7  A    between atoms: N_19  and  C_20
REMARK    8  A    between atoms: C_20  and  C_21
REMARK                            x       y       z     vdW  Elec       q    Type
REMARK                         _______ _______ _______ _____ _____    ______ ____
ROOT
ATOM      1  C   UNL     1      48.299   8.558  14.368  0.00  0.00    +0.000 C 
ENDROOT
BRANCH   1   2
ATOM      2  C   UNL     1      47.362   8.114  13.275  0.00  0.00    +0.000 A 
ATOM      3  C   UNL     1      47.763   7.166  12.326  0.00  0.00    +0.000 A 
ATOM      4  C   UNL     1      46.841   6.633  11.414  0.00  0.00    +0.000 A 
ATOM      5  C   UNL     1      45.503   7.034  11.431  0.00  0.00    +0.000 A 
ATOM      6  C   UNL     1      45.147   8.090  12.277  0.00  0.00    +0.000 A 
ATOM      7  C   UNL     1      46.058   8.617  13.201  0.00  0.00    +0.000 A 
BRANCH   5   8
ATOM      8  N   UNL     1      44.504   6.461  10.641  0.00  0.00    +0.000 N 
ATOM      9  H   UNL     1      44.655   6.632   9.649  0.00  0.00    +0.000 HD
BRANCH   8  10
ATOM     10  C   UNL     1      44.074   5.098  10.925  0.00  0.00    +0.000 C 
BRANCH  10  11
ATOM     11  C   UNL     1      44.648   4.154   9.890  0.00  0.00    +0.000 A 
ATOM     12  C   UNL     1      44.440   2.766  10.004  0.00  0.00    +0.000 A 
ATOM     13  C   UNL     1      45.005   1.875   9.087  0.00  0.00    +0.000 A 
ATOM     14  C   UNL     1      45.790   2.360   8.044  0.00  0.00    +0.000 A 
ATOM     15  C   UNL     1      46.003   3.729   7.932  0.00  0.00    +0.000 A 
ATOM     16  F   UNL     1      46.768   4.194   6.935  0.00  0.00    +0.000 F 
ATOM     17  C   UNL     1      45.446   4.626   8.841  0.00  0.00    +0.000 A 
ENDBRANCH  10  11
ENDBRANCH   8  10
ENDBRANCH   5   8
ENDBRANCH   1   2
BRANCH   1  20
ATOM     18  C   UNL     1      48.818   7.469  16.506  0.00  0.00    +0.000 C 
ATOM     19  O   UNL     1      48.391   8.432  17.138  0.00  0.00    +0.000 OA
ATOM     20  N   UNL     1      48.804   7.452  15.136  0.00  0.00    +0.000 N 
ATOM     21  H   UNL     1      49.172   6.660  14.630  0.00  0.00    +0.000 HD
BRANCH  18  29
ATOM     22  C   UNL     1      48.328   4.081  16.166  0.00  0.00    +0.000 A 
ATOM     23  N   UNL     1      48.372   2.736  16.198  0.00  0.00    +0.000 NA
ATOM     24  C   UNL     1      49.207   2.158  17.067  0.00  0.00    +0.000 A 
ATOM     25  N   UNL     1      50.010   2.768  17.935  0.00  0.00    +0.000 NA
ATOM     26  C   UNL     1      49.944   4.109  17.860  0.00  0.00    +0.000 A 
ATOM     27  S   UNL     1      50.893   5.056  18.900  0.00  0.00    +0.000 S 
ATOM     28  C   UNL     1      50.297   6.493  18.215  0.00  0.00    +0.000 A 
ATOM     29  C   UNL     1      49.380   6.291  17.190  0.00  0.00    +0.000 A 
ATOM     30  C   UNL     1      49.152   4.860  16.998  0.00  0.00    +0.000 A 
BRANCH  22  32
ATOM     31  C   UNL     1      47.103   3.839  14.184  0.00  0.00    +0.000 C 
ATOM     32  O   UNL     1      47.469   4.683  15.271  0.00  0.00    +0.000 OA
ENDBRANCH  22  32
ENDBRANCH  18  29
ENDBRANCH   1  20
TORSDOF 7
ENDMDL
MODEL 6
REMARK VINA RESULT:    -6.990      2.728      4.363
REMARK INTER + INTRA:         -11.401
REMARK INTER:                 -10.306
REMARK INTRA:                  -1.095
REMARK UNBOUND:                -1.550
REMARK  Name = 
REMARK  8 active torsions:
REMARK  status: ('A' for Active; 'I' for Inactive)
REMARK    1  A    between atoms: C_1  and  O_2
REMARK    2  A    between atoms: O_2  and  C_3
REMARK    3  A    between atoms: C_10  and  C_11
REMARK    4  A    between atoms: N_13  and  C_14
REMARK    5  A    between atoms: C_14  and  C_15
REMARK    6  A    between atoms: C_18  and  N_19
REMARK    7  A    between atoms: N_19  and  C_20
REMARK    8  A    between atoms: C_20  and  C_21
REMARK                            x       y       z     vdW  Elec       q    Type
REMARK                         _______ _______ _______ _____ _____    ______ ____
ROOT
ATOM      1  C   UNL     1      46.635   5.332  14.363  0.00  0.00    +0.000 C 
ENDROOT
BRANCH   1   2
ATOM      2  C   UNL     1      45.810   4.847  13.199  0.00  0.00    +0.000 A 
ATOM      3  C   UNL     1      45.062   5.744  12.426  0.00  0.00    +0.000 A 
ATOM      4  C   UNL     1      44.430   5.318  11.250  0.00  0.00    +0.000 A 
ATOM      5  C   UNL     1      44.532   3.992  10.820  0.00  0.00    +0.000 A 
ATOM      6  C   UNL     1      45.150   3.073  11.675  0.00  0.00    +0.000 A 
ATOM      7  C   UNL     1      45.796   3.494  12.845  0.00  0.00    +0.000 A 
BRANCH   5   8
ATOM      8  N   UNL     1      44.037   3.524   9.601  0.00  0.00    +0.000 N 
ATOM      9  H   UNL     1      43.021   3.476   9.593  0.00  0.00    +0.000 HD
BRANCH   8  10
ATOM     10  C   UNL     1      44.593   4.055   8.362  0.00  0.00    +0.000 C 
BRANCH  10  11
ATOM     11  C   UNL     1      45.546   3.048   7.756  0.00  0.00    +0.000 A 
ATOM     12  C   UNL     1      45.752   1.803   8.379  0.00  0.00    +0.000 A 
ATOM     13  C   UNL     1      46.667   0.881   7.862  0.00  0.00    +0.000 A 
ATOM     14  C   UNL     1      47.392   1.193   6.715  0.00  0.00    +0.000 A 
ATOM     15  C   UNL     1      47.197   2.425   6.101  0.00  0.00    +0.000 A 
ATOM     16  F   UNL     1      47.904   2.730   5.004  0.00  0.00    +0.000 F 
ATOM     17  C   UNL     1      46.289   3.352   6.608  0.00  0.00    +0.000 A 
ENDBRANCH  10  11
ENDBRANCH   8  10
ENDBRANCH   5   8
ENDBRANCH   1   2
BRANCH   1  20
ATOM     18  C   UNL     1      48.298   6.830  13.353  0.00  0.00    +0.000 C 
ATOM     19  O   UNL     1      48.866   5.885  12.809  0.00  0.00    +0.000 OA
ATOM     20  N   UNL     1      47.187   6.639  14.133  0.00  0.00    +0.000 N 
ATOM     21  H   UNL     1      46.739   7.422  14.586  0.00  0.00    +0.000 HD
BRANCH  18  29
ATOM     22  C   UNL     1      49.742   9.069  15.528  0.00  0.00    +0.000 A 
ATOM     23  N   UNL     1      50.370  10.092  16.138  0.00  0.00    +0.000 NA
ATOM     24  C   UNL     1      50.653  11.177  15.410  0.00  0.00    +0.000 A 
ATOM     25  N   UNL     1      50.368  11.376  14.125  0.00  0.00    +0.000 NA
ATOM     26  C   UNL     1      49.755  10.326  13.553  0.00  0.00    +0.000 A 
ATOM     27  S   UNL     1      49.306  10.404  11.918  0.00  0.00    +0.000 S 
ATOM     28  C   UNL     1      48.673   8.828  11.965  0.00  0.00    +0.000 A 
ATOM     29  C   UNL     1      48.791   8.210  13.206  0.00  0.00    +0.000 A 
ATOM     30  C   UNL     1      49.417   9.122  14.161  0.00  0.00    +0.000 A 
BRANCH  22  32
ATOM     31  C   UNL     1      50.518   7.008  16.325  0.00  0.00    +0.000 C 
ATOM     32  O   UNL     1      49.450   7.948  16.274  0.00  0.00    +0.000 OA
ENDBRANCH  22  32
ENDBRANCH  18  29
ENDBRANCH   1  20
TORSDOF 7
ENDMDL
MODEL 7
REMARK VINA RESULT:    -6.957      2.791      3.324
REMARK INTER + INTRA:         -11.354
REMARK INTER:                 -10.230
REMARK INTRA:                  -1.124
REMARK UNBOUND:                -1.550
REMARK  Name = 
REMARK  8 active torsions:
REMARK  status: ('A' for Active; 'I' for Inactive)
REMARK    1  A    between atoms: C_1  and  O_2
REMARK    2  A    between atoms: O_2  and  C_3
REMARK    3  A    between atoms: C_10  and  C_11
REMARK    4  A    between atoms: N_13  and  C_14
REMARK    5  A    between atoms: C_14  and  C_15
REMARK    6  A    between atoms: C_18  and  N_19
REMARK    7  A    between atoms: N_19  and  C_20
REMARK    8  A    between atoms: C_20  and  C_21
REMARK                            x       y       z     vdW  Elec       q    Type
REMARK                         _______ _______ _______ _____ _____    ______ ____
ROOT
ATOM      1  C   UNL     1      47.980   8.948  14.049  0.00  0.00    +0.000 C 
ENDROOT
BRANCH   1   2
ATOM      2  C   UNL     1      47.054   8.111  13.205  0.00  0.00    +0.000 A 
ATOM      3  C   UNL     1      45.722   8.494  13.006  0.00  0.00    +0.000 A 
ATOM      4  C   UNL     1      44.910   7.808  12.092  0.00  0.00    +0.000 A 
ATOM      5  C   UNL     1      45.410   6.730  11.357  0.00  0.00    +0.000 A 
ATOM      6  C   UNL     1      46.690   6.260  11.673  0.00  0.00    +0.000 A 
ATOM      7  C   UNL     1      47.512   6.949  12.575  0.00  0.00    +0.000 A 
BRANCH   5   8
ATOM      8  N   UNL     1      44.705   6.079  10.343  0.00  0.00    +0.000 N 
ATOM      9  H   UNL     1      45.106   6.253   9.424  0.00  0.00    +0.000 HD
BRANCH   8  10
ATOM     10  C   UNL     1      44.310   4.689  10.538  0.00  0.00    +0.000 C 
BRANCH  10  11
ATOM     11  C   UNL     1      44.947   3.822   9.473  0.00  0.00    +0.000 A 
ATOM     12  C   UNL     1      45.032   2.429   9.651  0.00  0.00    +0.000 A 
ATOM     13  C   UNL     1      45.662   1.618   8.702  0.00  0.00    +0.000 A 
ATOM     14  C   UNL     1      46.219   2.191   7.562  0.00  0.00    +0.000 A 
ATOM     15  C   UNL     1      46.143   3.568   7.385  0.00  0.00    +0.000 A 
ATOM     16  F   UNL     1      46.690   4.120   6.294  0.00  0.00    +0.000 F 
ATOM     17  C   UNL     1      45.519   4.386   8.325  0.00  0.00    +0.000 A 
ENDBRANCH  10  11
ENDBRANCH   8  10
ENDBRANCH   5   8
ENDBRANCH   1   2
BRANCH   1  20
ATOM     18  C   UNL     1      48.366   9.574  16.391  0.00  0.00    +0.000 C 
ATOM     19  O   UNL     1      49.292  10.318  16.074  0.00  0.00    +0.000 OA
ATOM     20  N   UNL     1      47.666   8.866  15.449  0.00  0.00    +0.000 N 
ATOM     21  H   UNL     1      46.917   8.248  15.726  0.00  0.00    +0.000 HD
BRANCH  18  29
ATOM     22  C   UNL     1      48.177   6.837  18.466  0.00  0.00    +0.000 A 
ATOM     23  N   UNL     1      48.077   5.965  19.486  0.00  0.00    +0.000 NA
ATOM     24  C   UNL     1      47.701   6.437  20.679  0.00  0.00    +0.000 A 
ATOM     25  N   UNL     1      47.394   7.696  20.983  0.00  0.00    +0.000 NA
ATOM     26  C   UNL     1      47.521   8.534  19.940  0.00  0.00    +0.000 A 
ATOM     27  S   UNL     1      47.162  10.181  20.137  0.00  0.00    +0.000 S 
ATOM     28  C   UNL     1      47.558  10.513  18.518  0.00  0.00    +0.000 A 
ATOM     29  C   UNL     1      47.972   9.397  17.800  0.00  0.00    +0.000 A 
ATOM     30  C   UNL     1      47.924   8.208  18.649  0.00  0.00    +0.000 A 
BRANCH  22  32
ATOM     31  C   UNL     1      47.987   5.095  16.912  0.00  0.00    +0.000 C 
ATOM     32  O   UNL     1      48.565   6.356  17.234  0.00  0.00    +0.000 OA
ENDBRANCH  22  32
ENDBRANCH  18  29
ENDBRANCH   1  20
TORSDOF 7
ENDMDL
MODEL 8
REMARK VINA RESULT:    -6.260      3.504      8.051
REMARK INTER + INTRA:         -10.372
REMARK INTER:                  -8.967
REMARK INTRA:                  -1.405
REMARK UNBOUND:                -1.550
REMARK  Name = 
REMARK  8 active torsions:
REMARK  status: ('A' for Active; 'I' for Inactive)
REMARK    1  A    between atoms: C_1  and  O_2
REMARK    2  A    between atoms: O_2  and  C_3
REMARK    3  A    between atoms: C_10  and  C_11
REMARK    4  A    between atoms: N_13  and  C_14
REMARK    5  A    between atoms: C_14  and  C_15
REMARK    6  A    between atoms: C_18  and  N_19
REMARK    7  A    between atoms: N_19  and  C_20
REMARK    8  A    between atoms: C_20  and  C_21
REMARK                            x       y       z     vdW  Elec       q    Type
REMARK                         _______ _______ _______ _____ _____    ______ ____
ROOT
ATOM      1  C   UNL     1      47.750   7.820  11.832  0.00  0.00    +0.000 C 
ENDROOT
BRANCH   1   2
ATOM      2  C   UNL     1      48.391   8.032  13.180  0.00  0.00    +0.000 A 
ATOM      3  C   UNL     1      47.758   8.803  14.162  0.00  0.00    +0.000 A 
ATOM      4  C   UNL     1      48.272   8.862  15.465  0.00  0.00    +0.000 A 
ATOM      5  C   UNL     1      49.426   8.154  15.814  0.00  0.00    +0.000 A 
ATOM      6  C   UNL     1      50.133   7.513  14.791  0.00  0.00    +0.000 A 
ATOM      7  C   UNL     1      49.618   7.437  13.491  0.00  0.00    +0.000 A 
BRANCH   5   8
ATOM      8  N   UNL     1      49.927   8.064  17.114  0.00  0.00    +0.000 N 
ATOM      9  H   UNL     1      50.328   8.944  17.432  0.00  0.00    +0.000 HD
BRANCH   8  10
ATOM     10  C   UNL     1      49.124   7.402  18.135  0.00  0.00    +0.000 C 
BRANCH  10  11
ATOM     11  C   UNL     1      49.131   5.907  17.901  0.00  0.00    +0.000 A 
ATOM     12  C   UNL     1      50.350   5.208  17.821  0.00  0.00    +0.000 A 
ATOM     13  C   UNL     1      50.378   3.836  17.554  0.00  0.00    +0.000 A 
ATOM     14  C   UNL     1      49.185   3.143  17.360  0.00  0.00    +0.000 A 
ATOM     15  C   UNL     1      47.979   3.831  17.431  0.00  0.00    +0.000 A 
ATOM     16  F   UNL     1      46.833   3.167  17.231  0.00  0.00    +0.000 F 
ATOM     17  C   UNL     1      47.940   5.199  17.694  0.00  0.00    +0.000 A 
ENDBRANCH  10  11
ENDBRANCH   8  10
ENDBRANCH   5   8
ENDBRANCH   1   2
BRANCH   1  20
ATOM     18  C   UNL     1      45.616   6.639  11.548  0.00  0.00    +0.000 C 
ATOM     19  O   UNL     1      45.019   7.696  11.359  0.00  0.00    +0.000 OA
ATOM     20  N   UNL     1      46.966   6.615  11.784  0.00  0.00    +0.000 N 
ATOM     21  H   UNL     1      47.442   5.741  11.952  0.00  0.00    +0.000 HD
BRANCH  18  29
ATOM     22  C   UNL     1      45.302   4.125   9.222  0.00  0.00    +0.000 A 
ATOM     23  N   UNL     1      45.074   2.990   8.534  0.00  0.00    +0.000 NA
ATOM     24  C   UNL     1      44.346   2.036   9.124  0.00  0.00    +0.000 A 
ATOM     25  N   UNL     1      43.796   2.081  10.335  0.00  0.00    +0.000 NA
ATOM     26  C   UNL     1      44.061   3.224  10.991  0.00  0.00    +0.000 A 
ATOM     27  S   UNL     1      43.432   3.464  12.548  0.00  0.00    +0.000 S 
ATOM     28  C   UNL     1      44.172   4.989  12.667  0.00  0.00    +0.000 A 
ATOM     29  C   UNL     1      44.909   5.346  11.543  0.00  0.00    +0.000 A 
ATOM     30  C   UNL     1      44.818   4.296  10.531  0.00  0.00    +0.000 A 
BRANCH  22  32
ATOM     31  C   UNL     1      46.865   4.631   7.552  0.00  0.00    +0.000 C 
ATOM     32  O   UNL     1      46.053   5.111   8.619  0.00  0.00    +0.000 OA
ENDBRANCH  22  32
ENDBRANCH  18  29
ENDBRANCH   1  20
TORSDOF 7
ENDMDL
MODEL 9
REMARK VINA RESULT:    -6.090      3.946      7.948
REMARK INTER + INTRA:         -10.132
REMARK INTER:                  -8.735
REMARK INTRA:                  -1.398
REMARK UNBOUND:                -1.550
REMARK  Name = 
REMARK  8 active torsions:
REMARK  status: ('A' for Active; 'I' for Inactive)
REMARK    1  A    between atoms: C_1  and  O_2
REMARK    2  A    between atoms: O_2  and  C_3
REMARK    3  A    between atoms: C_10  and  C_11
REMARK    4  A    between atoms: N_13  and  C_14
REMARK    5  A    between atoms: C_14  and  C_15
REMARK    6  A    between atoms: C_18  and  N_19
REMARK    7  A    between atoms: N_19  and  C_20
REMARK    8  A    between atoms: C_20  and  C_21
REMARK                            x       y       z     vdW  Elec       q    Type
REMARK                         _______ _______ _______ _____ _____    ______ ____
ROOT
ATOM      1  C   UNL     1      48.522   9.609  15.589  0.00  0.00    +0.000 C 
ENDROOT
BRANCH   1   2
ATOM      2  C   UNL     1      49.196   8.725  16.606  0.00  0.00    +0.000 A 
ATOM      3  C   UNL     1      48.512   7.651  17.190  0.00  0.00    +0.000 A 
ATOM      4  C   UNL     1      49.186   6.734  18.007  0.00  0.00    +0.000 A 
ATOM      5  C   UNL     1      50.555   6.868  18.259  0.00  0.00    +0.000 A 
ATOM      6  C   UNL     1      51.194   8.025  17.799  0.00  0.00    +0.000 A 
ATOM      7  C   UNL     1      50.530   8.938  16.969  0.00  0.00    +0.000 A 
BRANCH   5   8
ATOM      8  N   UNL     1      51.318   5.931  18.958  0.00  0.00    +0.000 N 
ATOM      9  H   UNL     1      50.739   5.277  19.479  0.00  0.00    +0.000 HD
BRANCH   8  10
ATOM     10  C   UNL     1      52.437   5.287  18.281  0.00  0.00    +0.000 C 
BRANCH  10  11
ATOM     11  C   UNL     1      52.115   3.828  18.036  0.00  0.00    +0.000 A 
ATOM     12  C   UNL     1      53.080   2.836  18.294  0.00  0.00    +0.000 A 
ATOM     13  C   UNL     1      52.820   1.490  18.025  0.00  0.00    +0.000 A 
ATOM     14  C   UNL     1      51.590   1.116  17.490  0.00  0.00    +0.000 A 
ATOM     15  C   UNL     1      50.636   2.093  17.227  0.00  0.00    +0.000 A 
ATOM     16  F   UNL     1      49.458   1.734  16.700  0.00  0.00    +0.000 F 
ATOM     17  C   UNL     1      50.887   3.438  17.489  0.00  0.00    +0.000 A 
ENDBRANCH  10  11
ENDBRANCH   8  10
ENDBRANCH   5   8
ENDBRANCH   1   2
BRANCH   1  20
ATOM     18  C   UNL     1      47.812   8.175  13.726  0.00  0.00    +0.000 C 
ATOM     19  O   UNL     1      48.968   8.076  13.319  0.00  0.00    +0.000 OA
ATOM     20  N   UNL     1      47.511   8.910  14.843  0.00  0.00    +0.000 N 
ATOM     21  H   UNL     1      46.556   8.994  15.158  0.00  0.00    +0.000 HD
BRANCH  18  29
ATOM     22  C   UNL     1      46.596   4.958  13.709  0.00  0.00    +0.000 A 
ATOM     23  N   UNL     1      45.893   3.818  13.570  0.00  0.00    +0.000 NA
ATOM     24  C   UNL     1      44.818   3.839  12.776  0.00  0.00    +0.000 A 
ATOM     25  N   UNL     1      44.357   4.874  12.078  0.00  0.00    +0.000 NA
ATOM     26  C   UNL     1      45.079   5.993  12.257  0.00  0.00    +0.000 A 
ATOM     27  S   UNL     1      44.645   7.414  11.438  0.00  0.00    +0.000 S 
ATOM     28  C   UNL     1      45.920   8.278  12.155  0.00  0.00    +0.000 A 
ATOM     29  C   UNL     1      46.693   7.519  13.027  0.00  0.00    +0.000 A 
ATOM     30  C   UNL     1      46.201   6.144  13.065  0.00  0.00    +0.000 A 
BRANCH  22  32
ATOM     31  C   UNL     1      47.464   4.333  15.793  0.00  0.00    +0.000 C 
ATOM     32  O   UNL     1      47.704   4.942  14.529  0.00  0.00    +0.000 OA
ENDBRANCH  22  32
ENDBRANCH  18  29
ENDBRANCH   1  20
TORSDOF 7
ENDMDL
