MODEL 1
REMARK VINA RESULT:    -7.269      0.000      0.000
REMARK INTER + INTRA:          -9.607
REMARK INTER:                  -9.182
REMARK INTRA:                  -0.426
REMARK UNBOUND:                -0.426
REMARK  Name = 
REMARK  5 active torsions:
REMARK  status: ('A' for Active; 'I' for Inactive)
REMARK    1  A    between atoms: N_1  and  C_2
REMARK    2  A    between atoms: C_2  and  C_3
REMARK    3  A    between atoms: C_6  and  C_7
REMARK    4  A    between atoms: C_7  and  O_8
REMARK    5  A    between atoms: O_8  and  C_9
REMARK                            x       y       z     vdW  Elec       q    Type
REMARK                         _______ _______ _______ _____ _____    ______ ____
ROOT
ATOM      1  C   UNL     1      46.471   2.740   7.078  0.00  0.00    +0.000 A 
ATOM      2  N   UNL     1      45.973   3.998   7.270  0.00  0.00    +0.000 NA
ATOM      3  C   UNL     1      45.194   4.208   8.358  0.00  0.00    +0.000 A 
ATOM      4  C   UNL     1      44.854   3.223   9.276  0.00  0.00    +0.000 A 
ATOM      5  C   UNL     1      45.358   1.938   9.051  0.00  0.00    +0.000 A 
ATOM      6  C   UNL     1      46.164   1.683   7.939  0.00  0.00    +0.000 A 
ATOM      7 CL   UNL     1      46.741   0.076   7.707  0.00  0.00    +0.000 Cl
ENDROOT
BRANCH   1   8
ATOM      8  C   UNL     1      47.372   2.569   5.873  0.00  0.00    +0.000 C 
BRANCH   8   9
ATOM      9  N   UNL     1      48.788   2.454   6.232  0.00  0.00    +0.000 NA
ATOM     10  H   UNL     1      48.850   2.062   7.170  0.00  0.00    +0.000 HD
ATOM     11  H   UNL     1      49.168   3.400   6.298  0.00  0.00    +0.000 HD
ENDBRANCH   8   9
ENDBRANCH   1   8
BRANCH   4  12
ATOM     12  C   UNL     1      44.012   3.537  10.481  0.00  0.00    +0.000 C 
BRANCH  12  13
ATOM     13  O   UNL     1      44.295   4.875  10.886  0.00  0.00    +0.000 OA
BRANCH  13  14
ATOM     14  C   UNL     1      45.256   5.044  11.839  0.00  0.00    +0.000 A 
ATOM     15  C   UNL     1      46.256   6.013  11.849  0.00  0.00    +0.000 A 
ATOM     16  C   UNL     1      47.167   6.054  12.907  0.00  0.00    +0.000 A 
ATOM     17  C   UNL     1      47.048   5.120  13.923  0.00  0.00    +0.000 A 
ATOM     18  N   UNL     1      46.097   4.165  13.948  0.00  0.00    +0.000 NA
ATOM     19  C   UNL     1      45.228   4.153  12.906  0.00  0.00    +0.000 A 
ENDBRANCH  13  14
ENDBRANCH  12  13
ENDBRANCH   4  12
TORSDOF 5
ENDMDL
MODEL 2
REMARK VINA RESULT:    -7.213      2.598      5.982
REMARK INTER + INTRA:          -9.537
REMARK INTER:                  -9.449
REMARK INTRA:                  -0.088
REMARK UNBOUND:                -0.426
REMARK  Name = 
REMARK  5 active torsions:
REMARK  status: ('A' for Active; 'I' for Inactive)
REMARK    1  A    between atoms: N_1  and  C_2
REMARK    2  A    between atoms: C_2  and  C_3
REMARK    3  A    between atoms: C_6  and  C_7
REMARK    4  A    between atoms: C_7  and  O_8
REMARK    5  A    between atoms: O_8  and  C_9
REMARK                            x       y       z     vdW  Elec       q    Type
REMARK                         _______ _______ _______ _____ _____    ______ ____
ROOT
ATOM      1  C   UNL     1      46.116   4.508  13.179  0.00  0.00    +0.000 A 
ATOM      2  N   UNL     1      45.402   3.378  12.891  0.00  0.00    +0.000 NA
ATOM      3  C   UNL     1      44.799   3.304  11.682  0.00  0.00    +0.000 A 
ATOM      4  C   UNL     1      44.842   4.311  10.726  0.00  0.00    +0.000 A 
ATOM      5  C   UNL     1      45.562   5.466  11.046  0.00  0.00    +0.000 A 
ATOM      6  C   UNL     1      46.196   5.578  12.285  0.00  0.00    +0.000 A 
ATOM      7 CL   UNL     1      47.053   7.034  12.629  0.00  0.00    +0.000 Cl
ENDROOT
BRANCH   1   8
ATOM      8  C   UNL     1      46.808   4.520  14.526  0.00  0.00    +0.000 C 
BRANCH   8   9
ATOM      9  N   UNL     1      47.538   3.279  14.803  0.00  0.00    +0.000 NA
ATOM     10  H   UNL     1      47.105   2.826  15.606  0.00  0.00    +0.000 HD
ATOM     11  H   UNL     1      48.480   3.536  15.101  0.00  0.00    +0.000 HD
ENDBRANCH   8   9
ENDBRANCH   1   8
BRANCH   4  12
ATOM     12  C   UNL     1      44.176   4.145   9.388  0.00  0.00    +0.000 C 
BRANCH  12  13
ATOM     13  O   UNL     1      45.131   4.451   8.374  0.00  0.00    +0.000 OA
BRANCH  13  14
ATOM     14  C   UNL     1      45.883   3.417   7.898  0.00  0.00    +0.000 A 
ATOM     15  C   UNL     1      46.848   3.483   6.897  0.00  0.00    +0.000 A 
ATOM     16  C   UNL     1      47.537   2.326   6.525  0.00  0.00    +0.000 A 
ATOM     17  C   UNL     1      47.235   1.137   7.168  0.00  0.00    +0.000 A 
ATOM     18  N   UNL     1      46.306   1.032   8.140  0.00  0.00    +0.000 NA
ATOM     19  C   UNL     1      45.656   2.174   8.478  0.00  0.00    +0.000 A 
ENDBRANCH  13  14
ENDBRANCH  12  13
ENDBRANCH   4  12
TORSDOF 5
ENDMDL
MODEL 3
REMARK VINA RESULT:    -6.706      2.657      5.759
REMARK INTER + INTRA:          -8.896
REMARK INTER:                  -8.527
REMARK INTRA:                  -0.369
REMARK UNBOUND:                -0.426
REMARK  Name = 
REMARK  5 active torsions:
REMARK  status: ('A' for Active; 'I' for Inactive)
REMARK    1  A    between atoms: N_1  and  C_2
REMARK    2  A    between atoms: C_2  and  C_3
REMARK    3  A    between atoms: C_6  and  C_7
REMARK    4  A    between atoms: C_7  and  O_8
REMARK    5  A    between atoms: O_8  and  C_9
REMARK                            x       y       z     vdW  Elec       q    Type
REMARK                         _______ _______ _______ _____ _____    ______ ____
ROOT
ATOM      1  C   UNL     1      46.937   6.180  12.681  0.00  0.00    +0.000 A 
ATOM      2  N   UNL     1      46.600   6.651  11.443  0.00  0.00    +0.000 NA
ATOM      3  C   UNL     1      45.723   5.926  10.710  0.00  0.00    +0.000 A 
ATOM      4  C   UNL     1      45.163   4.726  11.127  0.00  0.00    +0.000 A 
ATOM      5  C   UNL     1      45.535   4.251  12.389  0.00  0.00    +0.000 A 
ATOM      6  C   UNL     1      46.438   4.972  13.173  0.00  0.00    +0.000 A 
ATOM      7 CL   UNL     1      46.871   4.327  14.712  0.00  0.00    +0.000 Cl
ENDROOT
BRANCH   1   8
ATOM      8  C   UNL     1      47.886   7.051  13.477  0.00  0.00    +0.000 C 
BRANCH   8   9
ATOM      9  N   UNL     1      49.286   6.635  13.350  0.00  0.00    +0.000 NA
ATOM     10  H   UNL     1      49.702   6.621  14.279  0.00  0.00    +0.000 HD
ATOM     11  H   UNL     1      49.779   7.365  12.833  0.00  0.00    +0.000 HD
ENDBRANCH   8   9
ENDBRANCH   1   8
BRANCH   4  12
ATOM     12  C   UNL     1      44.167   3.991  10.273  0.00  0.00    +0.000 C 
BRANCH  12  13
ATOM     13  O   UNL     1      44.498   4.222   8.905  0.00  0.00    +0.000 OA
BRANCH  13  14
ATOM     14  C   UNL     1      45.396   3.369   8.332  0.00  0.00    +0.000 A 
ATOM     15  C   UNL     1      46.343   3.688   7.362  0.00  0.00    +0.000 A 
ATOM     16  C   UNL     1      47.196   2.693   6.877  0.00  0.00    +0.000 A 
ATOM     17  C   UNL     1      47.071   1.408   7.379  0.00  0.00    +0.000 A 
ATOM     18  N   UNL     1      46.165   1.060   8.315  0.00  0.00    +0.000 NA
ATOM     19  C   UNL     1      45.353   2.049   8.766  0.00  0.00    +0.000 A 
ENDBRANCH  13  14
ENDBRANCH  12  13
ENDBRANCH   4  12
TORSDOF 5
ENDMDL
MODEL 4
REMARK VINA RESULT:    -6.496      2.691      6.093
REMARK INTER + INTRA:          -8.631
REMARK INTER:                  -8.237
REMARK INTRA:                  -0.394
REMARK UNBOUND:                -0.426
REMARK  Name = 
REMARK  5 active torsions:
REMARK  status: ('A' for Active; 'I' for Inactive)
REMARK    1  A    between atoms: N_1  and  C_2
REMARK    2  A    between atoms: C_2  and  C_3
REMARK    3  A    between atoms: C_6  and  C_7
REMARK    4  A    between atoms: C_7  and  O_8
REMARK    5  A    between atoms: O_8  and  C_9
REMARK                            x       y       z     vdW  Elec       q    Type
REMARK                         _______ _______ _______ _____ _____    ______ ____
ROOT
ATOM      1  C   UNL     1      44.438   5.376  11.951  0.00  0.00    +0.000 A 
ATOM      2  N   UNL     1      43.652   5.422  10.833  0.00  0.00    +0.000 NA
ATOM      3  C   UNL     1      43.693   4.364   9.990  0.00  0.00    +0.000 A 
ATOM      4  C   UNL     1      44.496   3.247  10.179  0.00  0.00    +0.000 A 
ATOM      5  C   UNL     1      45.307   3.227  11.318  0.00  0.00    +0.000 A 
ATOM      6  C   UNL     1      45.292   4.302  12.210  0.00  0.00    +0.000 A 
ATOM      7 CL   UNL     1      46.326   4.226  13.588  0.00  0.00    +0.000 Cl
ENDROOT
BRANCH   1   8
ATOM      8  C   UNL     1      44.322   6.564  12.883  0.00  0.00    +0.000 C 
BRANCH   8   9
ATOM      9  N   UNL     1      45.137   7.705  12.457  0.00  0.00    +0.000 NA
ATOM     10  H   UNL     1      45.656   8.048  13.264  0.00  0.00    +0.000 HD
ATOM     11  H   UNL     1      44.500   8.458  12.193  0.00  0.00    +0.000 HD
ENDBRANCH   8   9
ENDBRANCH   1   8
BRANCH   4  12
ATOM     12  C   UNL     1      44.464   2.092   9.217  0.00  0.00    +0.000 C 
BRANCH  12  13
ATOM     13  O   UNL     1      45.805   1.671   8.980  0.00  0.00    +0.000 OA
BRANCH  13  14
ATOM     14  C   UNL     1      46.370   2.039   7.794  0.00  0.00    +0.000 A 
ATOM     15  C   UNL     1      46.039   3.151   7.025  0.00  0.00    +0.000 A 
ATOM     16  C   UNL     1      46.719   3.391   5.829  0.00  0.00    +0.000 A 
ATOM     17  C   UNL     1      47.710   2.505   5.439  0.00  0.00    +0.000 A 
ATOM     18  N   UNL     1      48.057   1.415   6.153  0.00  0.00    +0.000 NA
ATOM     19  C   UNL     1      47.379   1.213   7.311  0.00  0.00    +0.000 A 
ENDBRANCH  13  14
ENDBRANCH  12  13
ENDBRANCH   4  12
TORSDOF 5
ENDMDL
MODEL 5
REMARK VINA RESULT:    -6.473      1.929      2.280
REMARK INTER + INTRA:          -8.601
REMARK INTER:                  -8.180
REMARK INTRA:                  -0.421
REMARK UNBOUND:                -0.426
REMARK  Name = 
REMARK  5 active torsions:
REMARK  status: ('A' for Active; 'I' for Inactive)
REMARK    1  A    between atoms: N_1  and  C_2
REMARK    2  A    between atoms: C_2  and  C_3
REMARK    3  A    between atoms: C_6  and  C_7
REMARK    4  A    between atoms: C_7  and  O_8
REMARK    5  A    between atoms: O_8  and  C_9
REMARK                            x       y       z     vdW  Elec       q    Type
REMARK                         _______ _______ _______ _____ _____    ______ ____
ROOT
ATOM      1  C   UNL     1      46.268   1.841   7.880  0.00  0.00    +0.000 A 
ATOM      2  N   UNL     1      45.645   1.450   9.032  0.00  0.00    +0.000 NA
ATOM      3  C   UNL     1      44.861   2.355   9.664  0.00  0.00    +0.000 A 
ATOM      4  C   UNL     1      44.667   3.658   9.226  0.00  0.00    +0.000 A 
ATOM      5  C   UNL     1      45.328   4.046   8.056  0.00  0.00    +0.000 A 
ATOM      6  C   UNL     1      46.146   3.139   7.378  0.00  0.00    +0.000 A 
ATOM      7 CL   UNL     1      46.947   3.680   5.951  0.00  0.00    +0.000 Cl
ENDROOT
BRANCH   1   8
ATOM      8  C   UNL     1      47.096   0.778   7.190  0.00  0.00    +0.000 C 
BRANCH   8   9
ATOM      9  N   UNL     1      46.821  -0.573   7.689  0.00  0.00    +0.000 NA
ATOM     10  H   UNL     1      46.427  -0.494   8.626  0.00  0.00    +0.000 HD
ATOM     11  H   UNL     1      47.718  -1.048   7.802  0.00  0.00    +0.000 HD
ENDBRANCH   8   9
ENDBRANCH   1   8
BRANCH   4  12
ATOM     12  C   UNL     1      43.753   4.599   9.961  0.00  0.00    +0.000 C 
BRANCH  12  13
ATOM     13  O   UNL     1      43.886   4.350  11.359  0.00  0.00    +0.000 OA
BRANCH  13  14
ATOM     14  C   UNL     1      44.903   4.986  12.008  0.00  0.00    +0.000 A 
ATOM     15  C   UNL     1      45.840   4.404  12.858  0.00  0.00    +0.000 A 
ATOM     16  C   UNL     1      46.826   5.199  13.446  0.00  0.00    +0.000 A 
ATOM     17  C   UNL     1      46.842   6.555  13.165  0.00  0.00    +0.000 A 
ATOM     18  N   UNL     1      45.951   7.156  12.351  0.00  0.00    +0.000 NA
ATOM     19  C   UNL     1      45.007   6.356  11.795  0.00  0.00    +0.000 A 
ENDBRANCH  13  14
ENDBRANCH  12  13
ENDBRANCH   4  12
TORSDOF 5
ENDMDL
MODEL 6
REMARK VINA RESULT:    -6.465      2.963      6.191
REMARK INTER + INTRA:          -8.592
REMARK INTER:                  -8.170
REMARK INTRA:                  -0.422
REMARK UNBOUND:                -0.426
REMARK  Name = 
REMARK  5 active torsions:
REMARK  status: ('A' for Active; 'I' for Inactive)
REMARK    1  A    between atoms: N_1  and  C_2
REMARK    2  A    between atoms: C_2  and  C_3
REMARK    3  A    between atoms: C_6  and  C_7
REMARK    4  A    between atoms: C_7  and  O_8
REMARK    5  A    between atoms: O_8  and  C_9
REMARK                            x       y       z     vdW  Elec       q    Type
REMARK                         _______ _______ _______ _____ _____    ______ ____
ROOT
ATOM      1  C   UNL     1      45.408   7.329  12.410  0.00  0.00    +0.000 A 
ATOM      2  N   UNL     1      44.270   7.160  11.672  0.00  0.00    +0.000 NA
ATOM      3  C   UNL     1      43.915   5.895  11.342  0.00  0.00    +0.000 A 
ATOM      4  C   UNL     1      44.644   4.765  11.688  0.00  0.00    +0.000 A 
ATOM      5  C   UNL     1      45.815   4.961  12.427  0.00  0.00    +0.000 A 
ATOM      6  C   UNL     1      46.213   6.251  12.784  0.00  0.00    +0.000 A 
ATOM      7 CL   UNL     1      47.675   6.430  13.681  0.00  0.00    +0.000 Cl
ENDROOT
BRANCH   1   8
ATOM      8  C   UNL     1      45.735   8.758  12.790  0.00  0.00    +0.000 C 
BRANCH   8   9
ATOM      9  N   UNL     1      44.582   9.656  12.676  0.00  0.00    +0.000 NA
ATOM     10  H   UNL     1      44.020   9.566  13.522  0.00  0.00    +0.000 HD
ATOM     11  H   UNL     1      43.997   9.312  11.913  0.00  0.00    +0.000 HD
ENDBRANCH   8   9
ENDBRANCH   1   8
BRANCH   4  12
ATOM     12  C   UNL     1      44.170   3.388  11.316  0.00  0.00    +0.000 C 
BRANCH  12  13
ATOM     13  O   UNL     1      43.821   3.394   9.933  0.00  0.00    +0.000 OA
BRANCH  13  14
ATOM     14  C   UNL     1      44.808   3.086   9.043  0.00  0.00    +0.000 A 
ATOM     15  C   UNL     1      45.406   1.842   8.863  0.00  0.00    +0.000 A 
ATOM     16  C   UNL     1      46.407   1.690   7.900  0.00  0.00    +0.000 A 
ATOM     17  C   UNL     1      46.779   2.793   7.149  0.00  0.00    +0.000 A 
ATOM     18  N   UNL     1      46.227   4.015   7.296  0.00  0.00    +0.000 NA
ATOM     19  C   UNL     1      45.257   4.127   8.238  0.00  0.00    +0.000 A 
ENDBRANCH  13  14
ENDBRANCH  12  13
ENDBRANCH   4  12
TORSDOF 5
ENDMDL
MODEL 7
REMARK VINA RESULT:    -6.193      3.027      6.197
REMARK INTER + INTRA:          -8.248
REMARK INTER:                  -7.725
REMARK INTRA:                  -0.523
REMARK UNBOUND:                -0.426
REMARK  Name = 
REMARK  5 active torsions:
REMARK  status: ('A' for Active; 'I' for Inactive)
REMARK    1  A    between atoms: N_1  and  C_2
REMARK    2  A    between atoms: C_2  and  C_3
REMARK    3  A    between atoms: C_6  and  C_7
REMARK    4  A    between atoms: C_7  and  O_8
REMARK    5  A    between atoms: O_8  and  C_9
REMARK                            x       y       z     vdW  Elec       q    Type
REMARK                         _______ _______ _______ _____ _____    ______ ____
ROOT
ATOM      1  C   UNL     1      46.301   7.208  12.557  0.00  0.00    +0.000 A 
ATOM      2  N   UNL     1      46.630   5.922  12.885  0.00  0.00    +0.000 NA
ATOM      3  C   UNL     1      45.804   4.935  12.467  0.00  0.00    +0.000 A 
ATOM      4  C   UNL     1      44.636   5.147  11.747  0.00  0.00    +0.000 A 
ATOM      5  C   UNL     1      44.307   6.471  11.438  0.00  0.00    +0.000 A 
ATOM      6  C   UNL     1      45.135   7.516  11.853  0.00  0.00    +0.000 A 
ATOM      7 CL   UNL     1      44.668   9.127  11.457  0.00  0.00    +0.000 Cl
ENDROOT
BRANCH   1   8
ATOM      8  C   UNL     1      47.282   8.270  13.009  0.00  0.00    +0.000 C 
BRANCH   8   9
ATOM      9  N   UNL     1      46.886   8.913  14.265  0.00  0.00    +0.000 NA
ATOM     10  H   UNL     1      46.320   8.255  14.798  0.00  0.00    +0.000 HD
ATOM     11  H   UNL     1      46.266   9.691  14.032  0.00  0.00    +0.000 HD
ENDBRANCH   8   9
ENDBRANCH   1   8
BRANCH   4  12
ATOM     12  C   UNL     1      43.784   3.997  11.286  0.00  0.00    +0.000 C 
BRANCH  12  13
ATOM     13  O   UNL     1      43.642   4.087   9.870  0.00  0.00    +0.000 OA
BRANCH  13  14
ATOM     14  C   UNL     1      44.625   3.522   9.111  0.00  0.00    +0.000 A 
ATOM     15  C   UNL     1      45.422   4.166   8.169  0.00  0.00    +0.000 A 
ATOM     16  C   UNL     1      46.392   3.441   7.474  0.00  0.00    +0.000 A 
ATOM     17  C   UNL     1      46.532   2.089   7.744  0.00  0.00    +0.000 A 
ATOM     18  N   UNL     1      45.778   1.429   8.646  0.00  0.00    +0.000 NA
ATOM     19  C   UNL     1      44.846   2.163   9.304  0.00  0.00    +0.000 A 
ENDBRANCH  13  14
ENDBRANCH  12  13
ENDBRANCH   4  12
TORSDOF 5
ENDMDL
MODEL 8
REMARK VINA RESULT:    -5.808      2.710      6.131
REMARK INTER + INTRA:          -7.762
REMARK INTER:                  -7.373
REMARK INTRA:                  -0.389
REMARK UNBOUND:                -0.426
REMARK  Name = 
REMARK  5 active torsions:
REMARK  status: ('A' for Active; 'I' for Inactive)
REMARK    1  A    between atoms: N_1  and  C_2
REMARK    2  A    between atoms: C_2  and  C_3
REMARK    3  A    between atoms: C_6  and  C_7
REMARK    4  A    between atoms: C_7  and  O_8
REMARK    5  A    between atoms: O_8  and  C_9
REMARK                            x       y       z     vdW  Elec       q    Type
REMARK                         _______ _______ _______ _____ _____    ______ ____
ROOT
ATOM      1  C   UNL     1      47.488   6.150  13.750  0.00  0.00    +0.000 A 
ATOM      2  N   UNL     1      47.079   6.695  12.565  0.00  0.00    +0.000 NA
ATOM      3  C   UNL     1      46.071   6.080  11.904  0.00  0.00    +0.000 A 
ATOM      4  C   UNL     1      45.442   4.922  12.343  0.00  0.00    +0.000 A 
ATOM      5  C   UNL     1      45.887   4.370  13.548  0.00  0.00    +0.000 A 
ATOM      6  C   UNL     1      46.926   4.976  14.257  0.00  0.00    +0.000 A 
ATOM      7 CL   UNL     1      47.442   4.238  15.727  0.00  0.00    +0.000 Cl
ENDROOT
BRANCH   1   8
ATOM      8  C   UNL     1      48.588   6.900  14.472  0.00  0.00    +0.000 C 
BRANCH   8   9
ATOM      9  N   UNL     1      49.830   6.975  13.697  0.00  0.00    +0.000 NA
ATOM     10  H   UNL     1      50.578   7.277  14.319  0.00  0.00    +0.000 HD
ATOM     11  H   UNL     1      49.719   7.722  13.009  0.00  0.00    +0.000 HD
ENDBRANCH   8   9
ENDBRANCH   1   8
BRANCH   4  12
ATOM     12  C   UNL     1      44.303   4.314  11.572  0.00  0.00    +0.000 C 
BRANCH  12  13
ATOM     13  O   UNL     1      44.395   4.754  10.219  0.00  0.00    +0.000 OA
BRANCH  13  14
ATOM     14  C   UNL     1      45.036   3.930   9.341  0.00  0.00    +0.000 A 
ATOM     15  C   UNL     1      45.080   2.539   9.387  0.00  0.00    +0.000 A 
ATOM     16  C   UNL     1      45.783   1.838   8.404  0.00  0.00    +0.000 A 
ATOM     17  C   UNL     1      46.421   2.554   7.405  0.00  0.00    +0.000 A 
ATOM     18  N   UNL     1      46.404   3.900   7.327  0.00  0.00    +0.000 NA
ATOM     19  C   UNL     1      45.712   4.551   8.297  0.00  0.00    +0.000 A 
ENDBRANCH  13  14
ENDBRANCH  12  13
ENDBRANCH   4  12
TORSDOF 5
ENDMDL
MODEL 9
REMARK VINA RESULT:    -5.569      4.461      5.806
REMARK INTER + INTRA:          -7.460
REMARK INTER:                  -7.131
REMARK INTRA:                  -0.328
REMARK UNBOUND:                -0.426
REMARK  Name = 
REMARK  5 active torsions:
REMARK  status: ('A' for Active; 'I' for Inactive)
REMARK    1  A    between atoms: N_1  and  C_2
REMARK    2  A    between atoms: C_2  and  C_3
REMARK    3  A    between atoms: C_6  and  C_7
REMARK    4  A    between atoms: C_7  and  O_8
REMARK    5  A    between atoms: O_8  and  C_9
REMARK                            x       y       z     vdW  Elec       q    Type
REMARK                         _______ _______ _______ _____ _____    ______ ____
ROOT
ATOM      1  C   UNL     1      43.845   5.302  12.107  0.00  0.00    +0.000 A 
ATOM      2  N   UNL     1      44.638   6.276  12.648  0.00  0.00    +0.000 NA
ATOM      3  C   UNL     1      45.820   5.899  13.188  0.00  0.00    +0.000 A 
ATOM      4  C   UNL     1      46.268   4.585  13.245  0.00  0.00    +0.000 A 
ATOM      5  C   UNL     1      45.434   3.601  12.704  0.00  0.00    +0.000 A 
ATOM      6  C   UNL     1      44.206   3.953  12.139  0.00  0.00    +0.000 A 
ATOM      7 CL   UNL     1      43.215   2.694  11.504  0.00  0.00    +0.000 Cl
ENDROOT
BRANCH   1   8
ATOM      8  C   UNL     1      42.555   5.783  11.477  0.00  0.00    +0.000 C 
BRANCH   8   9
ATOM      9  N   UNL     1      42.567   7.218  11.177  0.00  0.00    +0.000 NA
ATOM     10  H   UNL     1      42.242   7.349  10.221  0.00  0.00    +0.000 HD
ATOM     11  H   UNL     1      43.541   7.527  11.187  0.00  0.00    +0.000 HD
ENDBRANCH   8   9
ENDBRANCH   1   8
BRANCH   4  12
ATOM     12  C   UNL     1      47.610   4.244  13.829  0.00  0.00    +0.000 C 
BRANCH  12  13
ATOM     13  O   UNL     1      47.445   3.130  14.705  0.00  0.00    +0.000 OA
BRANCH  13  14
ATOM     14  C   UNL     1      47.905   3.272  15.981  0.00  0.00    +0.000 A 
ATOM     15  C   UNL     1      48.938   2.553  16.578  0.00  0.00    +0.000 A 
ATOM     16  C   UNL     1      49.291   2.823  17.902  0.00  0.00    +0.000 A 
ATOM     17  C   UNL     1      48.595   3.804  18.589  0.00  0.00    +0.000 A 
ATOM     18  N   UNL     1      47.588   4.519  18.048  0.00  0.00    +0.000 NA
ATOM     19  C   UNL     1      47.271   4.233  16.760  0.00  0.00    +0.000 A 
ENDBRANCH  13  14
ENDBRANCH  12  13
ENDBRANCH   4  12
TORSDOF 5
ENDMDL
