MODEL 1
REMARK VINA RESULT:    -7.962      0.000      0.000
REMARK INTER + INTRA:         -10.330
REMARK INTER:                  -9.824
REMARK INTRA:                  -0.506
REMARK UNBOUND:                -0.506
REMARK  Name = 
REMARK  4 active torsions:
REMARK  status: ('A' for Active; 'I' for Inactive)
REMARK    1  A    between atoms: C_2  and  C_4
REMARK    2  A    between atoms: N_8  and  C_9
REMARK    3  A    between atoms: C_9  and  C_10
REMARK    4  A    between atoms: C_10  and  C_11
REMARK                            x       y       z     vdW  Elec       q    Type
REMARK                         _______ _______ _______ _____ _____    ______ ____
ROOT
ATOM      1  C   UNL     1      46.235   2.117   7.991  0.00  0.00    +0.000 A 
ATOM      2  C   UNL     1      46.367   3.479   7.748  0.00  0.00    +0.000 A 
ATOM      3  C   UNL     1      45.502   4.369   8.390  0.00  0.00    +0.000 A 
ATOM      4  C   UNL     1      44.561   3.889   9.303  0.00  0.00    +0.000 A 
ATOM      5  N   UNL     1      43.708   4.815   9.930  0.00  0.00    +0.000 N 
ATOM      6  N   UNL     1      44.411   2.567   9.520  0.00  0.00    +0.000 NA
ATOM      7  C   UNL     1      45.226   1.710   8.852  0.00  0.00    +0.000 A 
ATOM      8  H   UNL     1      44.201   5.692  10.070  0.00  0.00    +0.000 HD
ENDROOT
BRANCH   1  10
ATOM      9  N   UNL     1      46.837  -0.213   7.662  0.00  0.00    +0.000 N 
ATOM     10  C   UNL     1      47.097   1.096   7.362  0.00  0.00    +0.000 C 
ATOM     11  O   UNL     1      47.979   1.401   6.572  0.00  0.00    +0.000 OA
ATOM     12  H   UNL     1      47.359  -0.903   7.135  0.00  0.00    +0.000 HD
ATOM     13  H   UNL     1      45.969  -0.511   8.085  0.00  0.00    +0.000 HD
ENDBRANCH   1  10
BRANCH   5  14
ATOM     14  C   UNL     1      43.133   4.325  11.191  0.00  0.00    +0.000 C 
BRANCH  14  15
ATOM     15  C   UNL     1      43.284   5.406  12.270  0.00  0.00    +0.000 C 
BRANCH  15  16
ATOM     16  C   UNL     1      44.711   5.605  12.721  0.00  0.00    +0.000 A 
ATOM     17  C   UNL     1      45.433   4.554  13.302  0.00  0.00    +0.000 A 
ATOM     18  C   UNL     1      46.762   4.739  13.692  0.00  0.00    +0.000 A 
ATOM     19  C   UNL     1      47.378   5.977  13.511  0.00  0.00    +0.000 A 
ATOM     20  C   UNL     1      46.664   7.030  12.948  0.00  0.00    +0.000 A 
ATOM     21  C   UNL     1      45.336   6.850  12.557  0.00  0.00    +0.000 A 
ENDBRANCH  15  16
ENDBRANCH  14  15
ENDBRANCH   5  14
TORSDOF 4
ENDMDL
MODEL 2
REMARK VINA RESULT:    -7.723      1.223      1.629
REMARK INTER + INTRA:         -10.035
REMARK INTER:                  -9.546
REMARK INTRA:                  -0.490
REMARK UNBOUND:                -0.506
REMARK  Name = 
REMARK  4 active torsions:
REMARK  status: ('A' for Active; 'I' for Inactive)
REMARK    1  A    between atoms: C_2  and  C_4
REMARK    2  A    between atoms: N_8  and  C_9
REMARK    3  A    between atoms: C_9  and  C_10
REMARK    4  A    between atoms: C_10  and  C_11
REMARK                            x       y       z     vdW  Elec       q    Type
REMARK                         _______ _______ _______ _____ _____    ______ ____
ROOT
ATOM      1  C   UNL     1      46.438   2.612   7.644  0.00  0.00    +0.000 A 
ATOM      2  C   UNL     1      46.055   3.947   7.678  0.00  0.00    +0.000 A 
ATOM      3  C   UNL     1      45.091   4.352   8.605  0.00  0.00    +0.000 A 
ATOM      4  C   UNL     1      44.570   3.430   9.515  0.00  0.00    +0.000 A 
ATOM      5  N   UNL     1      43.601   3.876  10.433  0.00  0.00    +0.000 N 
ATOM      6  N   UNL     1      44.917   2.129   9.467  0.00  0.00    +0.000 NA
ATOM      7  C   UNL     1      45.819   1.740   8.529  0.00  0.00    +0.000 A 
ATOM      8  H   UNL     1      43.790   4.841  10.687  0.00  0.00    +0.000 HD
ENDROOT
BRANCH   1  10
ATOM      9  N   UNL     1      47.846   2.907   5.687  0.00  0.00    +0.000 N 
ATOM     10  C   UNL     1      47.445   2.083   6.702  0.00  0.00    +0.000 C 
ATOM     11  O   UNL     1      47.935   0.972   6.846  0.00  0.00    +0.000 OA
ATOM     12  H   UNL     1      48.618   2.574   5.122  0.00  0.00    +0.000 HD
ATOM     13  H   UNL     1      47.671   3.902   5.695  0.00  0.00    +0.000 HD
ENDBRANCH   1  10
BRANCH   5  14
ATOM     14  C   UNL     1      43.490   3.027  11.628  0.00  0.00    +0.000 C 
BRANCH  14  15
ATOM     15  C   UNL     1      43.504   3.913  12.881  0.00  0.00    +0.000 C 
BRANCH  15  16
ATOM     16  C   UNL     1      44.717   4.807  12.968  0.00  0.00    +0.000 A 
ATOM     17  C   UNL     1      44.602   6.192  12.795  0.00  0.00    +0.000 A 
ATOM     18  C   UNL     1      45.726   7.016  12.903  0.00  0.00    +0.000 A 
ATOM     19  C   UNL     1      46.975   6.460  13.177  0.00  0.00    +0.000 A 
ATOM     20  C   UNL     1      47.102   5.084  13.336  0.00  0.00    +0.000 A 
ATOM     21  C   UNL     1      45.982   4.258  13.229  0.00  0.00    +0.000 A 
ENDBRANCH  15  16
ENDBRANCH  14  15
ENDBRANCH   5  14
TORSDOF 4
ENDMDL
MODEL 3
REMARK VINA RESULT:    -7.397      1.434      2.023
REMARK INTER + INTRA:          -9.633
REMARK INTER:                  -9.129
REMARK INTRA:                  -0.504
REMARK UNBOUND:                -0.506
REMARK  Name = 
REMARK  4 active torsions:
REMARK  status: ('A' for Active; 'I' for Inactive)
REMARK    1  A    between atoms: C_2  and  C_4
REMARK    2  A    between atoms: N_8  and  C_9
REMARK    3  A    between atoms: C_9  and  C_10
REMARK    4  A    between atoms: C_10  and  C_11
REMARK                            x       y       z     vdW  Elec       q    Type
REMARK                         _______ _______ _______ _____ _____    ______ ____
ROOT
ATOM      1  C   UNL     1      46.615   2.576   7.347  0.00  0.00    +0.000 A 
ATOM      2  C   UNL     1      46.071   1.543   8.102  0.00  0.00    +0.000 A 
ATOM      3  C   UNL     1      45.248   1.857   9.186  0.00  0.00    +0.000 A 
ATOM      4  C   UNL     1      44.938   3.190   9.461  0.00  0.00    +0.000 A 
ATOM      5  N   UNL     1      44.105   3.467  10.561  0.00  0.00    +0.000 N 
ATOM      6  N   UNL     1      45.485   4.195   8.750  0.00  0.00    +0.000 NA
ATOM      7  C   UNL     1      46.323   3.877   7.729  0.00  0.00    +0.000 A 
ATOM      8  H   UNL     1      43.428   2.719  10.673  0.00  0.00    +0.000 HD
ENDROOT
BRANCH   1  10
ATOM      9  N   UNL     1      47.383   3.217   5.133  0.00  0.00    +0.000 N 
ATOM     10  C   UNL     1      47.498   2.350   6.184  0.00  0.00    +0.000 C 
ATOM     11  O   UNL     1      48.328   1.453   6.177  0.00  0.00    +0.000 OA
ATOM     12  H   UNL     1      48.072   3.119   4.397  0.00  0.00    +0.000 HD
ATOM     13  H   UNL     1      46.912   4.108   5.213  0.00  0.00    +0.000 HD
ENDBRANCH   1  10
BRANCH   5  14
ATOM     14  C   UNL     1      43.439   4.775  10.479  0.00  0.00    +0.000 C 
BRANCH  14  15
ATOM     15  C   UNL     1      43.625   5.521  11.808  0.00  0.00    +0.000 C 
BRANCH  15  16
ATOM     16  C   UNL     1      45.073   5.756  12.164  0.00  0.00    +0.000 A 
ATOM     17  C   UNL     1      45.879   6.586  11.374  0.00  0.00    +0.000 A 
ATOM     18  C   UNL     1      47.212   6.820  11.725  0.00  0.00    +0.000 A 
ATOM     19  C   UNL     1      47.750   6.222  12.864  0.00  0.00    +0.000 A 
ATOM     20  C   UNL     1      46.960   5.385  13.646  0.00  0.00    +0.000 A 
ATOM     21  C   UNL     1      45.629   5.148  13.299  0.00  0.00    +0.000 A 
ENDBRANCH  15  16
ENDBRANCH  14  15
ENDBRANCH   5  14
TORSDOF 4
ENDMDL
MODEL 4
REMARK VINA RESULT:    -7.254      2.915      6.488
REMARK INTER + INTRA:          -9.456
REMARK INTER:                  -9.081
REMARK INTRA:                  -0.375
REMARK UNBOUND:                -0.506
REMARK  Name = 
REMARK  4 active torsions:
REMARK  status: ('A' for Active; 'I' for Inactive)
REMARK    1  A    between atoms: C_2  and  C_4
REMARK    2  A    between atoms: N_8  and  C_9
REMARK    3  A    between atoms: C_9  and  C_10
REMARK    4  A    between atoms: C_10  and  C_11
REMARK                            x       y       z     vdW  Elec       q    Type
REMARK                         _______ _______ _______ _____ _____    ______ ____
ROOT
ATOM      1  C   UNL     1      46.697   6.683  12.920  0.00  0.00    +0.000 A 
ATOM      2  C   UNL     1      46.875   5.454  13.545  0.00  0.00    +0.000 A 
ATOM      3  C   UNL     1      46.161   4.348  13.079  0.00  0.00    +0.000 A 
ATOM      4  C   UNL     1      45.327   4.476  11.966  0.00  0.00    +0.000 A 
ATOM      5  N   UNL     1      44.624   3.339  11.526  0.00  0.00    +0.000 N 
ATOM      6  N   UNL     1      45.129   5.671  11.375  0.00  0.00    +0.000 NA
ATOM      7  C   UNL     1      45.794   6.749  11.869  0.00  0.00    +0.000 A 
ATOM      8  H   UNL     1      45.182   2.508  11.692  0.00  0.00    +0.000 HD
ENDROOT
BRANCH   1  10
ATOM      9  N   UNL     1      46.663   8.875  13.967  0.00  0.00    +0.000 N 
ATOM     10  C   UNL     1      47.403   7.912  13.337  0.00  0.00    +0.000 C 
ATOM     11  O   UNL     1      48.606   8.048  13.167  0.00  0.00    +0.000 OA
ATOM     12  H   UNL     1      47.182   9.657  14.348  0.00  0.00    +0.000 HD
ATOM     13  H   UNL     1      45.750   8.689  14.358  0.00  0.00    +0.000 HD
ENDBRANCH   1  10
BRANCH   5  14
ATOM     14  C   UNL     1      44.199   3.419  10.121  0.00  0.00    +0.000 C 
BRANCH  14  15
ATOM     15  C   UNL     1      44.570   2.113   9.405  0.00  0.00    +0.000 C 
BRANCH  15  16
ATOM     16  C   UNL     1      45.647   2.288   8.362  0.00  0.00    +0.000 A 
ATOM     17  C   UNL     1      46.473   1.218   7.997  0.00  0.00    +0.000 A 
ATOM     18  C   UNL     1      47.451   1.381   7.011  0.00  0.00    +0.000 A 
ATOM     19  C   UNL     1      47.614   2.618   6.388  0.00  0.00    +0.000 A 
ATOM     20  C   UNL     1      46.808   3.691   6.755  0.00  0.00    +0.000 A 
ATOM     21  C   UNL     1      45.831   3.532   7.739  0.00  0.00    +0.000 A 
ENDBRANCH  15  16
ENDBRANCH  14  15
ENDBRANCH   5  14
TORSDOF 4
ENDMDL
MODEL 5
REMARK VINA RESULT:    -7.209      3.175      6.376
REMARK INTER + INTRA:          -9.400
REMARK INTER:                  -9.033
REMARK INTRA:                  -0.367
REMARK UNBOUND:                -0.506
REMARK  Name = 
REMARK  4 active torsions:
REMARK  status: ('A' for Active; 'I' for Inactive)
REMARK    1  A    between atoms: C_2  and  C_4
REMARK    2  A    between atoms: N_8  and  C_9
REMARK    3  A    between atoms: C_9  and  C_10
REMARK    4  A    between atoms: C_10  and  C_11
REMARK                            x       y       z     vdW  Elec       q    Type
REMARK                         _______ _______ _______ _____ _____    ______ ____
ROOT
ATOM      1  C   UNL     1      46.670   4.814  14.066  0.00  0.00    +0.000 A 
ATOM      2  C   UNL     1      46.543   6.084  13.515  0.00  0.00    +0.000 A 
ATOM      3  C   UNL     1      46.051   6.212  12.213  0.00  0.00    +0.000 A 
ATOM      4  C   UNL     1      45.642   5.077  11.509  0.00  0.00    +0.000 A 
ATOM      5  N   UNL     1      45.151   5.246  10.202  0.00  0.00    +0.000 N 
ATOM      6  N   UNL     1      45.789   3.843  12.029  0.00  0.00    +0.000 NA
ATOM      7  C   UNL     1      46.315   3.730  13.277  0.00  0.00    +0.000 A 
ATOM      8  H   UNL     1      44.660   6.132  10.133  0.00  0.00    +0.000 HD
ENDROOT
BRANCH   1  10
ATOM      9  N   UNL     1      48.023   5.512  15.958  0.00  0.00    +0.000 N 
ATOM     10  C   UNL     1      47.181   4.572  15.430  0.00  0.00    +0.000 C 
ATOM     11  O   UNL     1      46.835   3.596  16.079  0.00  0.00    +0.000 OA
ATOM     12  H   UNL     1      48.271   5.390  16.933  0.00  0.00    +0.000 HD
ATOM     13  H   UNL     1      48.114   6.440  15.569  0.00  0.00    +0.000 HD
ENDBRANCH   1  10
BRANCH   5  14
ATOM     14  C   UNL     1      44.303   4.136   9.745  0.00  0.00    +0.000 C 
BRANCH  14  15
ATOM     15  C   UNL     1      44.417   4.006   8.220  0.00  0.00    +0.000 C 
BRANCH  15  16
ATOM     16  C   UNL     1      45.533   3.088   7.780  0.00  0.00    +0.000 A 
ATOM     17  C   UNL     1      45.700   1.829   8.371  0.00  0.00    +0.000 A 
ATOM     18  C   UNL     1      46.719   0.974   7.940  0.00  0.00    +0.000 A 
ATOM     19  C   UNL     1      47.582   1.375   6.921  0.00  0.00    +0.000 A 
ATOM     20  C   UNL     1      47.433   2.630   6.339  0.00  0.00    +0.000 A 
ATOM     21  C   UNL     1      46.417   3.486   6.766  0.00  0.00    +0.000 A 
ENDBRANCH  15  16
ENDBRANCH  14  15
ENDBRANCH   5  14
TORSDOF 4
ENDMDL
MODEL 6
REMARK VINA RESULT:    -6.957      3.389      6.795
REMARK INTER + INTRA:          -9.089
REMARK INTER:                  -8.791
REMARK INTRA:                  -0.298
REMARK UNBOUND:                -0.506
REMARK  Name = 
REMARK  4 active torsions:
REMARK  status: ('A' for Active; 'I' for Inactive)
REMARK    1  A    between atoms: C_2  and  C_4
REMARK    2  A    between atoms: N_8  and  C_9
REMARK    3  A    between atoms: C_9  and  C_10
REMARK    4  A    between atoms: C_10  and  C_11
REMARK                            x       y       z     vdW  Elec       q    Type
REMARK                         _______ _______ _______ _____ _____    ______ ____
ROOT
ATOM      1  C   UNL     1      45.346   8.340  11.934  0.00  0.00    +0.000 A 
ATOM      2  C   UNL     1      46.492   7.570  12.101  0.00  0.00    +0.000 A 
ATOM      3  C   UNL     1      46.436   6.202  11.823  0.00  0.00    +0.000 A 
ATOM      4  C   UNL     1      45.256   5.640  11.330  0.00  0.00    +0.000 A 
ATOM      5  N   UNL     1      45.239   4.260  11.061  0.00  0.00    +0.000 N 
ATOM      6  N   UNL     1      44.136   6.376  11.194  0.00  0.00    +0.000 NA
ATOM      7  C   UNL     1      44.192   7.695  11.515  0.00  0.00    +0.000 A 
ATOM      8  H   UNL     1      46.155   3.963  10.741  0.00  0.00    +0.000 HD
ENDROOT
BRANCH   1  10
ATOM      9  N   UNL     1      46.492  10.422  12.436  0.00  0.00    +0.000 N 
ATOM     10  C   UNL     1      45.301   9.791  12.204  0.00  0.00    +0.000 C 
ATOM     11  O   UNL     1      44.249  10.414  12.178  0.00  0.00    +0.000 OA
ATOM     12  H   UNL     1      46.455  11.432  12.503  0.00  0.00    +0.000 HD
ATOM     13  H   UNL     1      47.382  10.005  12.203  0.00  0.00    +0.000 HD
ENDBRANCH   1  10
BRANCH   5  14
ATOM     14  C   UNL     1      44.192   3.860  10.109  0.00  0.00    +0.000 C 
BRANCH  14  15
ATOM     15  C   UNL     1      44.642   4.211   8.684  0.00  0.00    +0.000 C 
BRANCH  15  16
ATOM     16  C   UNL     1      45.640   3.231   8.114  0.00  0.00    +0.000 A 
ATOM     17  C   UNL     1      45.600   1.878   8.472  0.00  0.00    +0.000 A 
ATOM     18  C   UNL     1      46.510   0.972   7.920  0.00  0.00    +0.000 A 
ATOM     19  C   UNL     1      47.471   1.414   7.011  0.00  0.00    +0.000 A 
ATOM     20  C   UNL     1      47.528   2.760   6.662  0.00  0.00    +0.000 A 
ATOM     21  C   UNL     1      46.620   3.668   7.211  0.00  0.00    +0.000 A 
ENDBRANCH  15  16
ENDBRANCH  14  15
ENDBRANCH   5  14
TORSDOF 4
ENDMDL
MODEL 7
REMARK VINA RESULT:    -6.333      3.998      5.545
REMARK INTER + INTRA:          -8.319
REMARK INTER:                  -8.068
REMARK INTRA:                  -0.252
REMARK UNBOUND:                -0.506
REMARK  Name = 
REMARK  4 active torsions:
REMARK  status: ('A' for Active; 'I' for Inactive)
REMARK    1  A    between atoms: C_2  and  C_4
REMARK    2  A    between atoms: N_8  and  C_9
REMARK    3  A    between atoms: C_9  and  C_10
REMARK    4  A    between atoms: C_10  and  C_11
REMARK                            x       y       z     vdW  Elec       q    Type
REMARK                         _______ _______ _______ _____ _____    ______ ____
ROOT
ATOM      1  C   UNL     1      44.947   4.102  11.075  0.00  0.00    +0.000 A 
ATOM      2  C   UNL     1      45.502   5.369  11.213  0.00  0.00    +0.000 A 
ATOM      3  C   UNL     1      46.080   5.726  12.434  0.00  0.00    +0.000 A 
ATOM      4  C   UNL     1      46.144   4.794  13.472  0.00  0.00    +0.000 A 
ATOM      5  N   UNL     1      46.735   5.191  14.686  0.00  0.00    +0.000 N 
ATOM      6  N   UNL     1      45.583   3.575  13.352  0.00  0.00    +0.000 NA
ATOM      7  C   UNL     1      44.980   3.259  12.176  0.00  0.00    +0.000 A 
ATOM      8  H   UNL     1      47.485   5.849  14.502  0.00  0.00    +0.000 HD
ENDROOT
BRANCH   1  10
ATOM      9  N   UNL     1      44.133   4.546   8.830  0.00  0.00    +0.000 N 
ATOM     10  C   UNL     1      44.310   3.629   9.829  0.00  0.00    +0.000 C 
ATOM     11  O   UNL     1      43.993   2.458   9.677  0.00  0.00    +0.000 OA
ATOM     12  H   UNL     1      43.803   4.182   7.944  0.00  0.00    +0.000 HD
ATOM     13  H   UNL     1      44.616   5.434   8.816  0.00  0.00    +0.000 HD
ENDBRANCH   1  10
BRANCH   5  14
ATOM     14  C   UNL     1      47.209   4.065  15.504  0.00  0.00    +0.000 C 
BRANCH  14  15
ATOM     15  C   UNL     1      47.856   4.607  16.786  0.00  0.00    +0.000 C 
BRANCH  15  16
ATOM     16  C   UNL     1      49.175   3.950  17.114  0.00  0.00    +0.000 A 
ATOM     17  C   UNL     1      49.329   2.562  17.014  0.00  0.00    +0.000 A 
ATOM     18  C   UNL     1      50.561   1.964  17.294  0.00  0.00    +0.000 A 
ATOM     19  C   UNL     1      51.646   2.749  17.683  0.00  0.00    +0.000 A 
ATOM     20  C   UNL     1      51.498   4.127  17.799  0.00  0.00    +0.000 A 
ATOM     21  C   UNL     1      50.270   4.729  17.520  0.00  0.00    +0.000 A 
ENDBRANCH  15  16
ENDBRANCH  14  15
ENDBRANCH   5  14
TORSDOF 4
ENDMDL
MODEL 8
REMARK VINA RESULT:    -5.783      3.536      5.551
REMARK INTER + INTRA:          -7.641
REMARK INTER:                  -7.236
REMARK INTRA:                  -0.406
REMARK UNBOUND:                -0.506
REMARK  Name = 
REMARK  4 active torsions:
REMARK  status: ('A' for Active; 'I' for Inactive)
REMARK    1  A    between atoms: C_2  and  C_4
REMARK    2  A    between atoms: N_8  and  C_9
REMARK    3  A    between atoms: C_9  and  C_10
REMARK    4  A    between atoms: C_10  and  C_11
REMARK                            x       y       z     vdW  Elec       q    Type
REMARK                         _______ _______ _______ _____ _____    ______ ____
ROOT
ATOM      1  C   UNL     1      44.661   5.077  11.451  0.00  0.00    +0.000 A 
ATOM      2  C   UNL     1      44.585   6.465  11.478  0.00  0.00    +0.000 A 
ATOM      3  C   UNL     1      45.431   7.173  12.336  0.00  0.00    +0.000 A 
ATOM      4  C   UNL     1      46.371   6.487  13.108  0.00  0.00    +0.000 A 
ATOM      5  N   UNL     1      47.205   7.235  13.960  0.00  0.00    +0.000 N 
ATOM      6  N   UNL     1      46.429   5.141  13.106  0.00  0.00    +0.000 NA
ATOM      7  C   UNL     1      45.568   4.463  12.303  0.00  0.00    +0.000 A 
ATOM      8  H   UNL     1      47.403   8.137  13.538  0.00  0.00    +0.000 HD
ENDROOT
BRANCH   1  10
ATOM      9  N   UNL     1      43.871   4.470   9.236  0.00  0.00    +0.000 N 
ATOM     10  C   UNL     1      43.811   4.237  10.582  0.00  0.00    +0.000 C 
ATOM     11  O   UNL     1      43.116   3.343  11.040  0.00  0.00    +0.000 OA
ATOM     12  H   UNL     1      43.373   3.812   8.648  0.00  0.00    +0.000 HD
ATOM     13  H   UNL     1      44.616   5.002   8.809  0.00  0.00    +0.000 HD
ENDBRANCH   1  10
BRANCH   5  14
ATOM     14  C   UNL     1      48.447   6.538  14.326  0.00  0.00    +0.000 C 
BRANCH  14  15
ATOM     15  C   UNL     1      48.690   6.696  15.833  0.00  0.00    +0.000 C 
BRANCH  15  16
ATOM     16  C   UNL     1      48.623   5.390  16.589  0.00  0.00    +0.000 A 
ATOM     17  C   UNL     1      49.685   4.977  17.402  0.00  0.00    +0.000 A 
ATOM     18  C   UNL     1      49.604   3.780  18.120  0.00  0.00    +0.000 A 
ATOM     19  C   UNL     1      48.464   2.984  18.024  0.00  0.00    +0.000 A 
ATOM     20  C   UNL     1      47.409   3.379  17.206  0.00  0.00    +0.000 A 
ATOM     21  C   UNL     1      47.486   4.574  16.488  0.00  0.00    +0.000 A 
ENDBRANCH  15  16
ENDBRANCH  14  15
ENDBRANCH   5  14
TORSDOF 4
ENDMDL
MODEL 9
REMARK VINA RESULT:    -5.629      2.375      3.849
REMARK INTER + INTRA:          -7.451
REMARK INTER:                  -6.977
REMARK INTRA:                  -0.474
REMARK UNBOUND:                -0.506
REMARK  Name = 
REMARK  4 active torsions:
REMARK  status: ('A' for Active; 'I' for Inactive)
REMARK    1  A    between atoms: C_2  and  C_4
REMARK    2  A    between atoms: N_8  and  C_9
REMARK    3  A    between atoms: C_9  and  C_10
REMARK    4  A    between atoms: C_10  and  C_11
REMARK                            x       y       z     vdW  Elec       q    Type
REMARK                         _______ _______ _______ _____ _____    ______ ____
ROOT
ATOM      1  C   UNL     1      44.661   4.041   9.774  0.00  0.00    +0.000 A 
ATOM      2  C   UNL     1      43.685   4.026  10.764  0.00  0.00    +0.000 A 
ATOM      3  C   UNL     1      43.639   5.075  11.685  0.00  0.00    +0.000 A 
ATOM      4  C   UNL     1      44.530   6.144  11.568  0.00  0.00    +0.000 A 
ATOM      5  N   UNL     1      44.452   7.182  12.514  0.00  0.00    +0.000 N 
ATOM      6  N   UNL     1      45.495   6.149  10.627  0.00  0.00    +0.000 NA
ATOM      7  C   UNL     1      45.559   5.098   9.768  0.00  0.00    +0.000 A 
ATOM      8  H   UNL     1      43.487   7.310  12.803  0.00  0.00    +0.000 HD
ENDROOT
BRANCH   1  10
ATOM      9  N   UNL     1      44.622   1.688   9.170  0.00  0.00    +0.000 N 
ATOM     10  C   UNL     1      44.795   2.980   8.755  0.00  0.00    +0.000 C 
ATOM     11  O   UNL     1      45.010   3.244   7.581  0.00  0.00    +0.000 OA
ATOM     12  H   UNL     1      44.603   0.985   8.441  0.00  0.00    +0.000 HD
ATOM     13  H   UNL     1      44.187   1.455  10.052  0.00  0.00    +0.000 HD
ENDBRANCH   1  10
BRANCH   5  14
ATOM     14  C   UNL     1      45.036   8.448  12.048  0.00  0.00    +0.000 C 
BRANCH  14  15
ATOM     15  C   UNL     1      46.114   8.905  13.040  0.00  0.00    +0.000 C 
BRANCH  15  16
ATOM     16  C   UNL     1      47.520   8.668  12.546  0.00  0.00    +0.000 A 
ATOM     17  C   UNL     1      48.132   7.417  12.697  0.00  0.00    +0.000 A 
ATOM     18  C   UNL     1      49.426   7.198  12.213  0.00  0.00    +0.000 A 
ATOM     19  C   UNL     1      50.119   8.230  11.581  0.00  0.00    +0.000 A 
ATOM     20  C   UNL     1      49.524   9.480  11.440  0.00  0.00    +0.000 A 
ATOM     21  C   UNL     1      48.233   9.703  11.921  0.00  0.00    +0.000 A 
ENDBRANCH  15  16
ENDBRANCH  14  15
ENDBRANCH   5  14
TORSDOF 4
ENDMDL
