MODEL 1
REMARK VINA RESULT:    -7.713      0.000      0.000
REMARK INTER + INTRA:         -10.815
REMARK INTER:                 -10.193
REMARK INTRA:                  -0.623
REMARK UNBOUND:                -0.623
REMARK  Name = 
REMARK  6 active torsions:
REMARK  status: ('A' for Active; 'I' for Inactive)
REMARK    1  A    between atoms: N_1  and  C_2
REMARK    2  A    between atoms: C_2  and  C_3
REMARK    3  A    between atoms: C_2  and  C_18
REMARK    4  A    between atoms: C_3  and  C_4
REMARK    5  A    between atoms: C_7  and  C_8
REMARK    6  A    between atoms: C_8  and  C_9
REMARK                            x       y       z     vdW  Elec       q    Type
REMARK                         _______ _______ _______ _____ _____    ______ ____
ROOT
ATOM      1  C   UNL     1      47.616   4.758  16.653  0.00  0.00    +0.000 C 
ENDROOT
BRANCH   1   2
ATOM      2  C   UNL     1      48.883   4.589  17.471  0.00  0.00    +0.000 A 
ATOM      3  C   UNL     1      49.324   5.526  18.392  0.00  0.00    +0.000 A 
ATOM      4  S   UNL     1      50.834   5.133  19.089  0.00  0.00    +0.000 S 
ATOM      5  C   UNL     1      50.941   3.690  18.192  0.00  0.00    +0.000 A 
ATOM      6  N   UNL     1      52.034   2.885  18.276  0.00  0.00    +0.000 NA
ATOM      7  C   UNL     1      51.978   1.835  17.525  0.00  0.00    +0.000 A 
ATOM      8  N   UNL     1      50.916   1.501  16.722  0.00  0.00    +0.000 N 
ATOM      9  C   UNL     1      49.758   2.239  16.671  0.00  0.00    +0.000 A 
ATOM     10  O   UNL     1      48.768   1.841  16.066  0.00  0.00    +0.000 OA
ATOM     11  C   UNL     1      49.814   3.483  17.420  0.00  0.00    +0.000 A 
ATOM     12  H   UNL     1      50.913   0.635  16.204  0.00  0.00    +0.000 HD
ENDBRANCH   1   2
BRANCH   1  13
ATOM     13  N   UNL     1      46.755   3.606  16.903  0.00  0.00    +0.000 NA
ATOM     14  H   UNL     1      46.044   3.847  17.590  0.00  0.00    +0.000 HD
ATOM     15  H   UNL     1      47.317   2.851  17.307  0.00  0.00    +0.000 HD
ENDBRANCH   1  13
BRANCH   1  16
ATOM     16  C   UNL     1      47.926   4.999  15.152  0.00  0.00    +0.000 C 
BRANCH  16  17
ATOM     17  C   UNL     1      46.854   4.579  14.179  0.00  0.00    +0.000 A 
ATOM     18  C   UNL     1      45.864   5.474  13.764  0.00  0.00    +0.000 A 
ATOM     19  C   UNL     1      44.876   5.059  12.871  0.00  0.00    +0.000 A 
ATOM     20  C   UNL     1      44.892   3.746  12.417  0.00  0.00    +0.000 A 
ATOM     21  N   UNL     1      45.825   2.848  12.823  0.00  0.00    +0.000 NA
ATOM     22  C   UNL     1      46.783   3.286  13.678  0.00  0.00    +0.000 A 
BRANCH  20  23
ATOM     23  C   UNL     1      43.918   3.274  11.376  0.00  0.00    +0.000 C 
BRANCH  23  24
ATOM     24  C   UNL     1      44.108   3.899  10.009  0.00  0.00    +0.000 C 
ATOM     25  O   UNL     1      43.536   4.952   9.715  0.00  0.00    +0.000 OA
ATOM     26  N   UNL     1      44.994   3.294   9.152  0.00  0.00    +0.000 N 
ATOM     27  C   UNL     1      45.348   3.875   7.891  0.00  0.00    +0.000 C 
ATOM     28  C   UNL     1      46.475   2.979   7.443  0.00  0.00    +0.000 C 
ATOM     29  O   UNL     1      46.207   1.693   8.032  0.00  0.00    +0.000 OA
ATOM     30  C   UNL     1      45.290   1.888   9.120  0.00  0.00    +0.000 C 
ENDBRANCH  23  24
ENDBRANCH  20  23
ENDBRANCH  16  17
ENDBRANCH   1  16
TORSDOF 6
ENDMDL
MODEL 2
REMARK VINA RESULT:    -7.650      2.807      8.602
REMARK INTER + INTRA:         -10.732
REMARK INTER:                 -10.126
REMARK INTRA:                  -0.605
REMARK UNBOUND:                -0.623
REMARK  Name = 
REMARK  6 active torsions:
REMARK  status: ('A' for Active; 'I' for Inactive)
REMARK    1  A    between atoms: N_1  and  C_2
REMARK    2  A    between atoms: C_2  and  C_3
REMARK    3  A    between atoms: C_2  and  C_18
REMARK    4  A    between atoms: C_3  and  C_4
REMARK    5  A    between atoms: C_7  and  C_8
REMARK    6  A    between atoms: C_8  and  C_9
REMARK                            x       y       z     vdW  Elec       q    Type
REMARK                         _______ _______ _______ _____ _____    ______ ____
ROOT
ATOM      1  C   UNL     1      45.077   6.260  11.944  0.00  0.00    +0.000 C 
ENDROOT
BRANCH   1   2
ATOM      2  C   UNL     1      44.532   4.916  11.498  0.00  0.00    +0.000 A 
ATOM      3  C   UNL     1      43.646   4.165  12.255  0.00  0.00    +0.000 A 
ATOM      4  S   UNL     1      43.283   2.645  11.565  0.00  0.00    +0.000 S 
ATOM      5  C   UNL     1      44.289   2.945  10.225  0.00  0.00    +0.000 A 
ATOM      6  N   UNL     1      44.477   2.007   9.258  0.00  0.00    +0.000 NA
ATOM      7  C   UNL     1      45.280   2.373   8.314  0.00  0.00    +0.000 A 
ATOM      8  N   UNL     1      45.886   3.602   8.232  0.00  0.00    +0.000 N 
ATOM      9  C   UNL     1      45.659   4.608   9.140  0.00  0.00    +0.000 A 
ATOM     10  O   UNL     1      46.091   5.743   8.963  0.00  0.00    +0.000 OA
ATOM     11  C   UNL     1      44.843   4.209  10.275  0.00  0.00    +0.000 A 
ATOM     12  H   UNL     1      46.458   3.843   7.436  0.00  0.00    +0.000 HD
ENDBRANCH   1   2
BRANCH   1  13
ATOM     13  N   UNL     1      44.714   7.255  10.939  0.00  0.00    +0.000 NA
ATOM     14  H   UNL     1      43.713   7.435  10.975  0.00  0.00    +0.000 HD
ATOM     15  H   UNL     1      44.916   6.877  10.008  0.00  0.00    +0.000 HD
ENDBRANCH   1  13
BRANCH   1  16
ATOM     16  C   UNL     1      46.597   6.196  12.247  0.00  0.00    +0.000 C 
BRANCH  16  17
ATOM     17  C   UNL     1      46.997   5.383  13.452  0.00  0.00    +0.000 A 
ATOM     18  C   UNL     1      47.479   5.999  14.610  0.00  0.00    +0.000 A 
ATOM     19  C   UNL     1      47.853   5.226  15.709  0.00  0.00    +0.000 A 
ATOM     20  C   UNL     1      47.749   3.843  15.623  0.00  0.00    +0.000 A 
ATOM     21  N   UNL     1      47.310   3.216  14.502  0.00  0.00    +0.000 NA
ATOM     22  C   UNL     1      46.936   3.996  13.457  0.00  0.00    +0.000 A 
BRANCH  20  23
ATOM     23  C   UNL     1      48.037   2.968  16.809  0.00  0.00    +0.000 C 
BRANCH  23  24
ATOM     24  C   UNL     1      49.486   2.548  16.941  0.00  0.00    +0.000 C 
ATOM     25  O   UNL     1      49.917   1.574  16.317  0.00  0.00    +0.000 OA
ATOM     26  N   UNL     1      50.309   3.333  17.712  0.00  0.00    +0.000 N 
ATOM     27  C   UNL     1      51.720   3.102  17.795  0.00  0.00    +0.000 C 
ATOM     28  C   UNL     1      52.187   4.318  18.555  0.00  0.00    +0.000 C 
ATOM     29  O   UNL     1      51.079   4.705  19.388  0.00  0.00    +0.000 OA
ATOM     30  C   UNL     1      49.891   4.104  18.850  0.00  0.00    +0.000 C 
ENDBRANCH  23  24
ENDBRANCH  20  23
ENDBRANCH  16  17
ENDBRANCH   1  16
TORSDOF 6
ENDMDL
MODEL 3
REMARK VINA RESULT:    -7.264      2.160      2.761
REMARK INTER + INTRA:         -10.222
REMARK INTER:                  -9.761
REMARK INTRA:                  -0.461
REMARK UNBOUND:                -0.623
REMARK  Name = 
REMARK  6 active torsions:
REMARK  status: ('A' for Active; 'I' for Inactive)
REMARK    1  A    between atoms: N_1  and  C_2
REMARK    2  A    between atoms: C_2  and  C_3
REMARK    3  A    between atoms: C_2  and  C_18
REMARK    4  A    between atoms: C_3  and  C_4
REMARK    5  A    between atoms: C_7  and  C_8
REMARK    6  A    between atoms: C_8  and  C_9
REMARK                            x       y       z     vdW  Elec       q    Type
REMARK                         _______ _______ _______ _____ _____    ______ ____
ROOT
ATOM      1  C   UNL     1      48.645   6.628  14.444  0.00  0.00    +0.000 C 
ENDROOT
BRANCH   1   2
ATOM      2  C   UNL     1      48.683   6.460  15.952  0.00  0.00    +0.000 A 
ATOM      3  C   UNL     1      49.033   7.480  16.823  0.00  0.00    +0.000 A 
ATOM      4  S   UNL     1      49.098   6.985  18.457  0.00  0.00    +0.000 S 
ATOM      5  C   UNL     1      48.648   5.393  18.056  0.00  0.00    +0.000 A 
ATOM      6  N   UNL     1      48.568   4.420  19.003  0.00  0.00    +0.000 NA
ATOM      7  C   UNL     1      48.230   3.260  18.545  0.00  0.00    +0.000 A 
ATOM      8  N   UNL     1      47.935   2.991  17.232  0.00  0.00    +0.000 N 
ATOM      9  C   UNL     1      47.921   3.959  16.256  0.00  0.00    +0.000 A 
ATOM     10  O   UNL     1      47.507   3.726  15.125  0.00  0.00    +0.000 OA
ATOM     11  C   UNL     1      48.393   5.259  16.704  0.00  0.00    +0.000 A 
ATOM     12  H   UNL     1      47.622   2.074  16.951  0.00  0.00    +0.000 HD
ENDBRANCH   1   2
BRANCH   1  13
ATOM     13  N   UNL     1      49.982   7.006  13.995  0.00  0.00    +0.000 NA
ATOM     14  H   UNL     1      50.683   6.589  14.604  0.00  0.00    +0.000 HD
ATOM     15  H   UNL     1      50.086   8.023  14.074  0.00  0.00    +0.000 HD
ENDBRANCH   1  13
BRANCH   1  16
ATOM     16  C   UNL     1      47.531   7.611  14.001  0.00  0.00    +0.000 C 
BRANCH  16  17
ATOM     17  C   UNL     1      46.433   7.027  13.148  0.00  0.00    +0.000 A 
ATOM     18  C   UNL     1      45.678   7.831  12.291  0.00  0.00    +0.000 A 
ATOM     19  C   UNL     1      44.661   7.269  11.520  0.00  0.00    +0.000 A 
ATOM     20  C   UNL     1      44.410   5.907  11.631  0.00  0.00    +0.000 A 
ATOM     21  N   UNL     1      45.110   5.106  12.474  0.00  0.00    +0.000 NA
ATOM     22  C   UNL     1      46.104   5.678  13.197  0.00  0.00    +0.000 A 
BRANCH  20  23
ATOM     23  C   UNL     1      43.400   5.231  10.749  0.00  0.00    +0.000 C 
BRANCH  23  24
ATOM     24  C   UNL     1      43.828   3.873  10.232  0.00  0.00    +0.000 C 
ATOM     25  O   UNL     1      43.375   2.839  10.732  0.00  0.00    +0.000 OA
ATOM     26  N   UNL     1      44.668   3.842   9.146  0.00  0.00    +0.000 N 
ATOM     27  C   UNL     1      45.026   2.616   8.497  0.00  0.00    +0.000 C 
ATOM     28  C   UNL     1      45.757   3.115   7.275  0.00  0.00    +0.000 C 
ATOM     29  O   UNL     1      46.339   4.374   7.658  0.00  0.00    +0.000 OA
ATOM     30  C   UNL     1      45.645   4.846   8.824  0.00  0.00    +0.000 C 
ENDBRANCH  23  24
ENDBRANCH  20  23
ENDBRANCH  16  17
ENDBRANCH   1  16
TORSDOF 6
ENDMDL
MODEL 4
REMARK VINA RESULT:    -6.836      3.222      8.929
REMARK INTER + INTRA:          -9.656
REMARK INTER:                  -8.951
REMARK INTRA:                  -0.705
REMARK UNBOUND:                -0.623
REMARK  Name = 
REMARK  6 active torsions:
REMARK  status: ('A' for Active; 'I' for Inactive)
REMARK    1  A    between atoms: N_1  and  C_2
REMARK    2  A    between atoms: C_2  and  C_3
REMARK    3  A    between atoms: C_2  and  C_18
REMARK    4  A    between atoms: C_3  and  C_4
REMARK    5  A    between atoms: C_7  and  C_8
REMARK    6  A    between atoms: C_8  and  C_9
REMARK                            x       y       z     vdW  Elec       q    Type
REMARK                         _______ _______ _______ _____ _____    ______ ____
ROOT
ATOM      1  C   UNL     1      45.342   6.439  11.788  0.00  0.00    +0.000 C 
ENDROOT
BRANCH   1   2
ATOM      2  C   UNL     1      44.718   5.080  11.525  0.00  0.00    +0.000 A 
ATOM      3  C   UNL     1      43.926   4.416  12.448  0.00  0.00    +0.000 A 
ATOM      4  S   UNL     1      43.447   2.858  11.935  0.00  0.00    +0.000 S 
ATOM      5  C   UNL     1      44.274   3.024  10.456  0.00  0.00    +0.000 A 
ATOM      6  N   UNL     1      44.317   2.010   9.551  0.00  0.00    +0.000 NA
ATOM      7  C   UNL     1      44.995   2.279   8.484  0.00  0.00    +0.000 A 
ATOM      8  N   UNL     1      45.608   3.480   8.226  0.00  0.00    +0.000 N 
ATOM      9  C   UNL     1      45.520   4.559   9.073  0.00  0.00    +0.000 A 
ATOM     10  O   UNL     1      45.946   5.664   8.751  0.00  0.00    +0.000 OA
ATOM     11  C   UNL     1      44.853   4.273  10.332  0.00  0.00    +0.000 A 
ATOM     12  H   UNL     1      46.074   3.643   7.347  0.00  0.00    +0.000 HD
ENDBRANCH   1   2
BRANCH   1  13
ATOM     13  N   UNL     1      44.698   7.412  10.910  0.00  0.00    +0.000 NA
ATOM     14  H   UNL     1      45.392   7.847  10.307  0.00  0.00    +0.000 HD
ATOM     15  H   UNL     1      44.290   8.158  11.482  0.00  0.00    +0.000 HD
ENDBRANCH   1  13
BRANCH   1  16
ATOM     16  C   UNL     1      46.887   6.400  11.659  0.00  0.00    +0.000 C 
BRANCH  16  17
ATOM     17  C   UNL     1      47.659   6.390  12.954  0.00  0.00    +0.000 A 
ATOM     18  C   UNL     1      47.178   5.710  14.076  0.00  0.00    +0.000 A 
ATOM     19  C   UNL     1      47.904   5.724  15.267  0.00  0.00    +0.000 A 
ATOM     20  C   UNL     1      49.099   6.432  15.314  0.00  0.00    +0.000 A 
ATOM     21  N   UNL     1      49.577   7.123  14.249  0.00  0.00    +0.000 NA
ATOM     22  C   UNL     1      48.857   7.075  13.100  0.00  0.00    +0.000 A 
BRANCH  20  23
ATOM     23  C   UNL     1      49.974   6.395  16.535  0.00  0.00    +0.000 C 
BRANCH  23  24
ATOM     24  C   UNL     1      49.786   5.170  17.405  0.00  0.00    +0.000 C 
ATOM     25  O   UNL     1      50.245   4.078  17.060  0.00  0.00    +0.000 OA
ATOM     26  N   UNL     1      49.160   5.341  18.617  0.00  0.00    +0.000 N 
ATOM     27  C   UNL     1      49.051   4.278  19.571  0.00  0.00    +0.000 C 
ATOM     28  C   UNL     1      48.504   5.001  20.776  0.00  0.00    +0.000 C 
ATOM     29  O   UNL     1      47.737   6.101  20.255  0.00  0.00    +0.000 OA
ATOM     30  C   UNL     1      48.160   6.332  18.902  0.00  0.00    +0.000 C 
ENDBRANCH  23  24
ENDBRANCH  20  23
ENDBRANCH  16  17
ENDBRANCH   1  16
TORSDOF 6
ENDMDL
MODEL 5
REMARK VINA RESULT:    -6.608      3.099      8.455
REMARK INTER + INTRA:          -9.355
REMARK INTER:                  -8.650
REMARK INTRA:                  -0.705
REMARK UNBOUND:                -0.623
REMARK  Name = 
REMARK  6 active torsions:
REMARK  status: ('A' for Active; 'I' for Inactive)
REMARK    1  A    between atoms: N_1  and  C_2
REMARK    2  A    between atoms: C_2  and  C_3
REMARK    3  A    between atoms: C_2  and  C_18
REMARK    4  A    between atoms: C_3  and  C_4
REMARK    5  A    between atoms: C_7  and  C_8
REMARK    6  A    between atoms: C_8  and  C_9
REMARK                            x       y       z     vdW  Elec       q    Type
REMARK                         _______ _______ _______ _____ _____    ______ ____
ROOT
ATOM      1  C   UNL     1      45.768   6.616  12.668  0.00  0.00    +0.000 C 
ENDROOT
BRANCH   1   2
ATOM      2  C   UNL     1      45.576   5.683  11.485  0.00  0.00    +0.000 A 
ATOM      3  C   UNL     1      46.044   5.965  10.211  0.00  0.00    +0.000 A 
ATOM      4  S   UNL     1      45.593   4.796   9.049  0.00  0.00    +0.000 S 
ATOM      5  C   UNL     1      44.767   3.868  10.214  0.00  0.00    +0.000 A 
ATOM      6  N   UNL     1      44.092   2.739   9.869  0.00  0.00    +0.000 NA
ATOM      7  C   UNL     1      43.501   2.152  10.858  0.00  0.00    +0.000 A 
ATOM      8  N   UNL     1      43.550   2.574  12.163  0.00  0.00    +0.000 N 
ATOM      9  C   UNL     1      44.288   3.660  12.569  0.00  0.00    +0.000 A 
ATOM     10  O   UNL     1      44.439   3.927  13.757  0.00  0.00    +0.000 OA
ATOM     11  C   UNL     1      44.887   4.411  11.479  0.00  0.00    +0.000 A 
ATOM     12  H   UNL     1      43.113   2.036  12.896  0.00  0.00    +0.000 HD
ENDBRANCH   1   2
BRANCH   1  13
ATOM     13  N   UNL     1      44.920   7.787  12.466  0.00  0.00    +0.000 NA
ATOM     14  H   UNL     1      44.428   8.011  13.328  0.00  0.00    +0.000 HD
ATOM     15  H   UNL     1      44.207   7.566  11.764  0.00  0.00    +0.000 HD
ENDBRANCH   1  13
BRANCH   1  16
ATOM     16  C   UNL     1      47.264   6.953  12.899  0.00  0.00    +0.000 C 
BRANCH  16  17
ATOM     17  C   UNL     1      47.868   6.438  14.181  0.00  0.00    +0.000 A 
ATOM     18  C   UNL     1      48.845   7.169  14.863  0.00  0.00    +0.000 A 
ATOM     19  C   UNL     1      49.396   6.667  16.042  0.00  0.00    +0.000 A 
ATOM     20  C   UNL     1      48.965   5.433  16.512  0.00  0.00    +0.000 A 
ATOM     21  N   UNL     1      48.038   4.689  15.856  0.00  0.00    +0.000 NA
ATOM     22  C   UNL     1      47.507   5.212  14.723  0.00  0.00    +0.000 A 
BRANCH  20  23
ATOM     23  C   UNL     1      49.446   4.893  17.828  0.00  0.00    +0.000 C 
BRANCH  23  24
ATOM     24  C   UNL     1      50.910   4.502  17.849  0.00  0.00    +0.000 C 
ATOM     25  O   UNL     1      51.784   5.352  18.039  0.00  0.00    +0.000 OA
ATOM     26  N   UNL     1      51.213   3.168  17.730  0.00  0.00    +0.000 N 
ATOM     27  C   UNL     1      52.552   2.678  17.871  0.00  0.00    +0.000 C 
ATOM     28  C   UNL     1      52.336   1.185  17.877  0.00  0.00    +0.000 C 
ATOM     29  O   UNL     1      51.153   0.961  17.087  0.00  0.00    +0.000 OA
ATOM     30  C   UNL     1      50.433   2.201  17.008  0.00  0.00    +0.000 C 
ENDBRANCH  23  24
ENDBRANCH  20  23
ENDBRANCH  16  17
ENDBRANCH   1  16
TORSDOF 6
ENDMDL
MODEL 6
REMARK VINA RESULT:    -6.568      3.754      8.930
REMARK INTER + INTRA:          -9.303
REMARK INTER:                  -8.493
REMARK INTRA:                  -0.810
REMARK UNBOUND:                -0.623
REMARK  Name = 
REMARK  6 active torsions:
REMARK  status: ('A' for Active; 'I' for Inactive)
REMARK    1  A    between atoms: N_1  and  C_2
REMARK    2  A    between atoms: C_2  and  C_3
REMARK    3  A    between atoms: C_2  and  C_18
REMARK    4  A    between atoms: C_3  and  C_4
REMARK    5  A    between atoms: C_7  and  C_8
REMARK    6  A    between atoms: C_8  and  C_9
REMARK                            x       y       z     vdW  Elec       q    Type
REMARK                         _______ _______ _______ _____ _____    ______ ____
ROOT
ATOM      1  C   UNL     1      46.009   6.864  11.888  0.00  0.00    +0.000 C 
ENDROOT
BRANCH   1   2
ATOM      2  C   UNL     1      45.573   5.695  11.023  0.00  0.00    +0.000 A 
ATOM      3  C   UNL     1      45.787   5.641   9.654  0.00  0.00    +0.000 A 
ATOM      4  S   UNL     1      45.098   4.264   8.913  0.00  0.00    +0.000 S 
ATOM      5  C   UNL     1      44.500   3.689  10.400  0.00  0.00    +0.000 A 
ATOM      6  N   UNL     1      43.751   2.555  10.470  0.00  0.00    +0.000 NA
ATOM      7  C   UNL     1      43.355   2.254  11.663  0.00  0.00    +0.000 A 
ATOM      8  N   UNL     1      43.666   2.965  12.795  0.00  0.00    +0.000 N 
ATOM      9  C   UNL     1      44.488   4.067  12.783  0.00  0.00    +0.000 A 
ATOM     10  O   UNL     1      44.873   4.593  13.822  0.00  0.00    +0.000 OA
ATOM     11  C   UNL     1      44.874   4.503  11.451  0.00  0.00    +0.000 A 
ATOM     12  H   UNL     1      43.371   2.642  13.704  0.00  0.00    +0.000 HD
ENDBRANCH   1   2
BRANCH   1  13
ATOM     13  N   UNL     1      45.159   8.008  11.569  0.00  0.00    +0.000 NA
ATOM     14  H   UNL     1      44.320   7.693  11.088  0.00  0.00    +0.000 HD
ATOM     15  H   UNL     1      45.660   8.626  10.923  0.00  0.00    +0.000 HD
ENDBRANCH   1  13
BRANCH   1  16
ATOM     16  C   UNL     1      47.527   7.149  11.750  0.00  0.00    +0.000 C 
BRANCH  16  17
ATOM     17  C   UNL     1      48.333   7.069  13.022  0.00  0.00    +0.000 A 
ATOM     18  C   UNL     1      47.843   6.399  14.146  0.00  0.00    +0.000 A 
ATOM     19  C   UNL     1      48.603   6.347  15.315  0.00  0.00    +0.000 A 
ATOM     20  C   UNL     1      49.840   6.980  15.339  0.00  0.00    +0.000 A 
ATOM     21  N   UNL     1      50.329   7.660  14.271  0.00  0.00    +0.000 NA
ATOM     22  C   UNL     1      49.575   7.677  13.144  0.00  0.00    +0.000 A 
BRANCH  20  23
ATOM     23  C   UNL     1      50.744   6.868  16.533  0.00  0.00    +0.000 C 
BRANCH  23  24
ATOM     24  C   UNL     1      50.505   5.643  17.390  0.00  0.00    +0.000 C 
ATOM     25  O   UNL     1      50.884   4.530  17.015  0.00  0.00    +0.000 OA
ATOM     26  N   UNL     1      49.926   5.831  18.621  0.00  0.00    +0.000 N 
ATOM     27  C   UNL     1      49.777   4.762  19.563  0.00  0.00    +0.000 C 
ATOM     28  C   UNL     1      49.310   5.497  20.794  0.00  0.00    +0.000 C 
ATOM     29  O   UNL     1      48.600   6.652  20.311  0.00  0.00    +0.000 OA
ATOM     30  C   UNL     1      48.999   6.878  18.950  0.00  0.00    +0.000 C 
ENDBRANCH  23  24
ENDBRANCH  20  23
ENDBRANCH  16  17
ENDBRANCH   1  16
TORSDOF 6
ENDMDL
MODEL 7
REMARK VINA RESULT:    -6.062      3.434      4.270
REMARK INTER + INTRA:          -8.634
REMARK INTER:                  -7.439
REMARK INTRA:                  -1.195
REMARK UNBOUND:                -0.623
REMARK  Name = 
REMARK  6 active torsions:
REMARK  status: ('A' for Active; 'I' for Inactive)
REMARK    1  A    between atoms: N_1  and  C_2
REMARK    2  A    between atoms: C_2  and  C_3
REMARK    3  A    between atoms: C_2  and  C_18
REMARK    4  A    between atoms: C_3  and  C_4
REMARK    5  A    between atoms: C_7  and  C_8
REMARK    6  A    between atoms: C_8  and  C_9
REMARK                            x       y       z     vdW  Elec       q    Type
REMARK                         _______ _______ _______ _____ _____    ______ ____
ROOT
ATOM      1  C   UNL     1      50.327   8.511  14.384  0.00  0.00    +0.000 C 
ENDROOT
BRANCH   1   2
ATOM      2  C   UNL     1      49.758   8.604  15.788  0.00  0.00    +0.000 A 
ATOM      3  C   UNL     1      49.898   9.725  16.591  0.00  0.00    +0.000 A 
ATOM      4  S   UNL     1      49.257   9.518  18.162  0.00  0.00    +0.000 S 
ATOM      5  C   UNL     1      48.761   7.926  17.815  0.00  0.00    +0.000 A 
ATOM      6  N   UNL     1      48.180   7.144  18.764  0.00  0.00    +0.000 NA
ATOM      7  C   UNL     1      47.874   5.956  18.357  0.00  0.00    +0.000 A 
ATOM      8  N   UNL     1      48.067   5.490  17.081  0.00  0.00    +0.000 N 
ATOM      9  C   UNL     1      48.572   6.272  16.069  0.00  0.00    +0.000 A 
ATOM     10  O   UNL     1      48.594   5.883  14.906  0.00  0.00    +0.000 OA
ATOM     11  C   UNL     1      49.026   7.582  16.503  0.00  0.00    +0.000 A 
ATOM     12  H   UNL     1      47.751   4.569  16.814  0.00  0.00    +0.000 HD
ENDBRANCH   1   2
BRANCH   1  13
ATOM     13  N   UNL     1      51.716   8.960  14.424  0.00  0.00    +0.000 NA
ATOM     14  H   UNL     1      51.891   9.467  15.288  0.00  0.00    +0.000 HD
ATOM     15  H   UNL     1      51.877   9.617  13.654  0.00  0.00    +0.000 HD
ENDBRANCH   1  13
BRANCH   1  16
ATOM     16  C   UNL     1      49.450   9.270  13.354  0.00  0.00    +0.000 C 
BRANCH  16  17
ATOM     17  C   UNL     1      48.230   8.536  12.856  0.00  0.00    +0.000 A 
ATOM     18  C   UNL     1      46.961   8.811  13.373  0.00  0.00    +0.000 A 
ATOM     19  C   UNL     1      45.849   8.112  12.904  0.00  0.00    +0.000 A 
ATOM     20  C   UNL     1      46.030   7.139  11.930  0.00  0.00    +0.000 A 
ATOM     21  N   UNL     1      47.254   6.832  11.429  0.00  0.00    +0.000 NA
ATOM     22  C   UNL     1      48.314   7.541  11.891  0.00  0.00    +0.000 A 
BRANCH  20  23
ATOM     23  C   UNL     1      44.858   6.431  11.314  0.00  0.00    +0.000 C 
BRANCH  23  24
ATOM     24  C   UNL     1      44.905   4.921  11.432  0.00  0.00    +0.000 C 
ATOM     25  O   UNL     1      44.893   4.377  12.540  0.00  0.00    +0.000 OA
ATOM     26  N   UNL     1      44.879   4.191  10.269  0.00  0.00    +0.000 N 
ATOM     27  C   UNL     1      44.784   2.762  10.271  0.00  0.00    +0.000 C 
ATOM     28  C   UNL     1      44.574   2.464   8.807  0.00  0.00    +0.000 C 
ATOM     29  O   UNL     1      45.233   3.528   8.096  0.00  0.00    +0.000 OA
ATOM     30  C   UNL     1      45.410   4.625   9.006  0.00  0.00    +0.000 C 
ENDBRANCH  23  24
ENDBRANCH  20  23
ENDBRANCH  16  17
ENDBRANCH   1  16
TORSDOF 6
ENDMDL
MODEL 8
REMARK VINA RESULT:    -5.934      2.708      3.626
REMARK INTER + INTRA:          -8.465
REMARK INTER:                  -7.603
REMARK INTRA:                  -0.862
REMARK UNBOUND:                -0.623
REMARK  Name = 
REMARK  6 active torsions:
REMARK  status: ('A' for Active; 'I' for Inactive)
REMARK    1  A    between atoms: N_1  and  C_2
REMARK    2  A    between atoms: C_2  and  C_3
REMARK    3  A    between atoms: C_2  and  C_18
REMARK    4  A    between atoms: C_3  and  C_4
REMARK    5  A    between atoms: C_7  and  C_8
REMARK    6  A    between atoms: C_8  and  C_9
REMARK                            x       y       z     vdW  Elec       q    Type
REMARK                         _______ _______ _______ _____ _____    ______ ____
ROOT
ATOM      1  C   UNL     1      50.531   7.030  15.773  0.00  0.00    +0.000 C 
ENDROOT
BRANCH   1   2
ATOM      2  C   UNL     1      50.175   7.159  17.243  0.00  0.00    +0.000 A 
ATOM      3  C   UNL     1      50.281   8.348  17.949  0.00  0.00    +0.000 A 
ATOM      4  S   UNL     1      49.921   8.183  19.611  0.00  0.00    +0.000 S 
ATOM      5  C   UNL     1      49.600   6.520  19.440  0.00  0.00    +0.000 A 
ATOM      6  N   UNL     1      49.283   5.747  20.513  0.00  0.00    +0.000 NA
ATOM      7  C   UNL     1      49.083   4.502  20.228  0.00  0.00    +0.000 A 
ATOM      8  N   UNL     1      49.141   3.967  18.966  0.00  0.00    +0.000 N 
ATOM      9  C   UNL     1      49.375   4.725  17.844  0.00  0.00    +0.000 A 
ATOM     10  O   UNL     1      49.272   4.253  16.716  0.00  0.00    +0.000 OA
ATOM     11  C   UNL     1      49.707   6.112  18.124  0.00  0.00    +0.000 A 
ATOM     12  H   UNL     1      48.918   2.996  18.806  0.00  0.00    +0.000 HD
ENDBRANCH   1   2
BRANCH   1  13
ATOM     13  N   UNL     1      51.986   6.982  15.659  0.00  0.00    +0.000 NA
ATOM     14  H   UNL     1      52.283   7.460  14.812  0.00  0.00    +0.000 HD
ATOM     15  H   UNL     1      52.282   6.005  15.571  0.00  0.00    +0.000 HD
ENDBRANCH   1  13
BRANCH   1  16
ATOM     16  C   UNL     1      49.868   8.142  14.919  0.00  0.00    +0.000 C 
BRANCH  16  17
ATOM     17  C   UNL     1      48.558   7.783  14.266  0.00  0.00    +0.000 A 
ATOM     18  C   UNL     1      47.675   8.773  13.827  0.00  0.00    +0.000 A 
ATOM     19  C   UNL     1      46.463   8.416  13.235  0.00  0.00    +0.000 A 
ATOM     20  C   UNL     1      46.153   7.069  13.103  0.00  0.00    +0.000 A 
ATOM     21  N   UNL     1      46.979   6.086  13.544  0.00  0.00    +0.000 NA
ATOM     22  C   UNL     1      48.158   6.464  14.099  0.00  0.00    +0.000 A 
BRANCH  20  23
ATOM     23  C   UNL     1      44.913   6.626  12.380  0.00  0.00    +0.000 C 
BRANCH  23  24
ATOM     24  C   UNL     1      45.173   5.814  11.129  0.00  0.00    +0.000 C 
ATOM     25  O   UNL     1      45.966   6.215  10.272  0.00  0.00    +0.000 OA
ATOM     26  N   UNL     1      44.557   4.590  11.026  0.00  0.00    +0.000 N 
ATOM     27  C   UNL     1      44.838   3.686   9.950  0.00  0.00    +0.000 C 
ATOM     28  C   UNL     1      44.109   2.443  10.392  0.00  0.00    +0.000 C 
ATOM     29  O   UNL     1      43.002   2.904  11.189  0.00  0.00    +0.000 OA
ATOM     30  C   UNL     1      43.288   4.248  11.606  0.00  0.00    +0.000 C 
ENDBRANCH  23  24
ENDBRANCH  20  23
ENDBRANCH  16  17
ENDBRANCH   1  16
TORSDOF 6
ENDMDL
MODEL 9
REMARK VINA RESULT:    -5.927      2.172      3.212
REMARK INTER + INTRA:          -8.456
REMARK INTER:                  -7.991
REMARK INTRA:                  -0.465
REMARK UNBOUND:                -0.623
REMARK  Name = 
REMARK  6 active torsions:
REMARK  status: ('A' for Active; 'I' for Inactive)
REMARK    1  A    between atoms: N_1  and  C_2
REMARK    2  A    between atoms: C_2  and  C_3
REMARK    3  A    between atoms: C_2  and  C_18
REMARK    4  A    between atoms: C_3  and  C_4
REMARK    5  A    between atoms: C_7  and  C_8
REMARK    6  A    between atoms: C_8  and  C_9
REMARK                            x       y       z     vdW  Elec       q    Type
REMARK                         _______ _______ _______ _____ _____    ______ ____
ROOT
ATOM      1  C   UNL     1      49.598   2.895  17.545  0.00  0.00    +0.000 C 
ENDROOT
BRANCH   1   2
ATOM      2  C   UNL     1      51.033   3.360  17.714  0.00  0.00    +0.000 A 
ATOM      3  C   UNL     1      51.396   4.696  17.782  0.00  0.00    +0.000 A 
ATOM      4  S   UNL     1      53.086   4.937  17.861  0.00  0.00    +0.000 S 
ATOM      5  C   UNL     1      53.388   3.262  17.819  0.00  0.00    +0.000 A 
ATOM      6  N   UNL     1      54.657   2.772  17.802  0.00  0.00    +0.000 NA
ATOM      7  C   UNL     1      54.726   1.482  17.754  0.00  0.00    +0.000 A 
ATOM      8  N   UNL     1      53.644   0.638  17.751  0.00  0.00    +0.000 N 
ATOM      9  C   UNL     1      52.348   1.085  17.852  0.00  0.00    +0.000 A 
ATOM     10  O   UNL     1      51.410   0.308  18.001  0.00  0.00    +0.000 OA
ATOM     11  C   UNL     1      52.215   2.531  17.807  0.00  0.00    +0.000 A 
ATOM     12  H   UNL     1      53.771  -0.363  17.770  0.00  0.00    +0.000 HD
ENDBRANCH   1   2
BRANCH   1  13
ATOM     13  N   UNL     1      49.507   2.144  16.297  0.00  0.00    +0.000 NA
ATOM     14  H   UNL     1      49.639   2.769  15.506  0.00  0.00    +0.000 HD
ATOM     15  H   UNL     1      48.564   1.750  16.212  0.00  0.00    +0.000 HD
ENDBRANCH   1  13
BRANCH   1  16
ATOM     16  C   UNL     1      48.594   4.073  17.647  0.00  0.00    +0.000 C 
BRANCH  16  17
ATOM     17  C   UNL     1      48.186   4.708  16.342  0.00  0.00    +0.000 A 
ATOM     18  C   UNL     1      48.798   5.878  15.886  0.00  0.00    +0.000 A 
ATOM     19  C   UNL     1      48.396   6.454  14.680  0.00  0.00    +0.000 A 
ATOM     20  C   UNL     1      47.376   5.850  13.957  0.00  0.00    +0.000 A 
ATOM     21  N   UNL     1      46.744   4.728  14.388  0.00  0.00    +0.000 NA
ATOM     22  C   UNL     1      47.170   4.182  15.555  0.00  0.00    +0.000 A 
BRANCH  20  23
ATOM     23  C   UNL     1      46.974   6.365  12.604  0.00  0.00    +0.000 C 
BRANCH  23  24
ATOM     24  C   UNL     1      45.481   6.367  12.351  0.00  0.00    +0.000 C 
ATOM     25  O   UNL     1      44.761   7.237  12.850  0.00  0.00    +0.000 OA
ATOM     26  N   UNL     1      44.980   5.421  11.491  0.00  0.00    +0.000 N 
ATOM     27  C   UNL     1      43.608   5.419  11.079  0.00  0.00    +0.000 C 
ATOM     28  C   UNL     1      43.610   4.361  10.004  0.00  0.00    +0.000 C 
ATOM     29  O   UNL     1      44.658   3.443  10.364  0.00  0.00    +0.000 OA
ATOM     30  C   UNL     1      45.534   4.112  11.284  0.00  0.00    +0.000 C 
ENDBRANCH  23  24
ENDBRANCH  20  23
ENDBRANCH  16  17
ENDBRANCH   1  16
TORSDOF 6
ENDMDL
