MODEL 1
REMARK VINA RESULT:    -8.119      0.000      0.000
REMARK INTER + INTRA:         -12.441
REMARK INTER:                 -11.678
REMARK INTRA:                  -0.763
REMARK UNBOUND:                -0.763
REMARK  Name = 
REMARK  9 active torsions:
REMARK  status: ('A' for Active; 'I' for Inactive)
REMARK    1  A    between atoms: C_1  and  C_2
REMARK    2  A    between atoms: C_2  and  O_3
REMARK    3  A    between atoms: O_3  and  C_4
REMARK    4  A    between atoms: C_8  and  C_9
REMARK    5  A    between atoms: C_9  and  C_10
REMARK    6  A    between atoms: C_10  and  N_11
REMARK    7  A    between atoms: N_11  and  C_12
REMARK    8  A    between atoms: C_15  and  C_16
REMARK    9  A    between atoms: C_23  and  O_24
REMARK                            x       y       z     vdW  Elec       q    Type
REMARK                         _______ _______ _______ _____ _____    ______ ____
ROOT
ATOM      1  C   UNL     1      43.633   4.313  12.896  0.00  0.00    +0.000 C 
ENDROOT
BRANCH   1   6
ATOM      2  C   UNL     1      47.161   5.037  14.277  0.00  0.00    +0.000 A 
ATOM      3  C   UNL     1      47.444   6.235  13.632  0.00  0.00    +0.000 A 
ATOM      4  C   UNL     1      46.474   6.841  12.831  0.00  0.00    +0.000 A 
ATOM      5  C   UNL     1      45.237   6.230  12.636  0.00  0.00    +0.000 A 
ATOM      6  C   UNL     1      44.953   4.989  13.218  0.00  0.00    +0.000 A 
ATOM      7  C   UNL     1      45.930   4.417  14.059  0.00  0.00    +0.000 A 
BRANCH   2   8
ATOM      8  O   UNL     1      47.995   4.362  15.140  0.00  0.00    +0.000 OA
BRANCH   8  10
ATOM      9  C   UNL     1      49.284   6.034  16.373  0.00  0.00    +0.000 C 
ATOM     10  C   UNL     1      48.285   4.882  16.463  0.00  0.00    +0.000 C 
ATOM     11  C   UNL     1      47.085   5.046  17.444  0.00  0.00    +0.000 C 
ATOM     12  C   UNL     1      47.452   3.708  18.100  0.00  0.00    +0.000 C 
ATOM     13  C   UNL     1      48.832   3.790  17.436  0.00  0.00    +0.000 C 
BRANCH  12  14
ATOM     14  O   UNL     1      46.641   2.570  17.747  0.00  0.00    +0.000 OA
ATOM     15  H   UNL     1      46.367   2.170  18.593  0.00  0.00    +0.000 HD
ENDBRANCH  12  14
ENDBRANCH   8  10
ENDBRANCH   2   8
ENDBRANCH   1   6
BRANCH   1  16
ATOM     16  C   UNL     1      43.710   3.339  11.717  0.00  0.00    +0.000 C 
BRANCH  16  17
ATOM     17  N   UNL     1      43.682   4.005  10.414  0.00  0.00    +0.000 N 
ATOM     18  H   UNL     1      43.702   5.023  10.500  0.00  0.00    +0.000 HD
BRANCH  17  19
ATOM     19  C   UNL     1      44.657   3.555   9.500  0.00  0.00    +0.000 A 
ATOM     20  C   UNL     1      44.961   2.200   9.315  0.00  0.00    +0.000 A 
ATOM     21  C   UNL     1      45.894   1.796   8.365  0.00  0.00    +0.000 A 
ATOM     22  C   UNL     1      46.485   2.768   7.580  0.00  0.00    +0.000 A 
ATOM     23  N   UNL     1      46.204   4.096   7.674  0.00  0.00    +0.000 NA
ATOM     24  C   UNL     1      45.287   4.442   8.616  0.00  0.00    +0.000 A 
BRANCH  22  25
ATOM     25  C   UNL     1      47.484   2.359   6.542  0.00  0.00    +0.000 C 
ATOM     26  N   UNL     1      47.441   3.067   5.376  0.00  0.00    +0.000 N 
ATOM     27  O   UNL     1      48.288   1.449   6.717  0.00  0.00    +0.000 OA
ATOM     28  H   UNL     1      46.748   3.793   5.264  0.00  0.00    +0.000 HD
ATOM     29  H   UNL     1      48.068   2.823   4.622  0.00  0.00    +0.000 HD
ENDBRANCH  22  25
ENDBRANCH  17  19
ENDBRANCH  16  17
ENDBRANCH   1  16
TORSDOF 8
ENDMDL
MODEL 2
REMARK VINA RESULT:    -7.987      1.237      1.380
REMARK INTER + INTRA:         -12.252
REMARK INTER:                 -11.630
REMARK INTRA:                  -0.622
REMARK UNBOUND:                -0.763
REMARK  Name = 
REMARK  9 active torsions:
REMARK  status: ('A' for Active; 'I' for Inactive)
REMARK    1  A    between atoms: C_1  and  C_2
REMARK    2  A    between atoms: C_2  and  O_3
REMARK    3  A    between atoms: O_3  and  C_4
REMARK    4  A    between atoms: C_8  and  C_9
REMARK    5  A    between atoms: C_9  and  C_10
REMARK    6  A    between atoms: C_10  and  N_11
REMARK    7  A    between atoms: N_11  and  C_12
REMARK    8  A    between atoms: C_15  and  C_16
REMARK    9  A    between atoms: C_23  and  O_24
REMARK                            x       y       z     vdW  Elec       q    Type
REMARK                         _______ _______ _______ _____ _____    ______ ____
ROOT
ATOM      1  C   UNL     1      45.340   4.797  12.265  0.00  0.00    +0.000 C 
ENDROOT
BRANCH   1   6
ATOM      2  C   UNL     1      48.083   6.084  14.653  0.00  0.00    +0.000 A 
ATOM      3  C   UNL     1      48.077   7.437  14.338  0.00  0.00    +0.000 A 
ATOM      4  C   UNL     1      47.141   7.938  13.430  0.00  0.00    +0.000 A 
ATOM      5  C   UNL     1      46.241   7.081  12.801  0.00  0.00    +0.000 A 
ATOM      6  C   UNL     1      46.272   5.704  13.049  0.00  0.00    +0.000 A 
ATOM      7  C   UNL     1      47.194   5.227  14.002  0.00  0.00    +0.000 A 
BRANCH   2   8
ATOM      8  O   UNL     1      48.904   5.466  15.570  0.00  0.00    +0.000 OA
BRANCH   8  10
ATOM      9  C   UNL     1      48.095   6.103  17.788  0.00  0.00    +0.000 C 
ATOM     10  C   UNL     1      48.377   4.954  16.821  0.00  0.00    +0.000 C 
ATOM     11  C   UNL     1      47.323   3.810  16.738  0.00  0.00    +0.000 C 
ATOM     12  C   UNL     1      48.432   2.782  17.006  0.00  0.00    +0.000 C 
ATOM     13  C   UNL     1      49.332   3.922  17.502  0.00  0.00    +0.000 C 
BRANCH  12  14
ATOM     14  O   UNL     1      48.913   2.038  15.871  0.00  0.00    +0.000 OA
ATOM     15  H   UNL     1      48.304   2.248  15.140  0.00  0.00    +0.000 HD
ENDBRANCH  12  14
ENDBRANCH   8  10
ENDBRANCH   2   8
ENDBRANCH   1   6
BRANCH   1  16
ATOM     16  C   UNL     1      44.470   5.538  11.246  0.00  0.00    +0.000 C 
BRANCH  16  17
ATOM     17  N   UNL     1      43.850   4.650  10.262  0.00  0.00    +0.000 N 
ATOM     18  H   UNL     1      43.162   5.136   9.682  0.00  0.00    +0.000 HD
BRANCH  17  19
ATOM     19  C   UNL     1      44.760   3.924   9.466  0.00  0.00    +0.000 A 
ATOM     20  C   UNL     1      44.816   2.524   9.457  0.00  0.00    +0.000 A 
ATOM     21  C   UNL     1      45.694   1.846   8.617  0.00  0.00    +0.000 A 
ATOM     22  C   UNL     1      46.482   2.591   7.761  0.00  0.00    +0.000 A 
ATOM     23  N   UNL     1      46.446   3.950   7.684  0.00  0.00    +0.000 NA
ATOM     24  C   UNL     1      45.574   4.567   8.524  0.00  0.00    +0.000 A 
BRANCH  22  25
ATOM     25  C   UNL     1      47.427   1.885   6.839  0.00  0.00    +0.000 C 
ATOM     26  N   UNL     1      48.507   2.616   6.433  0.00  0.00    +0.000 N 
ATOM     27  O   UNL     1      47.250   0.731   6.465  0.00  0.00    +0.000 OA
ATOM     28  H   UNL     1      48.602   3.572   6.747  0.00  0.00    +0.000 HD
ATOM     29  H   UNL     1      49.169   2.210   5.787  0.00  0.00    +0.000 HD
ENDBRANCH  22  25
ENDBRANCH  17  19
ENDBRANCH  16  17
ENDBRANCH   1  16
TORSDOF 8
ENDMDL
MODEL 3
REMARK VINA RESULT:    -7.850      3.521      5.298
REMARK INTER + INTRA:         -12.055
REMARK INTER:                 -11.139
REMARK INTRA:                  -0.916
REMARK UNBOUND:                -0.763
REMARK  Name = 
REMARK  9 active torsions:
REMARK  status: ('A' for Active; 'I' for Inactive)
REMARK    1  A    between atoms: C_1  and  C_2
REMARK    2  A    between atoms: C_2  and  O_3
REMARK    3  A    between atoms: O_3  and  C_4
REMARK    4  A    between atoms: C_8  and  C_9
REMARK    5  A    between atoms: C_9  and  C_10
REMARK    6  A    between atoms: C_10  and  N_11
REMARK    7  A    between atoms: N_11  and  C_12
REMARK    8  A    between atoms: C_15  and  C_16
REMARK    9  A    between atoms: C_23  and  O_24
REMARK                            x       y       z     vdW  Elec       q    Type
REMARK                         _______ _______ _______ _____ _____    ______ ____
ROOT
ATOM      1  C   UNL     1      44.958   4.758  12.100  0.00  0.00    +0.000 C 
ENDROOT
BRANCH   1   6
ATOM      2  C   UNL     1      45.460   8.567  12.445  0.00  0.00    +0.000 A 
ATOM      3  C   UNL     1      46.847   8.639  12.457  0.00  0.00    +0.000 A 
ATOM      4  C   UNL     1      47.607   7.482  12.269  0.00  0.00    +0.000 A 
ATOM      5  C   UNL     1      46.983   6.245  12.116  0.00  0.00    +0.000 A 
ATOM      6  C   UNL     1      45.589   6.137  12.169  0.00  0.00    +0.000 A 
ATOM      7  C   UNL     1      44.841   7.323  12.314  0.00  0.00    +0.000 A 
BRANCH   2   8
ATOM      8  O   UNL     1      44.590   9.629  12.556  0.00  0.00    +0.000 OA
BRANCH   8  10
ATOM      9  C   UNL     1      45.436  11.516  11.251  0.00  0.00    +0.000 C 
ATOM     10  C   UNL     1      44.314  10.493  11.425  0.00  0.00    +0.000 C 
ATOM     11  C   UNL     1      43.747   9.824  10.136  0.00  0.00    +0.000 C 
ATOM     12  C   UNL     1      42.330  10.242  10.556  0.00  0.00    +0.000 C 
ATOM     13  C   UNL     1      42.946  11.236  11.550  0.00  0.00    +0.000 C 
BRANCH  12  14
ATOM     14  O   UNL     1      41.491   9.215  11.118  0.00  0.00    +0.000 OA
ATOM     15  H   UNL     1      40.624   9.635  11.266  0.00  0.00    +0.000 HD
ENDBRANCH  12  14
ENDBRANCH   8  10
ENDBRANCH   2   8
ENDBRANCH   1   6
BRANCH   1  16
ATOM     16  C   UNL     1      43.608   4.733  11.377  0.00  0.00    +0.000 C 
BRANCH  16  17
ATOM     17  N   UNL     1      43.718   4.975   9.938  0.00  0.00    +0.000 N 
ATOM     18  H   UNL     1      43.883   5.961   9.724  0.00  0.00    +0.000 HD
BRANCH  17  19
ATOM     19  C   UNL     1      44.645   4.148   9.270  0.00  0.00    +0.000 A 
ATOM     20  C   UNL     1      44.611   2.750   9.343  0.00  0.00    +0.000 A 
ATOM     21  C   UNL     1      45.513   1.971   8.626  0.00  0.00    +0.000 A 
ATOM     22  C   UNL     1      46.421   2.615   7.807  0.00  0.00    +0.000 A 
ATOM     23  N   UNL     1      46.480   3.966   7.652  0.00  0.00    +0.000 NA
ATOM     24  C   UNL     1      45.580   4.684   8.373  0.00  0.00    +0.000 A 
BRANCH  22  25
ATOM     25  C   UNL     1      47.395   1.799   7.015  0.00  0.00    +0.000 C 
ATOM     26  N   UNL     1      48.476   2.480   6.534  0.00  0.00    +0.000 N 
ATOM     27  O   UNL     1      47.240   0.601   6.805  0.00  0.00    +0.000 OA
ATOM     28  H   UNL     1      48.554   3.472   6.710  0.00  0.00    +0.000 HD
ATOM     29  H   UNL     1      49.158   1.996   5.966  0.00  0.00    +0.000 HD
ENDBRANCH  22  25
ENDBRANCH  17  19
ENDBRANCH  16  17
ENDBRANCH   1  16
TORSDOF 8
ENDMDL
MODEL 4
REMARK VINA RESULT:    -7.741      2.650      3.992
REMARK INTER + INTRA:         -11.897
REMARK INTER:                 -10.832
REMARK INTRA:                  -1.066
REMARK UNBOUND:                -0.763
REMARK  Name = 
REMARK  9 active torsions:
REMARK  status: ('A' for Active; 'I' for Inactive)
REMARK    1  A    between atoms: C_1  and  C_2
REMARK    2  A    between atoms: C_2  and  O_3
REMARK    3  A    between atoms: O_3  and  C_4
REMARK    4  A    between atoms: C_8  and  C_9
REMARK    5  A    between atoms: C_9  and  C_10
REMARK    6  A    between atoms: C_10  and  N_11
REMARK    7  A    between atoms: N_11  and  C_12
REMARK    8  A    between atoms: C_15  and  C_16
REMARK    9  A    between atoms: C_23  and  O_24
REMARK                            x       y       z     vdW  Elec       q    Type
REMARK                         _______ _______ _______ _____ _____    ______ ____
ROOT
ATOM      1  C   UNL     1      43.638   5.529  12.203  0.00  0.00    +0.000 C 
ENDROOT
BRANCH   1   6
ATOM      2  C   UNL     1      47.350   6.580  12.179  0.00  0.00    +0.000 A 
ATOM      3  C   UNL     1      47.827   5.846  13.259  0.00  0.00    +0.000 A 
ATOM      4  C   UNL     1      46.980   4.960  13.929  0.00  0.00    +0.000 A 
ATOM      5  C   UNL     1      45.644   4.840  13.551  0.00  0.00    +0.000 A 
ATOM      6  C   UNL     1      45.122   5.619  12.512  0.00  0.00    +0.000 A 
ATOM      7  C   UNL     1      46.005   6.473  11.821  0.00  0.00    +0.000 A 
BRANCH   2   8
ATOM      8  O   UNL     1      48.084   7.439  11.393  0.00  0.00    +0.000 OA
BRANCH   8  10
ATOM      9  C   UNL     1      50.320   8.084  12.146  0.00  0.00    +0.000 C 
ATOM     10  C   UNL     1      48.862   8.513  11.981  0.00  0.00    +0.000 C 
ATOM     11  C   UNL     1      48.593   9.958  11.462  0.00  0.00    +0.000 C 
ATOM     12  C   UNL     1      47.684  10.212  12.673  0.00  0.00    +0.000 C 
ATOM     13  C   UNL     1      48.298   8.984  13.359  0.00  0.00    +0.000 C 
BRANCH  12  14
ATOM     14  O   UNL     1      46.263  10.167  12.438  0.00  0.00    +0.000 OA
ATOM     15  H   UNL     1      45.950   9.356  12.878  0.00  0.00    +0.000 HD
ENDBRANCH  12  14
ENDBRANCH   8  10
ENDBRANCH   2   8
ENDBRANCH   1   6
BRANCH   1  16
ATOM     16  C   UNL     1      43.331   4.974  10.810  0.00  0.00    +0.000 C 
BRANCH  16  17
ATOM     17  N   UNL     1      43.719   3.573  10.646  0.00  0.00    +0.000 N 
ATOM     18  H   UNL     1      42.909   2.950  10.598  0.00  0.00    +0.000 HD
BRANCH  17  19
ATOM     19  C   UNL     1      44.610   3.328   9.580  0.00  0.00    +0.000 A 
ATOM     20  C   UNL     1      45.223   4.353   8.848  0.00  0.00    +0.000 A 
ATOM     21  C   UNL     1      46.136   4.068   7.838  0.00  0.00    +0.000 A 
ATOM     22  C   UNL     1      46.453   2.744   7.603  0.00  0.00    +0.000 A 
ATOM     23  N   UNL     1      45.932   1.701   8.306  0.00  0.00    +0.000 NA
ATOM     24  C   UNL     1      45.044   2.029   9.281  0.00  0.00    +0.000 A 
BRANCH  22  25
ATOM     25  C   UNL     1      47.442   2.410   6.530  0.00  0.00    +0.000 C 
ATOM     26  N   UNL     1      47.310   3.118   5.370  0.00  0.00    +0.000 N 
ATOM     27  O   UNL     1      48.314   1.559   6.672  0.00  0.00    +0.000 OA
ATOM     28  H   UNL     1      46.563   3.793   5.286  0.00  0.00    +0.000 HD
ATOM     29  H   UNL     1      47.926   2.923   4.593  0.00  0.00    +0.000 HD
ENDBRANCH  22  25
ENDBRANCH  17  19
ENDBRANCH  16  17
ENDBRANCH   1  16
TORSDOF 8
ENDMDL
MODEL 5
REMARK VINA RESULT:    -7.515      1.785      2.221
REMARK INTER + INTRA:         -11.572
REMARK INTER:                 -10.414
REMARK INTRA:                  -1.158
REMARK UNBOUND:                -0.763
REMARK  Name = 
REMARK  9 active torsions:
REMARK  status: ('A' for Active; 'I' for Inactive)
REMARK    1  A    between atoms: C_1  and  C_2
REMARK    2  A    between atoms: C_2  and  O_3
REMARK    3  A    between atoms: O_3  and  C_4
REMARK    4  A    between atoms: C_8  and  C_9
REMARK    5  A    between atoms: C_9  and  C_10
REMARK    6  A    between atoms: C_10  and  N_11
REMARK    7  A    between atoms: N_11  and  C_12
REMARK    8  A    between atoms: C_15  and  C_16
REMARK    9  A    between atoms: C_23  and  O_24
REMARK                            x       y       z     vdW  Elec       q    Type
REMARK                         _______ _______ _______ _____ _____    ______ ____
ROOT
ATOM      1  C   UNL     1      44.433   4.955  12.872  0.00  0.00    +0.000 C 
ENDROOT
BRANCH   1   6
ATOM      2  C   UNL     1      47.973   6.452  13.194  0.00  0.00    +0.000 A 
ATOM      3  C   UNL     1      47.952   7.377  12.157  0.00  0.00    +0.000 A 
ATOM      4  C   UNL     1      46.780   7.573  11.421  0.00  0.00    +0.000 A 
ATOM      5  C   UNL     1      45.644   6.813  11.690  0.00  0.00    +0.000 A 
ATOM      6  C   UNL     1      45.661   5.827  12.683  0.00  0.00    +0.000 A 
ATOM      7  C   UNL     1      46.839   5.678  13.443  0.00  0.00    +0.000 A 
BRANCH   2   8
ATOM      8  O   UNL     1      49.033   6.201  14.037  0.00  0.00    +0.000 OA
BRANCH   8  10
ATOM      9  C   UNL     1      50.673   8.011  14.151  0.00  0.00    +0.000 C 
ATOM     10  C   UNL     1      49.577   7.242  14.887  0.00  0.00    +0.000 C 
ATOM     11  C   UNL     1      48.568   8.069  15.739  0.00  0.00    +0.000 C 
ATOM     12  C   UNL     1      48.880   7.181  16.952  0.00  0.00    +0.000 C 
ATOM     13  C   UNL     1      50.143   6.689  16.234  0.00  0.00    +0.000 C 
BRANCH  12  14
ATOM     14  O   UNL     1      47.904   6.176  17.287  0.00  0.00    +0.000 OA
ATOM     15  H   UNL     1      47.415   5.999  16.463  0.00  0.00    +0.000 HD
ENDBRANCH  12  14
ENDBRANCH   8  10
ENDBRANCH   2   8
ENDBRANCH   1   6
BRANCH   1  16
ATOM     16  C   UNL     1      44.472   3.651  12.071  0.00  0.00    +0.000 C 
BRANCH  16  17
ATOM     17  N   UNL     1      43.828   3.758  10.761  0.00  0.00    +0.000 N 
ATOM     18  H   UNL     1      43.366   4.660  10.630  0.00  0.00    +0.000 HD
BRANCH  17  19
ATOM     19  C   UNL     1      44.664   3.454   9.666  0.00  0.00    +0.000 A 
ATOM     20  C   UNL     1      45.290   4.437   8.889  0.00  0.00    +0.000 A 
ATOM     21  C   UNL     1      46.149   4.093   7.850  0.00  0.00    +0.000 A 
ATOM     22  C   UNL     1      46.399   2.752   7.630  0.00  0.00    +0.000 A 
ATOM     23  N   UNL     1      45.862   1.747   8.374  0.00  0.00    +0.000 NA
ATOM     24  C   UNL     1      45.029   2.132   9.377  0.00  0.00    +0.000 A 
BRANCH  22  25
ATOM     25  C   UNL     1      47.329   2.356   6.526  0.00  0.00    +0.000 C 
ATOM     26  N   UNL     1      47.230   3.094   5.382  0.00  0.00    +0.000 N 
ATOM     27  O   UNL     1      48.127   1.430   6.631  0.00  0.00    +0.000 OA
ATOM     28  H   UNL     1      46.543   3.833   5.329  0.00  0.00    +0.000 HD
ATOM     29  H   UNL     1      47.808   2.861   4.586  0.00  0.00    +0.000 HD
ENDBRANCH  22  25
ENDBRANCH  17  19
ENDBRANCH  16  17
ENDBRANCH   1  16
TORSDOF 8
ENDMDL
MODEL 6
REMARK VINA RESULT:    -7.444      2.260      3.166
REMARK INTER + INTRA:         -11.470
REMARK INTER:                 -10.626
REMARK INTRA:                  -0.844
REMARK UNBOUND:                -0.763
REMARK  Name = 
REMARK  9 active torsions:
REMARK  status: ('A' for Active; 'I' for Inactive)
REMARK    1  A    between atoms: C_1  and  C_2
REMARK    2  A    between atoms: C_2  and  O_3
REMARK    3  A    between atoms: O_3  and  C_4
REMARK    4  A    between atoms: C_8  and  C_9
REMARK    5  A    between atoms: C_9  and  C_10
REMARK    6  A    between atoms: C_10  and  N_11
REMARK    7  A    between atoms: N_11  and  C_12
REMARK    8  A    between atoms: C_15  and  C_16
REMARK    9  A    between atoms: C_23  and  O_24
REMARK                            x       y       z     vdW  Elec       q    Type
REMARK                         _______ _______ _______ _____ _____    ______ ____
ROOT
ATOM      1  C   UNL     1      43.685   6.090  11.758  0.00  0.00    +0.000 C 
ENDROOT
BRANCH   1   6
ATOM      2  C   UNL     1      47.430   6.208  12.675  0.00  0.00    +0.000 A 
ATOM      3  C   UNL     1      47.468   5.272  13.701  0.00  0.00    +0.000 A 
ATOM      4  C   UNL     1      46.317   4.552  14.032  0.00  0.00    +0.000 A 
ATOM      5  C   UNL     1      45.116   4.799  13.370  0.00  0.00    +0.000 A 
ATOM      6  C   UNL     1      45.035   5.785  12.381  0.00  0.00    +0.000 A 
ATOM      7  C   UNL     1      46.219   6.468  12.032  0.00  0.00    +0.000 A 
BRANCH   2   8
ATOM      8  O   UNL     1      48.495   6.942  12.204  0.00  0.00    +0.000 OA
BRANCH   8  10
ATOM      9  C   UNL     1      48.384   9.360  11.855  0.00  0.00    +0.000 C 
ATOM     10  C   UNL     1      48.832   8.229  12.781  0.00  0.00    +0.000 C 
ATOM     11  C   UNL     1      48.587   8.413  14.309  0.00  0.00    +0.000 C 
ATOM     12  C   UNL     1      50.072   8.123  14.571  0.00  0.00    +0.000 C 
ATOM     13  C   UNL     1      50.357   8.376  13.085  0.00  0.00    +0.000 C 
BRANCH  12  14
ATOM     14  O   UNL     1      50.398   6.811  15.068  0.00  0.00    +0.000 OA
ATOM     15  H   UNL     1      50.556   6.923  16.023  0.00  0.00    +0.000 HD
ENDBRANCH  12  14
ENDBRANCH   8  10
ENDBRANCH   2   8
ENDBRANCH   1   6
BRANCH   1  16
ATOM     16  C   UNL     1      43.353   5.218  10.544  0.00  0.00    +0.000 C 
BRANCH  16  17
ATOM     17  N   UNL     1      43.850   3.847  10.664  0.00  0.00    +0.000 N 
ATOM     18  H   UNL     1      43.091   3.168  10.758  0.00  0.00    +0.000 HD
BRANCH  17  19
ATOM     19  C   UNL     1      44.757   3.458   9.656  0.00  0.00    +0.000 A 
ATOM     20  C   UNL     1      45.056   2.118   9.375  0.00  0.00    +0.000 A 
ATOM     21  C   UNL     1      45.916   1.777   8.337  0.00  0.00    +0.000 A 
ATOM     22  C   UNL     1      46.439   2.796   7.564  0.00  0.00    +0.000 A 
ATOM     23  N   UNL     1      46.156   4.114   7.751  0.00  0.00    +0.000 NA
ATOM     24  C   UNL     1      45.311   4.398   8.777  0.00  0.00    +0.000 A 
BRANCH  22  25
ATOM     25  C   UNL     1      47.359   2.454   6.433  0.00  0.00    +0.000 C 
ATOM     26  N   UNL     1      47.295   3.287   5.353  0.00  0.00    +0.000 N 
ATOM     27  O   UNL     1      48.119   1.493   6.463  0.00  0.00    +0.000 OA
ATOM     28  H   UNL     1      46.638   4.054   5.359  0.00  0.00    +0.000 HD
ATOM     29  H   UNL     1      47.868   3.098   4.542  0.00  0.00    +0.000 HD
ENDBRANCH  22  25
ENDBRANCH  17  19
ENDBRANCH  16  17
ENDBRANCH   1  16
TORSDOF 8
ENDMDL
MODEL 7
REMARK VINA RESULT:    -7.328      3.101      4.517
REMARK INTER + INTRA:         -11.304
REMARK INTER:                 -10.505
REMARK INTRA:                  -0.799
REMARK UNBOUND:                -0.763
REMARK  Name = 
REMARK  9 active torsions:
REMARK  status: ('A' for Active; 'I' for Inactive)
REMARK    1  A    between atoms: C_1  and  C_2
REMARK    2  A    between atoms: C_2  and  O_3
REMARK    3  A    between atoms: O_3  and  C_4
REMARK    4  A    between atoms: C_8  and  C_9
REMARK    5  A    between atoms: C_9  and  C_10
REMARK    6  A    between atoms: C_10  and  N_11
REMARK    7  A    between atoms: N_11  and  C_12
REMARK    8  A    between atoms: C_15  and  C_16
REMARK    9  A    between atoms: C_23  and  O_24
REMARK                            x       y       z     vdW  Elec       q    Type
REMARK                         _______ _______ _______ _____ _____    ______ ____
ROOT
ATOM      1  C   UNL     1      44.680   6.495  11.519  0.00  0.00    +0.000 C 
ENDROOT
BRANCH   1   6
ATOM      2  C   UNL     1      48.445   7.131  12.060  0.00  0.00    +0.000 A 
ATOM      3  C   UNL     1      48.621   6.554  13.312  0.00  0.00    +0.000 A 
ATOM      4  C   UNL     1      47.558   5.893  13.931  0.00  0.00    +0.000 A 
ATOM      5  C   UNL     1      46.305   5.849  13.323  0.00  0.00    +0.000 A 
ATOM      6  C   UNL     1      46.084   6.482  12.095  0.00  0.00    +0.000 A 
ATOM      7  C   UNL     1      47.183   7.104  11.467  0.00  0.00    +0.000 A 
BRANCH   2   8
ATOM      8  O   UNL     1      49.415   7.757  11.310  0.00  0.00    +0.000 OA
BRANCH   8  10
ATOM      9  C   UNL     1      49.318  10.060  12.127  0.00  0.00    +0.000 C 
ATOM     10  C   UNL     1      50.203   8.844  11.860  0.00  0.00    +0.000 C 
ATOM     11  C   UNL     1      51.267   8.480  12.940  0.00  0.00    +0.000 C 
ATOM     12  C   UNL     1      52.355   8.494  11.857  0.00  0.00    +0.000 C 
ATOM     13  C   UNL     1      51.393   9.256  10.937  0.00  0.00    +0.000 C 
BRANCH  12  14
ATOM     14  O   UNL     1      52.813   7.213  11.381  0.00  0.00    +0.000 OA
ATOM     15  H   UNL     1      52.766   7.262  10.409  0.00  0.00    +0.000 HD
ENDBRANCH  12  14
ENDBRANCH   8  10
ENDBRANCH   2   8
ENDBRANCH   1   6
BRANCH   1  16
ATOM     16  C   UNL     1      44.119   5.100  11.228  0.00  0.00    +0.000 C 
BRANCH  16  17
ATOM     17  N   UNL     1      43.775   4.897   9.820  0.00  0.00    +0.000 N 
ATOM     18  H   UNL     1      43.710   5.780   9.307  0.00  0.00    +0.000 HD
BRANCH  17  19
ATOM     19  C   UNL     1      44.596   3.975   9.138  0.00  0.00    +0.000 A 
ATOM     20  C   UNL     1      45.595   4.364   8.238  0.00  0.00    +0.000 A 
ATOM     21  C   UNL     1      46.418   3.424   7.627  0.00  0.00    +0.000 A 
ATOM     22  C   UNL     1      46.248   2.094   7.964  0.00  0.00    +0.000 A 
ATOM     23  N   UNL     1      45.330   1.650   8.864  0.00  0.00    +0.000 NA
ATOM     24  C   UNL     1      44.549   2.606   9.434  0.00  0.00    +0.000 A 
BRANCH  22  25
ATOM     25  C   UNL     1      47.129   1.063   7.329  0.00  0.00    +0.000 C 
ATOM     26  N   UNL     1      46.846  -0.232   7.656  0.00  0.00    +0.000 N 
ATOM     27  O   UNL     1      48.047   1.352   6.569  0.00  0.00    +0.000 OA
ATOM     28  H   UNL     1      46.096  -0.424   8.305  0.00  0.00    +0.000 HD
ATOM     29  H   UNL     1      47.420  -0.977   7.287  0.00  0.00    +0.000 HD
ENDBRANCH  22  25
ENDBRANCH  17  19
ENDBRANCH  16  17
ENDBRANCH   1  16
TORSDOF 8
ENDMDL
MODEL 8
REMARK VINA RESULT:    -7.123      2.740      3.920
REMARK INTER + INTRA:         -11.009
REMARK INTER:                 -10.281
REMARK INTRA:                  -0.727
REMARK UNBOUND:                -0.763
REMARK  Name = 
REMARK  9 active torsions:
REMARK  status: ('A' for Active; 'I' for Inactive)
REMARK    1  A    between atoms: C_1  and  C_2
REMARK    2  A    between atoms: C_2  and  O_3
REMARK    3  A    between atoms: O_3  and  C_4
REMARK    4  A    between atoms: C_8  and  C_9
REMARK    5  A    between atoms: C_9  and  C_10
REMARK    6  A    between atoms: C_10  and  N_11
REMARK    7  A    between atoms: N_11  and  C_12
REMARK    8  A    between atoms: C_15  and  C_16
REMARK    9  A    between atoms: C_23  and  O_24
REMARK                            x       y       z     vdW  Elec       q    Type
REMARK                         _______ _______ _______ _____ _____    ______ ____
ROOT
ATOM      1  C   UNL     1      45.414   4.393  11.979  0.00  0.00    +0.000 C 
ENDROOT
BRANCH   1   6
ATOM      2  C   UNL     1      46.606   7.941  12.912  0.00  0.00    +0.000 A 
ATOM      3  C   UNL     1      45.702   8.709  12.188  0.00  0.00    +0.000 A 
ATOM      4  C   UNL     1      44.670   8.089  11.479  0.00  0.00    +0.000 A 
ATOM      5  C   UNL     1      44.567   6.700  11.455  0.00  0.00    +0.000 A 
ATOM      6  C   UNL     1      45.506   5.902  12.118  0.00  0.00    +0.000 A 
ATOM      7  C   UNL     1      46.512   6.549  12.864  0.00  0.00    +0.000 A 
BRANCH   2   8
ATOM      8  O   UNL     1      47.629   8.417  13.700  0.00  0.00    +0.000 OA
BRANCH   8  10
ATOM      9  C   UNL     1      49.788   7.393  14.222  0.00  0.00    +0.000 C 
ATOM     10  C   UNL     1      49.012   8.311  13.278  0.00  0.00    +0.000 C 
ATOM     11  C   UNL     1      49.284   8.164  11.750  0.00  0.00    +0.000 C 
ATOM     12  C   UNL     1      49.574   9.670  11.667  0.00  0.00    +0.000 C 
ATOM     13  C   UNL     1      49.727   9.697  13.194  0.00  0.00    +0.000 C 
BRANCH  12  14
ATOM     14  O   UNL     1      48.535  10.501  11.116  0.00  0.00    +0.000 OA
ATOM     15  H   UNL     1      47.907  10.657  11.845  0.00  0.00    +0.000 HD
ENDBRANCH  12  14
ENDBRANCH   8  10
ENDBRANCH   2   8
ENDBRANCH   1   6
BRANCH   1  16
ATOM     16  C   UNL     1      43.988   3.878  11.763  0.00  0.00    +0.000 C 
BRANCH  16  17
ATOM     17  N   UNL     1      43.576   3.888  10.359  0.00  0.00    +0.000 N 
ATOM     18  H   UNL     1      43.182   4.789  10.078  0.00  0.00    +0.000 HD
BRANCH  17  19
ATOM     19  C   UNL     1      44.568   3.464   9.450  0.00  0.00    +0.000 A 
ATOM     20  C   UNL     1      44.970   2.127   9.330  0.00  0.00    +0.000 A 
ATOM     21  C   UNL     1      45.915   1.744   8.384  0.00  0.00    +0.000 A 
ATOM     22  C   UNL     1      46.419   2.713   7.537  0.00  0.00    +0.000 A 
ATOM     23  N   UNL     1      46.039   4.020   7.567  0.00  0.00    +0.000 NA
ATOM     24  C   UNL     1      45.115   4.346   8.509  0.00  0.00    +0.000 A 
BRANCH  22  25
ATOM     25  C   UNL     1      47.428   2.325   6.502  0.00  0.00    +0.000 C 
ATOM     26  N   UNL     1      47.404   3.062   5.353  0.00  0.00    +0.000 N 
ATOM     27  O   UNL     1      48.226   1.407   6.665  0.00  0.00    +0.000 OA
ATOM     28  H   UNL     1      46.716   3.794   5.251  0.00  0.00    +0.000 HD
ATOM     29  H   UNL     1      48.039   2.834   4.601  0.00  0.00    +0.000 HD
ENDBRANCH  22  25
ENDBRANCH  17  19
ENDBRANCH  16  17
ENDBRANCH   1  16
TORSDOF 8
ENDMDL
MODEL 9
REMARK VINA RESULT:    -6.895      2.877      4.391
REMARK INTER + INTRA:         -10.681
REMARK INTER:                  -9.372
REMARK INTRA:                  -1.309
REMARK UNBOUND:                -0.763
REMARK  Name = 
REMARK  9 active torsions:
REMARK  status: ('A' for Active; 'I' for Inactive)
REMARK    1  A    between atoms: C_1  and  C_2
REMARK    2  A    between atoms: C_2  and  O_3
REMARK    3  A    between atoms: O_3  and  C_4
REMARK    4  A    between atoms: C_8  and  C_9
REMARK    5  A    between atoms: C_9  and  C_10
REMARK    6  A    between atoms: C_10  and  N_11
REMARK    7  A    between atoms: N_11  and  C_12
REMARK    8  A    between atoms: C_15  and  C_16
REMARK    9  A    between atoms: C_23  and  O_24
REMARK                            x       y       z     vdW  Elec       q    Type
REMARK                         _______ _______ _______ _____ _____    ______ ____
ROOT
ATOM      1  C   UNL     1      48.268   8.130  12.850  0.00  0.00    +0.000 C 
ENDROOT
BRANCH   1   6
ATOM      2  C   UNL     1      49.239   6.617  16.263  0.00  0.00    +0.000 A 
ATOM      3  C   UNL     1      49.016   7.707  17.095  0.00  0.00    +0.000 A 
ATOM      4  C   UNL     1      48.478   8.886  16.572  0.00  0.00    +0.000 A 
ATOM      5  C   UNL     1      48.205   8.992  15.209  0.00  0.00    +0.000 A 
ATOM      6  C   UNL     1      48.486   7.932  14.340  0.00  0.00    +0.000 A 
ATOM      7  C   UNL     1      48.986   6.737  14.896  0.00  0.00    +0.000 A 
BRANCH   2   8
ATOM      8  O   UNL     1      49.704   5.380  16.651  0.00  0.00    +0.000 OA
BRANCH   8  10
ATOM      9  C   UNL     1      49.300   4.816  18.996  0.00  0.00    +0.000 C 
ATOM     10  C   UNL     1      48.931   4.534  17.540  0.00  0.00    +0.000 C 
ATOM     11  C   UNL     1      47.422   4.338  17.206  0.00  0.00    +0.000 C 
ATOM     12  C   UNL     1      47.755   2.999  16.534  0.00  0.00    +0.000 C 
ATOM     13  C   UNL     1      49.117   3.013  17.240  0.00  0.00    +0.000 C 
BRANCH  12  14
ATOM     14  O   UNL     1      47.785   2.986  15.093  0.00  0.00    +0.000 OA
ATOM     15  H   UNL     1      46.978   3.454  14.809  0.00  0.00    +0.000 HD
ENDBRANCH  12  14
ENDBRANCH   8  10
ENDBRANCH   2   8
ENDBRANCH   1   6
BRANCH   1  16
ATOM     16  C   UNL     1      46.829   8.499  12.480  0.00  0.00    +0.000 C 
BRANCH  16  17
ATOM     17  N   UNL     1      45.826   7.780  13.268  0.00  0.00    +0.000 N 
ATOM     18  H   UNL     1      45.015   8.364  13.484  0.00  0.00    +0.000 HD
BRANCH  17  19
ATOM     19  C   UNL     1      45.430   6.540  12.728  0.00  0.00    +0.000 A 
ATOM     20  C   UNL     1      45.863   5.311  13.242  0.00  0.00    +0.000 A 
ATOM     21  C   UNL     1      45.405   4.109  12.712  0.00  0.00    +0.000 A 
ATOM     22  C   UNL     1      44.479   4.160  11.688  0.00  0.00    +0.000 A 
ATOM     23  N   UNL     1      43.980   5.317  11.171  0.00  0.00    +0.000 NA
ATOM     24  C   UNL     1      44.458   6.464  11.721  0.00  0.00    +0.000 A 
BRANCH  22  25
ATOM     25  C   UNL     1      43.962   2.881  11.108  0.00  0.00    +0.000 C 
ATOM     26  N   UNL     1      44.705   2.355  10.090  0.00  0.00    +0.000 N 
ATOM     27  O   UNL     1      42.940   2.335  11.510  0.00  0.00    +0.000 OA
ATOM     28  H   UNL     1      45.527   2.849   9.773  0.00  0.00    +0.000 HD
ATOM     29  H   UNL     1      44.397   1.508   9.633  0.00  0.00    +0.000 HD
ENDBRANCH  22  25
ENDBRANCH  17  19
ENDBRANCH  16  17
ENDBRANCH   1  16
TORSDOF 8
ENDMDL
