MODEL 1
REMARK VINA RESULT:    -6.589      0.000      0.000
REMARK INTER + INTRA:          -9.216
REMARK INTER:                  -8.708
REMARK INTRA:                  -0.509
REMARK UNBOUND:                -0.509
REMARK  Name = 
REMARK  6 active torsions:
REMARK  status: ('A' for Active; 'I' for Inactive)
REMARK    1  A    between atoms: N_1  and  C_2
REMARK    2  A    between atoms: C_2  and  C_3
REMARK    3  A    between atoms: C_3  and  C_4
REMARK    4  A    between atoms: C_4  and  C_5
REMARK    5  A    between atoms: N_7  and  C_8
REMARK    6  A    between atoms: C_8  and  C_9
REMARK                            x       y       z     vdW  Elec       q    Type
REMARK                         _______ _______ _______ _____ _____    ______ ____
ROOT
ATOM      1  C   UNL     1      45.470   4.202   8.946  0.00  0.00    +0.000 A 
ATOM      2  C   UNL     1      45.941   5.455   9.283  0.00  0.00    +0.000 A 
ATOM      3  N   UNL     1      45.539   5.748  10.562  0.00  0.00    +0.000 N 
ATOM      4  C   UNL     1      44.803   4.700  11.076  0.00  0.00    +0.000 A 
ATOM      5  C   UNL     1      44.172   4.539  12.321  0.00  0.00    +0.000 A 
ATOM      6  C   UNL     1      43.474   3.353  12.558  0.00  0.00    +0.000 A 
ATOM      7  C   UNL     1      43.412   2.353  11.592  0.00  0.00    +0.000 A 
ATOM      8  C   UNL     1      44.050   2.520  10.358  0.00  0.00    +0.000 A 
ATOM      9  C   UNL     1      44.754   3.712  10.086  0.00  0.00    +0.000 A 
ENDROOT
BRANCH   1  10
ATOM     10  C   UNL     1      45.640   3.523   7.623  0.00  0.00    +0.000 C 
BRANCH  10  11
ATOM     11  C   UNL     1      47.098   3.449   7.165  0.00  0.00    +0.000 C 
BRANCH  11  12
ATOM     12  C   UNL     1      47.523   1.997   6.956  0.00  0.00    +0.000 C 
BRANCH  12  13
ATOM     13  N   UNL     1      48.424   1.887   5.814  0.00  0.00    +0.000 NA
ATOM     14  H   UNL     1      48.132   1.110   5.224  0.00  0.00    +0.000 HD
ATOM     15  H   UNL     1      49.365   1.664   6.138  0.00  0.00    +0.000 HD
ENDBRANCH  12  13
ENDBRANCH  11  12
ENDBRANCH  10  11
ENDBRANCH   1  10
BRANCH   3  16
ATOM     16  C   UNL     1      45.773   7.027  11.219  0.00  0.00    +0.000 C 
BRANCH  16  17
ATOM     17  C   UNL     1      47.089   7.051  11.942  0.00  0.00    +0.000 A 
ATOM     18  C   UNL     1      47.267   6.357  13.137  0.00  0.00    +0.000 A 
ATOM     19  N   UNL     1      48.441   6.339  13.813  0.00  0.00    +0.000 NA
ATOM     20  C   UNL     1      49.439   7.054  13.253  0.00  0.00    +0.000 A 
ATOM     21  C   UNL     1      49.281   7.739  12.062  0.00  0.00    +0.000 A 
ATOM     22  N   UNL     1      48.114   7.747  11.378  0.00  0.00    +0.000 NA
ENDBRANCH  16  17
ENDBRANCH   3  16
TORSDOF 6
ENDMDL
MODEL 2
REMARK VINA RESULT:    -6.513      2.465      6.437
REMARK INTER + INTRA:          -9.115
REMARK INTER:                  -8.637
REMARK INTRA:                  -0.479
REMARK UNBOUND:                -0.509
REMARK  Name = 
REMARK  6 active torsions:
REMARK  status: ('A' for Active; 'I' for Inactive)
REMARK    1  A    between atoms: N_1  and  C_2
REMARK    2  A    between atoms: C_2  and  C_3
REMARK    3  A    between atoms: C_3  and  C_4
REMARK    4  A    between atoms: C_4  and  C_5
REMARK    5  A    between atoms: N_7  and  C_8
REMARK    6  A    between atoms: C_8  and  C_9
REMARK                            x       y       z     vdW  Elec       q    Type
REMARK                         _______ _______ _______ _____ _____    ______ ____
ROOT
ATOM      1  C   UNL     1      46.431   5.212  13.456  0.00  0.00    +0.000 A 
ATOM      2  C   UNL     1      45.844   4.195  12.730  0.00  0.00    +0.000 A 
ATOM      3  N   UNL     1      45.034   4.750  11.770  0.00  0.00    +0.000 N 
ATOM      4  C   UNL     1      45.079   6.127  11.855  0.00  0.00    +0.000 A 
ATOM      5  C   UNL     1      44.420   7.119  11.110  0.00  0.00    +0.000 A 
ATOM      6  C   UNL     1      44.654   8.456  11.439  0.00  0.00    +0.000 A 
ATOM      7  C   UNL     1      45.524   8.798  12.470  0.00  0.00    +0.000 A 
ATOM      8  C   UNL     1      46.182   7.803  13.201  0.00  0.00    +0.000 A 
ATOM      9  C   UNL     1      45.957   6.443  12.898  0.00  0.00    +0.000 A 
ENDROOT
BRANCH   1  10
ATOM     10  C   UNL     1      47.344   5.042  14.630  0.00  0.00    +0.000 C 
BRANCH  10  11
ATOM     11  C   UNL     1      47.087   3.753  15.413  0.00  0.00    +0.000 C 
BRANCH  11  12
ATOM     12  C   UNL     1      47.232   3.997  16.914  0.00  0.00    +0.000 C 
BRANCH  12  13
ATOM     13  N   UNL     1      46.677   2.879  17.670  0.00  0.00    +0.000 NA
ATOM     14  H   UNL     1      47.116   2.012  17.364  0.00  0.00    +0.000 HD
ATOM     15  H   UNL     1      45.683   2.785  17.466  0.00  0.00    +0.000 HD
ENDBRANCH  12  13
ENDBRANCH  11  12
ENDBRANCH  10  11
ENDBRANCH   1  10
BRANCH   3  16
ATOM     16  C   UNL     1      44.180   3.979  10.876  0.00  0.00    +0.000 C 
BRANCH  16  17
ATOM     17  C   UNL     1      44.918   3.534   9.646  0.00  0.00    +0.000 A 
ATOM     18  C   UNL     1      45.364   4.454   8.700  0.00  0.00    +0.000 A 
ATOM     19  N   UNL     1      46.045   4.096   7.585  0.00  0.00    +0.000 NA
ATOM     20  C   UNL     1      46.260   2.771   7.441  0.00  0.00    +0.000 A 
ATOM     21  C   UNL     1      45.834   1.847   8.377  0.00  0.00    +0.000 A 
ATOM     22  N   UNL     1      45.165   2.203   9.498  0.00  0.00    +0.000 NA
ENDBRANCH  16  17
ENDBRANCH   3  16
TORSDOF 6
ENDMDL
MODEL 3
REMARK VINA RESULT:    -6.265      2.412      5.993
REMARK INTER + INTRA:          -8.788
REMARK INTER:                  -8.415
REMARK INTRA:                  -0.373
REMARK UNBOUND:                -0.509
REMARK  Name = 
REMARK  6 active torsions:
REMARK  status: ('A' for Active; 'I' for Inactive)
REMARK    1  A    between atoms: N_1  and  C_2
REMARK    2  A    between atoms: C_2  and  C_3
REMARK    3  A    between atoms: C_3  and  C_4
REMARK    4  A    between atoms: C_4  and  C_5
REMARK    5  A    between atoms: N_7  and  C_8
REMARK    6  A    between atoms: C_8  and  C_9
REMARK                            x       y       z     vdW  Elec       q    Type
REMARK                         _______ _______ _______ _____ _____    ______ ____
ROOT
ATOM      1  C   UNL     1      45.270   7.092  12.431  0.00  0.00    +0.000 A 
ATOM      2  C   UNL     1      44.416   6.695  11.421  0.00  0.00    +0.000 A 
ATOM      3  N   UNL     1      44.451   5.326  11.327  0.00  0.00    +0.000 N 
ATOM      4  C   UNL     1      45.323   4.811  12.265  0.00  0.00    +0.000 A 
ATOM      5  C   UNL     1      45.704   3.488  12.542  0.00  0.00    +0.000 A 
ATOM      6  C   UNL     1      46.635   3.268  13.559  0.00  0.00    +0.000 A 
ATOM      7  C   UNL     1      47.165   4.331  14.286  0.00  0.00    +0.000 A 
ATOM      8  C   UNL     1      46.774   5.644  14.007  0.00  0.00    +0.000 A 
ATOM      9  C   UNL     1      45.842   5.897  12.978  0.00  0.00    +0.000 A 
ENDROOT
BRANCH   1  10
ATOM     10  C   UNL     1      45.568   8.503  12.829  0.00  0.00    +0.000 C 
BRANCH  10  11
ATOM     11  C   UNL     1      45.863   9.417  11.638  0.00  0.00    +0.000 C 
BRANCH  11  12
ATOM     12  C   UNL     1      44.999  10.675  11.697  0.00  0.00    +0.000 C 
BRANCH  12  13
ATOM     13  N   UNL     1      43.662  10.354  12.184  0.00  0.00    +0.000 NA
ATOM     14  H   UNL     1      43.189   9.755  11.508  0.00  0.00    +0.000 HD
ATOM     15  H   UNL     1      43.105  11.206  12.250  0.00  0.00    +0.000 HD
ENDBRANCH  12  13
ENDBRANCH  11  12
ENDBRANCH  10  11
ENDBRANCH   1  10
BRANCH   3  16
ATOM     16  C   UNL     1      43.746   4.559  10.308  0.00  0.00    +0.000 C 
BRANCH  16  17
ATOM     17  C   UNL     1      44.696   3.859   9.379  0.00  0.00    +0.000 A 
ATOM     18  C   UNL     1      44.792   2.470   9.358  0.00  0.00    +0.000 A 
ATOM     19  N   UNL     1      45.624   1.799   8.526  0.00  0.00    +0.000 NA
ATOM     20  C   UNL     1      46.373   2.573   7.713  0.00  0.00    +0.000 A 
ATOM     21  C   UNL     1      46.282   3.953   7.714  0.00  0.00    +0.000 A 
ATOM     22  N   UNL     1      45.442   4.625   8.535  0.00  0.00    +0.000 NA
ENDBRANCH  16  17
ENDBRANCH   3  16
TORSDOF 6
ENDMDL
MODEL 4
REMARK VINA RESULT:    -6.249      2.391      6.741
REMARK INTER + INTRA:          -8.767
REMARK INTER:                  -8.412
REMARK INTRA:                  -0.355
REMARK UNBOUND:                -0.509
REMARK  Name = 
REMARK  6 active torsions:
REMARK  status: ('A' for Active; 'I' for Inactive)
REMARK    1  A    between atoms: N_1  and  C_2
REMARK    2  A    between atoms: C_2  and  C_3
REMARK    3  A    between atoms: C_3  and  C_4
REMARK    4  A    between atoms: C_4  and  C_5
REMARK    5  A    between atoms: N_7  and  C_8
REMARK    6  A    between atoms: C_8  and  C_9
REMARK                            x       y       z     vdW  Elec       q    Type
REMARK                         _______ _______ _______ _____ _____    ______ ____
ROOT
ATOM      1  C   UNL     1      46.956   4.678  14.075  0.00  0.00    +0.000 A 
ATOM      2  C   UNL     1      45.852   4.369  13.306  0.00  0.00    +0.000 A 
ATOM      3  N   UNL     1      45.709   5.329  12.335  0.00  0.00    +0.000 N 
ATOM      4  C   UNL     1      46.710   6.273  12.455  0.00  0.00    +0.000 A 
ATOM      5  C   UNL     1      46.973   7.437  11.715  0.00  0.00    +0.000 A 
ATOM      6  C   UNL     1      48.069   8.220  12.084  0.00  0.00    +0.000 A 
ATOM      7  C   UNL     1      48.885   7.852  13.150  0.00  0.00    +0.000 A 
ATOM      8  C   UNL     1      48.618   6.687  13.876  0.00  0.00    +0.000 A 
ATOM      9  C   UNL     1      47.512   5.882  13.533  0.00  0.00    +0.000 A 
ENDROOT
BRANCH   1  10
ATOM     10  C   UNL     1      47.435   3.919  15.273  0.00  0.00    +0.000 C 
BRANCH  10  11
ATOM     11  C   UNL     1      47.830   4.822  16.443  0.00  0.00    +0.000 C 
BRANCH  11  12
ATOM     12  C   UNL     1      47.092   4.409  17.715  0.00  0.00    +0.000 C 
BRANCH  12  13
ATOM     13  N   UNL     1      46.665   3.017  17.629  0.00  0.00    +0.000 NA
ATOM     14  H   UNL     1      47.380   2.416  18.037  0.00  0.00    +0.000 HD
ATOM     15  H   UNL     1      46.584   2.742  16.650  0.00  0.00    +0.000 HD
ENDBRANCH  12  13
ENDBRANCH  11  12
ENDBRANCH  10  11
ENDBRANCH   1  10
BRANCH   3  16
ATOM     16  C   UNL     1      44.597   5.382  11.395  0.00  0.00    +0.000 C 
BRANCH  16  17
ATOM     17  C   UNL     1      44.866   4.563  10.165  0.00  0.00    +0.000 A 
ATOM     18  C   UNL     1      45.625   5.071   9.113  0.00  0.00    +0.000 A 
ATOM     19  N   UNL     1      45.903   4.362   7.993  0.00  0.00    +0.000 NA
ATOM     20  C   UNL     1      45.383   3.117   7.956  0.00  0.00    +0.000 A 
ATOM     21  C   UNL     1      44.637   2.595   8.997  0.00  0.00    +0.000 A 
ATOM     22  N   UNL     1      44.369   3.297  10.122  0.00  0.00    +0.000 NA
ENDBRANCH  16  17
ENDBRANCH   3  16
TORSDOF 6
ENDMDL
MODEL 5
REMARK VINA RESULT:    -5.645      1.899      6.334
REMARK INTER + INTRA:          -7.969
REMARK INTER:                  -7.452
REMARK INTRA:                  -0.517
REMARK UNBOUND:                -0.509
REMARK  Name = 
REMARK  6 active torsions:
REMARK  status: ('A' for Active; 'I' for Inactive)
REMARK    1  A    between atoms: N_1  and  C_2
REMARK    2  A    between atoms: C_2  and  C_3
REMARK    3  A    between atoms: C_3  and  C_4
REMARK    4  A    between atoms: C_4  and  C_5
REMARK    5  A    between atoms: N_7  and  C_8
REMARK    6  A    between atoms: C_8  and  C_9
REMARK                            x       y       z     vdW  Elec       q    Type
REMARK                         _______ _______ _______ _____ _____    ______ ____
ROOT
ATOM      1  C   UNL     1      46.675   6.611  12.816  0.00  0.00    +0.000 A 
ATOM      2  C   UNL     1      46.014   5.531  12.265  0.00  0.00    +0.000 A 
ATOM      3  N   UNL     1      44.954   5.994  11.526  0.00  0.00    +0.000 N 
ATOM      4  C   UNL     1      44.905   7.372  11.583  0.00  0.00    +0.000 A 
ATOM      5  C   UNL     1      44.006   8.287  11.012  0.00  0.00    +0.000 A 
ATOM      6  C   UNL     1      44.202   9.648  11.260  0.00  0.00    +0.000 A 
ATOM      7  C   UNL     1      45.266  10.086  12.044  0.00  0.00    +0.000 A 
ATOM      8  C   UNL     1      46.160   9.167  12.602  0.00  0.00    +0.000 A 
ATOM      9  C   UNL     1      45.980   7.785  12.377  0.00  0.00    +0.000 A 
ENDROOT
BRANCH   1  10
ATOM     10  C   UNL     1      47.856   6.547  13.733  0.00  0.00    +0.000 C 
BRANCH  10  11
ATOM     11  C   UNL     1      49.157   7.012  13.076  0.00  0.00    +0.000 C 
BRANCH  11  12
ATOM     12  C   UNL     1      50.021   7.777  14.076  0.00  0.00    +0.000 C 
BRANCH  12  13
ATOM     13  N   UNL     1      50.485   6.889  15.136  0.00  0.00    +0.000 NA
ATOM     14  H   UNL     1      50.570   5.941  14.772  0.00  0.00    +0.000 HD
ATOM     15  H   UNL     1      49.790   6.848  15.880  0.00  0.00    +0.000 HD
ENDBRANCH  12  13
ENDBRANCH  11  12
ENDBRANCH  10  11
ENDBRANCH   1  10
BRANCH   3  16
ATOM     16  C   UNL     1      43.975   5.133  10.875  0.00  0.00    +0.000 C 
BRANCH  16  17
ATOM     17  C   UNL     1      44.611   4.242   9.847  0.00  0.00    +0.000 A 
ATOM     18  C   UNL     1      45.406   4.767   8.831  0.00  0.00    +0.000 A 
ATOM     19  N   UNL     1      46.010   3.998   7.893  0.00  0.00    +0.000 NA
ATOM     20  C   UNL     1      45.782   2.672   8.002  0.00  0.00    +0.000 A 
ATOM     21  C   UNL     1      45.005   2.135   9.011  0.00  0.00    +0.000 A 
ATOM     22  N   UNL     1      44.411   2.899   9.956  0.00  0.00    +0.000 NA
ENDBRANCH  16  17
ENDBRANCH   3  16
TORSDOF 6
ENDMDL
MODEL 6
REMARK VINA RESULT:    -5.637      2.629      6.756
REMARK INTER + INTRA:          -7.958
REMARK INTER:                  -7.530
REMARK INTRA:                  -0.428
REMARK UNBOUND:                -0.509
REMARK  Name = 
REMARK  6 active torsions:
REMARK  status: ('A' for Active; 'I' for Inactive)
REMARK    1  A    between atoms: N_1  and  C_2
REMARK    2  A    between atoms: C_2  and  C_3
REMARK    3  A    between atoms: C_3  and  C_4
REMARK    4  A    between atoms: C_4  and  C_5
REMARK    5  A    between atoms: N_7  and  C_8
REMARK    6  A    between atoms: C_8  and  C_9
REMARK                            x       y       z     vdW  Elec       q    Type
REMARK                         _______ _______ _______ _____ _____    ______ ____
ROOT
ATOM      1  C   UNL     1      45.699   8.784  12.353  0.00  0.00    +0.000 A 
ATOM      2  C   UNL     1      45.246   7.570  12.832  0.00  0.00    +0.000 A 
ATOM      3  N   UNL     1      46.318   6.725  12.972  0.00  0.00    +0.000 N 
ATOM      4  C   UNL     1      47.478   7.367  12.590  0.00  0.00    +0.000 A 
ATOM      5  C   UNL     1      48.808   6.918  12.540  0.00  0.00    +0.000 A 
ATOM      6  C   UNL     1      49.788   7.804  12.087  0.00  0.00    +0.000 A 
ATOM      7  C   UNL     1      49.458   9.100  11.703  0.00  0.00    +0.000 A 
ATOM      8  C   UNL     1      48.132   9.540  11.762  0.00  0.00    +0.000 A 
ATOM      9  C   UNL     1      47.119   8.664  12.207  0.00  0.00    +0.000 A 
ENDROOT
BRANCH   1  10
ATOM     10  C   UNL     1      44.849   9.967  12.010  0.00  0.00    +0.000 C 
BRANCH  10  11
ATOM     11  C   UNL     1      44.019   9.767  10.740  0.00  0.00    +0.000 C 
BRANCH  11  12
ATOM     12  C   UNL     1      42.639  10.405  10.894  0.00  0.00    +0.000 C 
BRANCH  12  13
ATOM     13  N   UNL     1      41.621   9.380  11.088  0.00  0.00    +0.000 NA
ATOM     14  H   UNL     1      41.761   8.928  11.990  0.00  0.00    +0.000 HD
ATOM     15  H   UNL     1      41.727   8.651  10.383  0.00  0.00    +0.000 HD
ENDBRANCH  12  13
ENDBRANCH  11  12
ENDBRANCH  10  11
ENDBRANCH   1  10
BRANCH   3  16
ATOM     16  C   UNL     1      46.209   5.326  13.367  0.00  0.00    +0.000 C 
BRANCH  16  17
ATOM     17  C   UNL     1      45.289   4.561  12.460  0.00  0.00    +0.000 A 
ATOM     18  C   UNL     1      45.356   4.706  11.076  0.00  0.00    +0.000 A 
ATOM     19  N   UNL     1      44.556   4.024  10.221  0.00  0.00    +0.000 NA
ATOM     20  C   UNL     1      43.669   3.190  10.804  0.00  0.00    +0.000 A 
ATOM     21  C   UNL     1      43.598   3.027  12.176  0.00  0.00    +0.000 A 
ATOM     22  N   UNL     1      44.405   3.697  13.030  0.00  0.00    +0.000 NA
ENDBRANCH  16  17
ENDBRANCH   3  16
TORSDOF 6
ENDMDL
MODEL 7
REMARK VINA RESULT:    -5.427      3.168      5.143
REMARK INTER + INTRA:          -7.680
REMARK INTER:                  -7.815
REMARK INTRA:                   0.135
REMARK UNBOUND:                -0.509
REMARK  Name = 
REMARK  6 active torsions:
REMARK  status: ('A' for Active; 'I' for Inactive)
REMARK    1  A    between atoms: N_1  and  C_2
REMARK    2  A    between atoms: C_2  and  C_3
REMARK    3  A    between atoms: C_3  and  C_4
REMARK    4  A    between atoms: C_4  and  C_5
REMARK    5  A    between atoms: N_7  and  C_8
REMARK    6  A    between atoms: C_8  and  C_9
REMARK                            x       y       z     vdW  Elec       q    Type
REMARK                         _______ _______ _______ _____ _____    ______ ____
ROOT
ATOM      1  C   UNL     1      44.591   6.513  11.752  0.00  0.00    +0.000 A 
ATOM      2  C   UNL     1      45.654   5.822  12.300  0.00  0.00    +0.000 A 
ATOM      3  N   UNL     1      46.656   6.714  12.592  0.00  0.00    +0.000 N 
ATOM      4  C   UNL     1      46.266   7.991  12.242  0.00  0.00    +0.000 A 
ATOM      5  C   UNL     1      46.943   9.218  12.331  0.00  0.00    +0.000 A 
ATOM      6  C   UNL     1      46.291  10.366  11.876  0.00  0.00    +0.000 A 
ATOM      7  C   UNL     1      45.001  10.298  11.357  0.00  0.00    +0.000 A 
ATOM      8  C   UNL     1      44.333   9.072  11.279  0.00  0.00    +0.000 A 
ATOM      9  C   UNL     1      44.971   7.894  11.722  0.00  0.00    +0.000 A 
ENDROOT
BRANCH   1  10
ATOM     10  C   UNL     1      43.318   5.912  11.245  0.00  0.00    +0.000 C 
BRANCH  10  11
ATOM     11  C   UNL     1      42.964   4.586  11.921  0.00  0.00    +0.000 C 
BRANCH  11  12
ATOM     12  C   UNL     1      43.471   3.407  11.093  0.00  0.00    +0.000 C 
BRANCH  12  13
ATOM     13  N   UNL     1      43.019   2.146  11.669  0.00  0.00    +0.000 NA
ATOM     14  H   UNL     1      42.001   2.142  11.722  0.00  0.00    +0.000 HD
ATOM     15  H   UNL     1      43.356   2.064  12.628  0.00  0.00    +0.000 HD
ENDBRANCH  12  13
ENDBRANCH  11  12
ENDBRANCH  10  11
ENDBRANCH   1  10
BRANCH   3  16
ATOM     16  C   UNL     1      47.968   6.332  13.098  0.00  0.00    +0.000 C 
BRANCH  16  17
ATOM     17  C   UNL     1      47.877   5.665  14.440  0.00  0.00    +0.000 A 
ATOM     18  C   UNL     1      47.050   4.562  14.642  0.00  0.00    +0.000 A 
ATOM     19  N   UNL     1      46.949   3.922  15.832  0.00  0.00    +0.000 NA
ATOM     20  C   UNL     1      47.704   4.434  16.827  0.00  0.00    +0.000 A 
ATOM     21  C   UNL     1      48.538   5.521  16.639  0.00  0.00    +0.000 A 
ATOM     22  N   UNL     1      48.650   6.153  15.448  0.00  0.00    +0.000 NA
ENDBRANCH  16  17
ENDBRANCH   3  16
TORSDOF 6
ENDMDL
MODEL 8
REMARK VINA RESULT:    -5.344      2.782      5.235
REMARK INTER + INTRA:          -7.571
REMARK INTER:                  -7.049
REMARK INTRA:                  -0.522
REMARK UNBOUND:                -0.509
REMARK  Name = 
REMARK  6 active torsions:
REMARK  status: ('A' for Active; 'I' for Inactive)
REMARK    1  A    between atoms: N_1  and  C_2
REMARK    2  A    between atoms: C_2  and  C_3
REMARK    3  A    between atoms: C_3  and  C_4
REMARK    4  A    between atoms: C_4  and  C_5
REMARK    5  A    between atoms: N_7  and  C_8
REMARK    6  A    between atoms: C_8  and  C_9
REMARK                            x       y       z     vdW  Elec       q    Type
REMARK                         _______ _______ _______ _____ _____    ______ ____
ROOT
ATOM      1  C   UNL     1      46.799   4.933  14.055  0.00  0.00    +0.000 A 
ATOM      2  C   UNL     1      47.183   6.251  13.906  0.00  0.00    +0.000 A 
ATOM      3  N   UNL     1      46.721   6.712  12.699  0.00  0.00    +0.000 N 
ATOM      4  C   UNL     1      46.033   5.710  12.044  0.00  0.00    +0.000 A 
ATOM      5  C   UNL     1      45.400   5.693  10.791  0.00  0.00    +0.000 A 
ATOM      6  C   UNL     1      44.787   4.508  10.377  0.00  0.00    +0.000 A 
ATOM      7  C   UNL     1      44.795   3.377  11.189  0.00  0.00    +0.000 A 
ATOM      8  C   UNL     1      45.422   3.406  12.438  0.00  0.00    +0.000 A 
ATOM      9  C   UNL     1      46.059   4.586  12.878  0.00  0.00    +0.000 A 
ENDROOT
BRANCH   1  10
ATOM     10  C   UNL     1      47.143   4.040  15.205  0.00  0.00    +0.000 C 
BRANCH  10  11
ATOM     11  C   UNL     1      47.873   4.766  16.337  0.00  0.00    +0.000 C 
BRANCH  11  12
ATOM     12  C   UNL     1      47.453   4.205  17.694  0.00  0.00    +0.000 C 
BRANCH  12  13
ATOM     13  N   UNL     1      46.600   3.034  17.522  0.00  0.00    +0.000 NA
ATOM     14  H   UNL     1      46.477   2.569  18.420  0.00  0.00    +0.000 HD
ATOM     15  H   UNL     1      47.059   2.360  16.910  0.00  0.00    +0.000 HD
ENDBRANCH  12  13
ENDBRANCH  11  12
ENDBRANCH  10  11
ENDBRANCH   1  10
BRANCH   3  16
ATOM     16  C   UNL     1      47.016   8.034  12.161  0.00  0.00    +0.000 C 
BRANCH  16  17
ATOM     17  C   UNL     1      48.488   8.328  12.181  0.00  0.00    +0.000 A 
ATOM     18  C   UNL     1      49.020   9.283  13.044  0.00  0.00    +0.000 A 
ATOM     19  N   UNL     1      50.343   9.569  13.105  0.00  0.00    +0.000 NA
ATOM     20  C   UNL     1      51.124   8.866  12.257  0.00  0.00    +0.000 A 
ATOM     21  C   UNL     1      50.612   7.908  11.403  0.00  0.00    +0.000 A 
ATOM     22  N   UNL     1      49.293   7.611  11.349  0.00  0.00    +0.000 NA
ENDBRANCH  16  17
ENDBRANCH   3  16
TORSDOF 6
ENDMDL
MODEL 9
REMARK VINA RESULT:    -5.168      2.997      6.414
REMARK INTER + INTRA:          -7.338
REMARK INTER:                  -6.716
REMARK INTRA:                  -0.622
REMARK UNBOUND:                -0.509
REMARK  Name = 
REMARK  6 active torsions:
REMARK  status: ('A' for Active; 'I' for Inactive)
REMARK    1  A    between atoms: N_1  and  C_2
REMARK    2  A    between atoms: C_2  and  C_3
REMARK    3  A    between atoms: C_3  and  C_4
REMARK    4  A    between atoms: C_4  and  C_5
REMARK    5  A    between atoms: N_7  and  C_8
REMARK    6  A    between atoms: C_8  and  C_9
REMARK                            x       y       z     vdW  Elec       q    Type
REMARK                         _______ _______ _______ _____ _____    ______ ____
ROOT
ATOM      1  C   UNL     1      48.321   6.666  14.078  0.00  0.00    +0.000 A 
ATOM      2  C   UNL     1      47.577   5.938  13.170  0.00  0.00    +0.000 A 
ATOM      3  N   UNL     1      47.050   4.844  13.810  0.00  0.00    +0.000 N 
ATOM      4  C   UNL     1      47.438   4.840  15.135  0.00  0.00    +0.000 A 
ATOM      5  C   UNL     1      47.170   3.931  16.172  0.00  0.00    +0.000 A 
ATOM      6  C   UNL     1      47.721   4.185  17.430  0.00  0.00    +0.000 A 
ATOM      7  C   UNL     1      48.507   5.311  17.653  0.00  0.00    +0.000 A 
ATOM      8  C   UNL     1      48.763   6.213  16.616  0.00  0.00    +0.000 A 
ATOM      9  C   UNL     1      48.228   5.978  15.331  0.00  0.00    +0.000 A 
ENDROOT
BRANCH   1  10
ATOM     10  C   UNL     1      49.107   7.904  13.780  0.00  0.00    +0.000 C 
BRANCH  10  11
ATOM     11  C   UNL     1      48.826   8.479  12.391  0.00  0.00    +0.000 C 
BRANCH  11  12
ATOM     12  C   UNL     1      50.125   8.645  11.604  0.00  0.00    +0.000 C 
BRANCH  12  13
ATOM     13  N   UNL     1      50.791   7.358  11.440  0.00  0.00    +0.000 NA
ATOM     14  H   UNL     1      51.331   7.146  12.278  0.00  0.00    +0.000 HD
ATOM     15  H   UNL     1      51.462   7.413  10.674  0.00  0.00    +0.000 HD
ENDBRANCH  12  13
ENDBRANCH  11  12
ENDBRANCH  10  11
ENDBRANCH   1  10
BRANCH   3  16
ATOM     16  C   UNL     1      46.285   3.797  13.144  0.00  0.00    +0.000 C 
BRANCH  16  17
ATOM     17  C   UNL     1      45.002   4.324  12.568  0.00  0.00    +0.000 A 
ATOM     18  C   UNL     1      44.753   4.275  11.198  0.00  0.00    +0.000 A 
ATOM     19  N   UNL     1      43.605   4.725  10.639  0.00  0.00    +0.000 NA
ATOM     20  C   UNL     1      42.707   5.241  11.505  0.00  0.00    +0.000 A 
ATOM     21  C   UNL     1      42.935   5.288  12.868  0.00  0.00    +0.000 A 
ATOM     22  N   UNL     1      44.076   4.827  13.430  0.00  0.00    +0.000 NA
ENDBRANCH  16  17
ENDBRANCH   3  16
TORSDOF 6
ENDMDL
