MODEL 1
REMARK VINA RESULT:    -7.154      0.000      0.000
REMARK INTER + INTRA:         -12.352
REMARK INTER:                 -11.127
REMARK INTRA:                  -1.225
REMARK UNBOUND:                -1.225
REMARK  Name = 
REMARK  10 active torsions:
REMARK  status: ('A' for Active; 'I' for Inactive)
REMARK    1  A    between atoms: N_1  and  C_2
REMARK    2  A    between atoms: C_2  and  C_3
REMARK    3  A    between atoms: C_3  and  C_4
REMARK    4  A    between atoms: C_4  and  N_5
REMARK    5  A    between atoms: N_5  and  C_6
REMARK    6  A    between atoms: C_6  and  C_7
REMARK    7  A    between atoms: C_10  and  C_11
REMARK    8  A    between atoms: C_11  and  O_12
REMARK    9  A    between atoms: O_12  and  C_13
REMARK   10  A    between atoms: C_21  and  C_23
REMARK                            x       y       z     vdW  Elec       q    Type
REMARK                         _______ _______ _______ _____ _____    ______ ____
ROOT
ATOM      1  N   UNL     1      48.065   5.308  15.809  0.00  0.00    +0.000 N 
ATOM      2  C   UNL     1      49.106   5.960  16.500  0.00  0.00    +0.000 C 
ATOM      3  O   UNL     1      50.017   6.519  15.888  0.00  0.00    +0.000 OA
ENDROOT
BRANCH   2   4
ATOM      4  C   UNL     1      49.064   6.093  17.973  0.00  0.00    +0.000 A 
ATOM      5  C   UNL     1      48.233   6.947  18.682  0.00  0.00    +0.000 A 
ATOM      6  S   UNL     1      48.657   7.120  20.327  0.00  0.00    +0.000 S 
ATOM      7  C   UNL     1      49.996   6.092  20.138  0.00  0.00    +0.000 A 
ATOM      8  N   UNL     1      50.899   5.926  21.139  0.00  0.00    +0.000 NA
ATOM      9  C   UNL     1      51.866   5.120  20.846  0.00  0.00    +0.000 A 
ATOM     10  N   UNL     1      51.976   4.424  19.667  0.00  0.00    +0.000 N 
ATOM     11  C   UNL     1      51.020   4.480  18.673  0.00  0.00    +0.000 A 
ATOM     12  O   UNL     1      50.993   3.645  17.772  0.00  0.00    +0.000 OA
ATOM     13  C   UNL     1      50.018   5.505  18.887  0.00  0.00    +0.000 A 
ATOM     14  H   UNL     1      52.683   3.711  19.561  0.00  0.00    +0.000 HD
ENDBRANCH   2   4
BRANCH   1  15
ATOM     15  C   UNL     1      47.132   4.392  16.467  0.00  0.00    +0.000 C 
BRANCH  15  16
ATOM     16  C   UNL     1      47.674   3.089  17.062  0.00  0.00    +0.000 C 
BRANCH  16  17
ATOM     17  C   UNL     1      48.242   2.189  15.955  0.00  0.00    +0.000 C 
BRANCH  17  18
ATOM     18  N   UNL     1      49.599   1.743  16.260  0.00  0.00    +0.000 NA
ATOM     19  H   UNL     1      49.786   0.858  15.790  0.00  0.00    +0.000 HD
ATOM     20  H   UNL     1      49.696   1.565  17.259  0.00  0.00    +0.000 HD
ENDBRANCH  17  18
ENDBRANCH  16  17
ENDBRANCH  15  16
ENDBRANCH   1  15
BRANCH   1  21
ATOM     21  C   UNL     1      47.926   5.590  14.375  0.00  0.00    +0.000 C 
BRANCH  21  22
ATOM     22  C   UNL     1      46.664   5.076  13.694  0.00  0.00    +0.000 A 
ATOM     23  C   UNL     1      45.660   5.939  13.233  0.00  0.00    +0.000 A 
ATOM     24  C   UNL     1      44.643   5.471  12.381  0.00  0.00    +0.000 A 
ATOM     25  C   UNL     1      44.604   4.131  11.971  0.00  0.00    +0.000 A 
ATOM     26  C   UNL     1      45.575   3.256  12.474  0.00  0.00    +0.000 A 
ATOM     27  C   UNL     1      46.586   3.723  13.323  0.00  0.00    +0.000 A 
BRANCH  25  28
ATOM     28  C   UNL     1      43.606   3.649  10.934  0.00  0.00    +0.000 C 
BRANCH  28  29
ATOM     29  O   UNL     1      43.879   4.323   9.708  0.00  0.00    +0.000 OA
BRANCH  29  30
ATOM     30  C   UNL     1      44.841   3.682   8.960  0.00  0.00    +0.000 A 
ATOM     31  N   UNL     1      44.869   2.348   9.097  0.00  0.00    +0.000 NA
ATOM     32  C   UNL     1      45.785   1.691   8.359  0.00  0.00    +0.000 A 
ATOM     33  C   UNL     1      46.655   2.318   7.496  0.00  0.00    +0.000 A 
ATOM     34  C   UNL     1      46.527   3.683   7.420  0.00  0.00    +0.000 A 
ATOM     35  N   UNL     1      45.633   4.393   8.139  0.00  0.00    +0.000 NA
ENDBRANCH  29  30
ENDBRANCH  28  29
ENDBRANCH  25  28
ENDBRANCH  21  22
ENDBRANCH   1  21
TORSDOF 10
ENDMDL
MODEL 2
REMARK VINA RESULT:    -6.885      2.559      3.591
REMARK INTER + INTRA:         -11.934
REMARK INTER:                 -10.586
REMARK INTRA:                  -1.348
REMARK UNBOUND:                -1.225
REMARK  Name = 
REMARK  10 active torsions:
REMARK  status: ('A' for Active; 'I' for Inactive)
REMARK    1  A    between atoms: N_1  and  C_2
REMARK    2  A    between atoms: C_2  and  C_3
REMARK    3  A    between atoms: C_3  and  C_4
REMARK    4  A    between atoms: C_4  and  N_5
REMARK    5  A    between atoms: N_5  and  C_6
REMARK    6  A    between atoms: C_6  and  C_7
REMARK    7  A    between atoms: C_10  and  C_11
REMARK    8  A    between atoms: C_11  and  O_12
REMARK    9  A    between atoms: O_12  and  C_13
REMARK   10  A    between atoms: C_21  and  C_23
REMARK                            x       y       z     vdW  Elec       q    Type
REMARK                         _______ _______ _______ _____ _____    ______ ____
ROOT
ATOM      1  N   UNL     1      48.392   7.623  13.925  0.00  0.00    +0.000 N 
ATOM      2  C   UNL     1      48.722   8.174  15.180  0.00  0.00    +0.000 C 
ATOM      3  O   UNL     1      47.918   8.877  15.792  0.00  0.00    +0.000 OA
ENDROOT
BRANCH   2   4
ATOM      4  C   UNL     1      49.995   7.819  15.846  0.00  0.00    +0.000 A 
ATOM      5  C   UNL     1      51.194   8.502  15.708  0.00  0.00    +0.000 A 
ATOM      6  S   UNL     1      52.547   7.659  16.321  0.00  0.00    +0.000 S 
ATOM      7  C   UNL     1      51.581   6.329  16.750  0.00  0.00    +0.000 A 
ATOM      8  N   UNL     1      52.139   5.172  17.192  0.00  0.00    +0.000 NA
ATOM      9  C   UNL     1      51.279   4.248  17.473  0.00  0.00    +0.000 A 
ATOM     10  N   UNL     1      49.916   4.400  17.407  0.00  0.00    +0.000 N 
ATOM     11  C   UNL     1      49.311   5.595  17.071  0.00  0.00    +0.000 A 
ATOM     12  O   UNL     1      48.118   5.787  17.295  0.00  0.00    +0.000 OA
ATOM     13  C   UNL     1      50.236   6.596  16.578  0.00  0.00    +0.000 A 
ATOM     14  H   UNL     1      49.305   3.683  17.771  0.00  0.00    +0.000 HD
ENDBRANCH   2   4
BRANCH   1  15
ATOM     15  C   UNL     1      49.392   7.035  13.033  0.00  0.00    +0.000 C 
BRANCH  15  16
ATOM     16  C   UNL     1      49.761   7.779  11.747  0.00  0.00    +0.000 C 
BRANCH  16  17
ATOM     17  C   UNL     1      51.042   8.601  11.949  0.00  0.00    +0.000 C 
BRANCH  17  18
ATOM     18  N   UNL     1      52.243   7.797  11.744  0.00  0.00    +0.000 NA
ATOM     19  H   UNL     1      52.586   7.923  10.791  0.00  0.00    +0.000 HD
ATOM     20  H   UNL     1      52.026   6.806  11.842  0.00  0.00    +0.000 HD
ENDBRANCH  17  18
ENDBRANCH  16  17
ENDBRANCH  15  16
ENDBRANCH   1  15
BRANCH   1  21
ATOM     21  C   UNL     1      46.979   7.641  13.530  0.00  0.00    +0.000 C 
BRANCH  21  22
ATOM     22  C   UNL     1      46.482   6.462  12.704  0.00  0.00    +0.000 A 
ATOM     23  C   UNL     1      46.226   5.206  13.274  0.00  0.00    +0.000 A 
ATOM     24  C   UNL     1      45.524   4.219  12.558  0.00  0.00    +0.000 A 
ATOM     25  C   UNL     1      45.062   4.463  11.257  0.00  0.00    +0.000 A 
ATOM     26  C   UNL     1      45.363   5.697  10.667  0.00  0.00    +0.000 A 
ATOM     27  C   UNL     1      46.063   6.678  11.380  0.00  0.00    +0.000 A 
BRANCH  25  28
ATOM     28  C   UNL     1      44.174   3.467  10.533  0.00  0.00    +0.000 C 
BRANCH  28  29
ATOM     29  O   UNL     1      44.159   3.809   9.149  0.00  0.00    +0.000 OA
BRANCH  29  30
ATOM     30  C   UNL     1      45.180   3.207   8.449  0.00  0.00    +0.000 A 
ATOM     31  N   UNL     1      45.381   1.913   8.740  0.00  0.00    +0.000 NA
ATOM     32  C   UNL     1      46.359   1.291   8.054  0.00  0.00    +0.000 A 
ATOM     33  C   UNL     1      47.125   1.912   7.094  0.00  0.00    +0.000 A 
ATOM     34  C   UNL     1      46.823   3.232   6.863  0.00  0.00    +0.000 A 
ATOM     35  N   UNL     1      45.860   3.907   7.524  0.00  0.00    +0.000 NA
ENDBRANCH  29  30
ENDBRANCH  28  29
ENDBRANCH  25  28
ENDBRANCH  21  22
ENDBRANCH   1  21
TORSDOF 10
ENDMDL
MODEL 3
REMARK VINA RESULT:    -6.861      4.097      5.150
REMARK INTER + INTRA:         -11.897
REMARK INTER:                 -10.232
REMARK INTRA:                  -1.665
REMARK UNBOUND:                -1.225
REMARK  Name = 
REMARK  10 active torsions:
REMARK  status: ('A' for Active; 'I' for Inactive)
REMARK    1  A    between atoms: N_1  and  C_2
REMARK    2  A    between atoms: C_2  and  C_3
REMARK    3  A    between atoms: C_3  and  C_4
REMARK    4  A    between atoms: C_4  and  N_5
REMARK    5  A    between atoms: N_5  and  C_6
REMARK    6  A    between atoms: C_6  and  C_7
REMARK    7  A    between atoms: C_10  and  C_11
REMARK    8  A    between atoms: C_11  and  O_12
REMARK    9  A    between atoms: O_12  and  C_13
REMARK   10  A    between atoms: C_21  and  C_23
REMARK                            x       y       z     vdW  Elec       q    Type
REMARK                         _______ _______ _______ _____ _____    ______ ____
ROOT
ATOM      1  N   UNL     1      46.950   8.142  13.259  0.00  0.00    +0.000 N 
ATOM      2  C   UNL     1      47.660   9.206  12.669  0.00  0.00    +0.000 C 
ATOM      3  O   UNL     1      47.190   9.826  11.714  0.00  0.00    +0.000 OA
ENDROOT
BRANCH   2   4
ATOM      4  C   UNL     1      48.930   9.682  13.259  0.00  0.00    +0.000 A 
ATOM      5  C   UNL     1      49.046  10.612  14.281  0.00  0.00    +0.000 A 
ATOM      6  S   UNL     1      50.632  11.203  14.504  0.00  0.00    +0.000 S 
ATOM      7  C   UNL     1      51.213  10.269  13.210  0.00  0.00    +0.000 A 
ATOM      8  N   UNL     1      52.482  10.419  12.752  0.00  0.00    +0.000 NA
ATOM      9  C   UNL     1      52.777   9.645  11.759  0.00  0.00    +0.000 A 
ATOM     10  N   UNL     1      51.936   8.700  11.225  0.00  0.00    +0.000 N 
ATOM     11  C   UNL     1      50.679   8.441  11.737  0.00  0.00    +0.000 A 
ATOM     12  O   UNL     1      50.071   7.416  11.437  0.00  0.00    +0.000 OA
ATOM     13  C   UNL     1      50.247   9.405  12.729  0.00  0.00    +0.000 A 
ATOM     14  H   UNL     1      52.280   8.040  10.543  0.00  0.00    +0.000 HD
ENDBRANCH   2   4
BRANCH   1  15
ATOM     15  C   UNL     1      47.571   7.195  14.186  0.00  0.00    +0.000 C 
BRANCH  15  16
ATOM     16  C   UNL     1      47.885   5.779  13.695  0.00  0.00    +0.000 C 
BRANCH  16  17
ATOM     17  C   UNL     1      47.177   4.736  14.571  0.00  0.00    +0.000 C 
BRANCH  17  18
ATOM     18  N   UNL     1      47.199   3.409  13.962  0.00  0.00    +0.000 NA
ATOM     19  H   UNL     1      46.461   3.337  13.262  0.00  0.00    +0.000 HD
ATOM     20  H   UNL     1      47.002   2.696  14.663  0.00  0.00    +0.000 HD
ENDBRANCH  17  18
ENDBRANCH  16  17
ENDBRANCH  15  16
ENDBRANCH   1  15
BRANCH   1  21
ATOM     21  C   UNL     1      45.527   8.010  12.923  0.00  0.00    +0.000 C 
BRANCH  21  22
ATOM     22  C   UNL     1      45.123   6.787  12.109  0.00  0.00    +0.000 A 
ATOM     23  C   UNL     1      45.709   6.488  10.870  0.00  0.00    +0.000 A 
ATOM     24  C   UNL     1      45.519   5.232  10.268  0.00  0.00    +0.000 A 
ATOM     25  C   UNL     1      44.738   4.245  10.887  0.00  0.00    +0.000 A 
ATOM     26  C   UNL     1      44.109   4.561  12.097  0.00  0.00    +0.000 A 
ATOM     27  C   UNL     1      44.299   5.813  12.696  0.00  0.00    +0.000 A 
BRANCH  25  28
ATOM     28  C   UNL     1      44.650   2.838  10.325  0.00  0.00    +0.000 C 
BRANCH  28  29
ATOM     29  O   UNL     1      44.341   2.933   8.937  0.00  0.00    +0.000 OA
BRANCH  29  30
ATOM     30  C   UNL     1      45.409   2.593   8.137  0.00  0.00    +0.000 A 
ATOM     31  N   UNL     1      45.954   1.396   8.399  0.00  0.00    +0.000 NA
ATOM     32  C   UNL     1      46.987   1.026   7.617  0.00  0.00    +0.000 A 
ATOM     33  C   UNL     1      47.479   1.802   6.592  0.00  0.00    +0.000 A 
ATOM     34  C   UNL     1      46.835   3.000   6.401  0.00  0.00    +0.000 A 
ATOM     35  N   UNL     1      45.801   3.425   7.156  0.00  0.00    +0.000 NA
ENDBRANCH  29  30
ENDBRANCH  28  29
ENDBRANCH  25  28
ENDBRANCH  21  22
ENDBRANCH   1  21
TORSDOF 10
ENDMDL
MODEL 4
REMARK VINA RESULT:    -6.727      2.193      3.442
REMARK INTER + INTRA:         -11.688
REMARK INTER:                 -10.347
REMARK INTRA:                  -1.341
REMARK UNBOUND:                -1.225
REMARK  Name = 
REMARK  10 active torsions:
REMARK  status: ('A' for Active; 'I' for Inactive)
REMARK    1  A    between atoms: N_1  and  C_2
REMARK    2  A    between atoms: C_2  and  C_3
REMARK    3  A    between atoms: C_3  and  C_4
REMARK    4  A    between atoms: C_4  and  N_5
REMARK    5  A    between atoms: N_5  and  C_6
REMARK    6  A    between atoms: C_6  and  C_7
REMARK    7  A    between atoms: C_10  and  C_11
REMARK    8  A    between atoms: C_11  and  O_12
REMARK    9  A    between atoms: O_12  and  C_13
REMARK   10  A    between atoms: C_21  and  C_23
REMARK                            x       y       z     vdW  Elec       q    Type
REMARK                         _______ _______ _______ _____ _____    ______ ____
ROOT
ATOM      1  N   UNL     1      49.363   5.796  17.213  0.00  0.00    +0.000 N 
ATOM      2  C   UNL     1      50.711   5.460  16.977  0.00  0.00    +0.000 C 
ATOM      3  O   UNL     1      51.307   5.896  15.992  0.00  0.00    +0.000 OA
ENDROOT
BRANCH   2   4
ATOM      4  C   UNL     1      51.476   4.676  17.972  0.00  0.00    +0.000 A 
ATOM      5  C   UNL     1      52.300   5.204  18.953  0.00  0.00    +0.000 A 
ATOM      6  S   UNL     1      53.301   4.048  19.714  0.00  0.00    +0.000 S 
ATOM      7  C   UNL     1      52.699   2.807  18.723  0.00  0.00    +0.000 A 
ATOM      8  N   UNL     1      53.250   1.565  18.742  0.00  0.00    +0.000 NA
ATOM      9  C   UNL     1      52.691   0.730  17.931  0.00  0.00    +0.000 A 
ATOM     10  N   UNL     1      51.597   1.010  17.149  0.00  0.00    +0.000 N 
ATOM     11  C   UNL     1      50.940   2.224  17.187  0.00  0.00    +0.000 A 
ATOM     12  O   UNL     1      49.816   2.352  16.707  0.00  0.00    +0.000 OA
ATOM     13  C   UNL     1      51.641   3.240  17.946  0.00  0.00    +0.000 A 
ATOM     14  H   UNL     1      51.130   0.270  16.643  0.00  0.00    +0.000 HD
ENDBRANCH   2   4
BRANCH   1  15
ATOM     15  C   UNL     1      48.531   5.087  18.187  0.00  0.00    +0.000 C 
BRANCH  15  16
ATOM     16  C   UNL     1      48.403   5.658  19.602  0.00  0.00    +0.000 C 
BRANCH  16  17
ATOM     17  C   UNL     1      48.650   4.563  20.648  0.00  0.00    +0.000 C 
BRANCH  17  18
ATOM     18  N   UNL     1      48.404   3.229  20.108  0.00  0.00    +0.000 NA
ATOM     19  H   UNL     1      47.697   3.276  19.374  0.00  0.00    +0.000 HD
ATOM     20  H   UNL     1      48.027   2.618  20.832  0.00  0.00    +0.000 HD
ENDBRANCH  17  18
ENDBRANCH  16  17
ENDBRANCH  15  16
ENDBRANCH   1  15
BRANCH   1  21
ATOM     21  C   UNL     1      48.801   6.916  16.448  0.00  0.00    +0.000 C 
BRANCH  21  22
ATOM     22  C   UNL     1      48.258   6.597  15.062  0.00  0.00    +0.000 A 
ATOM     23  C   UNL     1      47.508   5.440  14.802  0.00  0.00    +0.000 A 
ATOM     24  C   UNL     1      46.798   5.298  13.595  0.00  0.00    +0.000 A 
ATOM     25  C   UNL     1      46.823   6.305  12.620  0.00  0.00    +0.000 A 
ATOM     26  C   UNL     1      47.614   7.436  12.855  0.00  0.00    +0.000 A 
ATOM     27  C   UNL     1      48.321   7.576  14.056  0.00  0.00    +0.000 A 
BRANCH  25  28
ATOM     28  C   UNL     1      45.943   6.232  11.385  0.00  0.00    +0.000 C 
BRANCH  28  29
ATOM     29  O   UNL     1      45.091   5.096  11.513  0.00  0.00    +0.000 OA
BRANCH  29  30
ATOM     30  C   UNL     1      45.095   4.308  10.384  0.00  0.00    +0.000 A 
ATOM     31  N   UNL     1      45.603   4.891   9.288  0.00  0.00    +0.000 NA
ATOM     32  C   UNL     1      45.641   4.136   8.173  0.00  0.00    +0.000 A 
ATOM     33  C   UNL     1      45.200   2.833   8.123  0.00  0.00    +0.000 A 
ATOM     34  C   UNL     1      44.716   2.331   9.306  0.00  0.00    +0.000 A 
ATOM     35  N   UNL     1      44.648   3.042  10.450  0.00  0.00    +0.000 NA
ENDBRANCH  29  30
ENDBRANCH  28  29
ENDBRANCH  25  28
ENDBRANCH  21  22
ENDBRANCH   1  21
TORSDOF 10
ENDMDL
MODEL 5
REMARK VINA RESULT:    -6.711      1.480      2.418
REMARK INTER + INTRA:         -11.663
REMARK INTER:                 -11.118
REMARK INTRA:                  -0.544
REMARK UNBOUND:                -1.225
REMARK  Name = 
REMARK  10 active torsions:
REMARK  status: ('A' for Active; 'I' for Inactive)
REMARK    1  A    between atoms: N_1  and  C_2
REMARK    2  A    between atoms: C_2  and  C_3
REMARK    3  A    between atoms: C_3  and  C_4
REMARK    4  A    between atoms: C_4  and  N_5
REMARK    5  A    between atoms: N_5  and  C_6
REMARK    6  A    between atoms: C_6  and  C_7
REMARK    7  A    between atoms: C_10  and  C_11
REMARK    8  A    between atoms: C_11  and  O_12
REMARK    9  A    between atoms: O_12  and  C_13
REMARK   10  A    between atoms: C_21  and  C_23
REMARK                            x       y       z     vdW  Elec       q    Type
REMARK                         _______ _______ _______ _____ _____    ______ ____
ROOT
ATOM      1  N   UNL     1      48.205   5.652  15.551  0.00  0.00    +0.000 N 
ATOM      2  C   UNL     1      47.711   4.746  16.510  0.00  0.00    +0.000 C 
ATOM      3  O   UNL     1      47.041   3.770  16.172  0.00  0.00    +0.000 OA
ENDROOT
BRANCH   2   4
ATOM      4  C   UNL     1      48.089   4.879  17.935  0.00  0.00    +0.000 A 
ATOM      5  C   UNL     1      47.359   5.553  18.902  0.00  0.00    +0.000 A 
ATOM      6  S   UNL     1      48.216   5.821  20.355  0.00  0.00    +0.000 S 
ATOM      7  C   UNL     1      49.610   5.084  19.724  0.00  0.00    +0.000 A 
ATOM      8  N   UNL     1      50.786   5.113  20.402  0.00  0.00    +0.000 NA
ATOM      9  C   UNL     1      51.759   4.518  19.793  0.00  0.00    +0.000 A 
ATOM     10  N   UNL     1      51.643   3.849  18.599  0.00  0.00    +0.000 N 
ATOM     11  C   UNL     1      50.440   3.701  17.936  0.00  0.00    +0.000 A 
ATOM     12  O   UNL     1      50.308   2.871  17.040  0.00  0.00    +0.000 OA
ATOM     13  C   UNL     1      49.369   4.503  18.493  0.00  0.00    +0.000 A 
ATOM     14  H   UNL     1      52.411   3.293  18.251  0.00  0.00    +0.000 HD
ENDBRANCH   2   4
BRANCH   1  15
ATOM     15  C   UNL     1      48.746   6.964  15.907  0.00  0.00    +0.000 C 
BRANCH  15  16
ATOM     16  C   UNL     1      49.384   7.821  14.811  0.00  0.00    +0.000 C 
BRANCH  16  17
ATOM     17  C   UNL     1      48.368   8.828  14.254  0.00  0.00    +0.000 C 
BRANCH  17  18
ATOM     18  N   UNL     1      47.343   9.166  15.237  0.00  0.00    +0.000 NA
ATOM     19  H   UNL     1      46.603   9.711  14.793  0.00  0.00    +0.000 HD
ATOM     20  H   UNL     1      47.736   9.758  15.968  0.00  0.00    +0.000 HD
ENDBRANCH  17  18
ENDBRANCH  16  17
ENDBRANCH  15  16
ENDBRANCH   1  15
BRANCH   1  21
ATOM     21  C   UNL     1      48.177   5.229  14.145  0.00  0.00    +0.000 C 
BRANCH  21  22
ATOM     22  C   UNL     1      46.808   4.950  13.539  0.00  0.00    +0.000 A 
ATOM     23  C   UNL     1      45.977   5.977  13.066  0.00  0.00    +0.000 A 
ATOM     24  C   UNL     1      44.849   5.686  12.278  0.00  0.00    +0.000 A 
ATOM     25  C   UNL     1      44.523   4.364  11.944  0.00  0.00    +0.000 A 
ATOM     26  C   UNL     1      45.321   3.335  12.459  0.00  0.00    +0.000 A 
ATOM     27  C   UNL     1      46.443   3.626  13.245  0.00  0.00    +0.000 A 
BRANCH  25  28
ATOM     28  C   UNL     1      43.402   4.047  10.971  0.00  0.00    +0.000 C 
BRANCH  28  29
ATOM     29  O   UNL     1      43.733   4.621   9.709  0.00  0.00    +0.000 OA
BRANCH  29  30
ATOM     30  C   UNL     1      44.661   3.872   9.020  0.00  0.00    +0.000 A 
ATOM     31  N   UNL     1      44.572   2.547   9.208  0.00  0.00    +0.000 NA
ATOM     32  C   UNL     1      45.453   1.787   8.529  0.00  0.00    +0.000 A 
ATOM     33  C   UNL     1      46.400   2.303   7.674  0.00  0.00    +0.000 A 
ATOM     34  C   UNL     1      46.390   3.670   7.543  0.00  0.00    +0.000 A 
ATOM     35  N   UNL     1      45.537   4.481   8.202  0.00  0.00    +0.000 NA
ENDBRANCH  29  30
ENDBRANCH  28  29
ENDBRANCH  25  28
ENDBRANCH  21  22
ENDBRANCH   1  21
TORSDOF 10
ENDMDL
MODEL 6
REMARK VINA RESULT:    -6.641      2.705      3.449
REMARK INTER + INTRA:         -11.555
REMARK INTER:                 -10.106
REMARK INTRA:                  -1.449
REMARK UNBOUND:                -1.225
REMARK  Name = 
REMARK  10 active torsions:
REMARK  status: ('A' for Active; 'I' for Inactive)
REMARK    1  A    between atoms: N_1  and  C_2
REMARK    2  A    between atoms: C_2  and  C_3
REMARK    3  A    between atoms: C_3  and  C_4
REMARK    4  A    between atoms: C_4  and  N_5
REMARK    5  A    between atoms: N_5  and  C_6
REMARK    6  A    between atoms: C_6  and  C_7
REMARK    7  A    between atoms: C_10  and  C_11
REMARK    8  A    between atoms: C_11  and  O_12
REMARK    9  A    between atoms: O_12  and  C_13
REMARK   10  A    between atoms: C_21  and  C_23
REMARK                            x       y       z     vdW  Elec       q    Type
REMARK                         _______ _______ _______ _____ _____    ______ ____
ROOT
ATOM      1  N   UNL     1      47.672   7.446  13.699  0.00  0.00    +0.000 N 
ATOM      2  C   UNL     1      48.542   8.553  13.765  0.00  0.00    +0.000 C 
ATOM      3  O   UNL     1      48.230   9.632  13.261  0.00  0.00    +0.000 OA
ENDROOT
BRANCH   2   4
ATOM      4  C   UNL     1      49.796   8.478  14.546  0.00  0.00    +0.000 A 
ATOM      5  C   UNL     1      51.059   8.243  14.023  0.00  0.00    +0.000 A 
ATOM      6  S   UNL     1      52.240   7.876  15.201  0.00  0.00    +0.000 S 
ATOM      7  C   UNL     1      51.092   7.974  16.450  0.00  0.00    +0.000 A 
ATOM      8  N   UNL     1      51.406   7.612  17.720  0.00  0.00    +0.000 NA
ATOM      9  C   UNL     1      50.430   7.734  18.558  0.00  0.00    +0.000 A 
ATOM     10  N   UNL     1      49.190   8.239  18.249  0.00  0.00    +0.000 N 
ATOM     11  C   UNL     1      48.870   8.722  16.996  0.00  0.00    +0.000 A 
ATOM     12  O   UNL     1      47.874   9.421  16.821  0.00  0.00    +0.000 OA
ATOM     13  C   UNL     1      49.874   8.438  15.990  0.00  0.00    +0.000 A 
ATOM     14  H   UNL     1      48.522   8.432  18.981  0.00  0.00    +0.000 HD
ENDBRANCH   2   4
BRANCH   1  15
ATOM     15  C   UNL     1      48.102   6.083  14.015  0.00  0.00    +0.000 C 
BRANCH  15  16
ATOM     16  C   UNL     1      47.835   5.531  15.418  0.00  0.00    +0.000 C 
BRANCH  16  17
ATOM     17  C   UNL     1      46.953   4.277  15.344  0.00  0.00    +0.000 C 
BRANCH  17  18
ATOM     18  N   UNL     1      47.407   3.352  14.309  0.00  0.00    +0.000 NA
ATOM     19  H   UNL     1      47.389   3.814  13.400  0.00  0.00    +0.000 HD
ATOM     20  H   UNL     1      46.772   2.558  14.242  0.00  0.00    +0.000 HD
ENDBRANCH  17  18
ENDBRANCH  16  17
ENDBRANCH  15  16
ENDBRANCH   1  15
BRANCH   1  21
ATOM     21  C   UNL     1      46.280   7.703  13.311  0.00  0.00    +0.000 C 
BRANCH  21  22
ATOM     22  C   UNL     1      45.639   6.706  12.354  0.00  0.00    +0.000 A 
ATOM     23  C   UNL     1      46.054   6.578  11.020  0.00  0.00    +0.000 A 
ATOM     24  C   UNL     1      45.640   5.485  10.238  0.00  0.00    +0.000 A 
ATOM     25  C   UNL     1      44.801   4.495  10.768  0.00  0.00    +0.000 A 
ATOM     26  C   UNL     1      44.342   4.649  12.082  0.00  0.00    +0.000 A 
ATOM     27  C   UNL     1      44.755   5.739  12.860  0.00  0.00    +0.000 A 
BRANCH  25  28
ATOM     28  C   UNL     1      44.471   3.236   9.987  0.00  0.00    +0.000 C 
BRANCH  28  29
ATOM     29  O   UNL     1      44.486   3.558   8.599  0.00  0.00    +0.000 OA
BRANCH  29  30
ATOM     30  C   UNL     1      45.532   2.958   7.933  0.00  0.00    +0.000 A 
ATOM     31  N   UNL     1      45.839   1.723   8.356  0.00  0.00    +0.000 NA
ATOM     32  C   UNL     1      46.844   1.102   7.708  0.00  0.00    +0.000 A 
ATOM     33  C   UNL     1      47.535   1.667   6.660  0.00  0.00    +0.000 A 
ATOM     34  C   UNL     1      47.126   2.927   6.298  0.00  0.00    +0.000 A 
ATOM     35  N   UNL     1      46.132   3.599   6.915  0.00  0.00    +0.000 NA
ENDBRANCH  29  30
ENDBRANCH  28  29
ENDBRANCH  25  28
ENDBRANCH  21  22
ENDBRANCH   1  21
TORSDOF 10
ENDMDL
MODEL 7
REMARK VINA RESULT:    -5.957      2.629      4.034
REMARK INTER + INTRA:         -10.490
REMARK INTER:                  -9.260
REMARK INTRA:                  -1.230
REMARK UNBOUND:                -1.225
REMARK  Name = 
REMARK  10 active torsions:
REMARK  status: ('A' for Active; 'I' for Inactive)
REMARK    1  A    between atoms: N_1  and  C_2
REMARK    2  A    between atoms: C_2  and  C_3
REMARK    3  A    between atoms: C_3  and  C_4
REMARK    4  A    between atoms: C_4  and  N_5
REMARK    5  A    between atoms: N_5  and  C_6
REMARK    6  A    between atoms: C_6  and  C_7
REMARK    7  A    between atoms: C_10  and  C_11
REMARK    8  A    between atoms: C_11  and  O_12
REMARK    9  A    between atoms: O_12  and  C_13
REMARK   10  A    between atoms: C_21  and  C_23
REMARK                            x       y       z     vdW  Elec       q    Type
REMARK                         _______ _______ _______ _____ _____    ______ ____
ROOT
ATOM      1  N   UNL     1      49.464   7.823  15.607  0.00  0.00    +0.000 N 
ATOM      2  C   UNL     1      49.193   7.320  16.895  0.00  0.00    +0.000 C 
ATOM      3  O   UNL     1      48.256   7.760  17.561  0.00  0.00    +0.000 OA
ENDROOT
BRANCH   2   4
ATOM      4  C   UNL     1      49.954   6.169  17.428  0.00  0.00    +0.000 A 
ATOM      5  C   UNL     1      51.232   6.226  17.965  0.00  0.00    +0.000 A 
ATOM      6  S   UNL     1      51.965   4.698  18.173  0.00  0.00    +0.000 S 
ATOM      7  C   UNL     1      50.616   3.908  17.509  0.00  0.00    +0.000 A 
ATOM      8  N   UNL     1      50.643   2.576  17.245  0.00  0.00    +0.000 NA
ATOM      9  C   UNL     1      49.547   2.119  16.735  0.00  0.00    +0.000 A 
ATOM     10  N   UNL     1      48.412   2.862  16.522  0.00  0.00    +0.000 N 
ATOM     11  C   UNL     1      48.309   4.191  16.882  0.00  0.00    +0.000 A 
ATOM     12  O   UNL     1      47.215   4.747  16.948  0.00  0.00    +0.000 OA
ATOM     13  C   UNL     1      49.568   4.783  17.288  0.00  0.00    +0.000 A 
ATOM     14  H   UNL     1      47.551   2.410  16.248  0.00  0.00    +0.000 HD
ENDBRANCH   2   4
BRANCH   1  15
ATOM     15  C   UNL     1      50.717   7.554  14.900  0.00  0.00    +0.000 C 
BRANCH  15  16
ATOM     16  C   UNL     1      51.081   8.417  13.689  0.00  0.00    +0.000 C 
BRANCH  16  17
ATOM     17  C   UNL     1      52.443   9.093  13.900  0.00  0.00    +0.000 C 
BRANCH  17  18
ATOM     18  N   UNL     1      52.413  10.506  13.531  0.00  0.00    +0.000 NA
ATOM     19  H   UNL     1      52.713  10.617  12.562  0.00  0.00    +0.000 HD
ATOM     20  H   UNL     1      53.074  11.034  14.099  0.00  0.00    +0.000 HD
ENDBRANCH  17  18
ENDBRANCH  16  17
ENDBRANCH  15  16
ENDBRANCH   1  15
BRANCH   1  21
ATOM     21  C   UNL     1      48.422   8.634  14.966  0.00  0.00    +0.000 C 
BRANCH  21  22
ATOM     22  C   UNL     1      47.527   7.929  13.956  0.00  0.00    +0.000 A 
ATOM     23  C   UNL     1      47.517   6.534  13.813  0.00  0.00    +0.000 A 
ATOM     24  C   UNL     1      46.506   5.892  13.075  0.00  0.00    +0.000 A 
ATOM     25  C   UNL     1      45.482   6.628  12.461  0.00  0.00    +0.000 A 
ATOM     26  C   UNL     1      45.521   8.024  12.558  0.00  0.00    +0.000 A 
ATOM     27  C   UNL     1      46.529   8.662  13.292  0.00  0.00    +0.000 A 
BRANCH  25  28
ATOM     28  C   UNL     1      44.305   5.941  11.793  0.00  0.00    +0.000 C 
BRANCH  28  29
ATOM     29  O   UNL     1      44.556   4.538  11.784  0.00  0.00    +0.000 OA
BRANCH  29  30
ATOM     30  C   UNL     1      44.811   4.059  10.518  0.00  0.00    +0.000 A 
ATOM     31  N   UNL     1      44.417   2.796  10.301  0.00  0.00    +0.000 NA
ATOM     32  C   UNL     1      44.633   2.308   9.064  0.00  0.00    +0.000 A 
ATOM     33  C   UNL     1      45.215   3.036   8.051  0.00  0.00    +0.000 A 
ATOM     34  C   UNL     1      45.563   4.323   8.379  0.00  0.00    +0.000 A 
ATOM     35  N   UNL     1      45.377   4.863   9.601  0.00  0.00    +0.000 NA
ENDBRANCH  29  30
ENDBRANCH  28  29
ENDBRANCH  25  28
ENDBRANCH  21  22
ENDBRANCH   1  21
TORSDOF 10
ENDMDL
MODEL 8
REMARK VINA RESULT:    -5.943      3.704      4.847
REMARK INTER + INTRA:         -10.469
REMARK INTER:                  -9.133
REMARK INTRA:                  -1.336
REMARK UNBOUND:                -1.225
REMARK  Name = 
REMARK  10 active torsions:
REMARK  status: ('A' for Active; 'I' for Inactive)
REMARK    1  A    between atoms: N_1  and  C_2
REMARK    2  A    between atoms: C_2  and  C_3
REMARK    3  A    between atoms: C_3  and  C_4
REMARK    4  A    between atoms: C_4  and  N_5
REMARK    5  A    between atoms: N_5  and  C_6
REMARK    6  A    between atoms: C_6  and  C_7
REMARK    7  A    between atoms: C_10  and  C_11
REMARK    8  A    between atoms: C_11  and  O_12
REMARK    9  A    between atoms: O_12  and  C_13
REMARK   10  A    between atoms: C_21  and  C_23
REMARK                            x       y       z     vdW  Elec       q    Type
REMARK                         _______ _______ _______ _____ _____    ______ ____
ROOT
ATOM      1  N   UNL     1      48.447   7.547  13.622  0.00  0.00    +0.000 N 
ATOM      2  C   UNL     1      49.102   8.553  12.885  0.00  0.00    +0.000 C 
ATOM      3  O   UNL     1      48.536   9.121  11.951  0.00  0.00    +0.000 OA
ENDROOT
BRANCH   2   4
ATOM      4  C   UNL     1      50.440   9.035  13.292  0.00  0.00    +0.000 A 
ATOM      5  C   UNL     1      51.650   8.491  12.889  0.00  0.00    +0.000 A 
ATOM      6  S   UNL     1      52.992   9.041  13.791  0.00  0.00    +0.000 S 
ATOM      7  C   UNL     1      51.995   9.992  14.783  0.00  0.00    +0.000 A 
ATOM      8  N   UNL     1      52.491  10.618  15.882  0.00  0.00    +0.000 NA
ATOM      9  C   UNL     1      51.612  11.299  16.541  0.00  0.00    +0.000 A 
ATOM     10  N   UNL     1      50.300  11.454  16.167  0.00  0.00    +0.000 N 
ATOM     11  C   UNL     1      49.787  10.927  14.998  0.00  0.00    +0.000 A 
ATOM     12  O   UNL     1      48.711  11.314  14.547  0.00  0.00    +0.000 OA
ATOM     13  C   UNL     1      50.690  10.013  14.328  0.00  0.00    +0.000 A 
ATOM     14  H   UNL     1      49.706  12.110  16.654  0.00  0.00    +0.000 HD
ENDBRANCH   2   4
BRANCH   1  15
ATOM     15  C   UNL     1      49.156   6.647  14.534  0.00  0.00    +0.000 C 
BRANCH  15  16
ATOM     16  C   UNL     1      48.649   6.505  15.972  0.00  0.00    +0.000 C 
BRANCH  16  17
ATOM     17  C   UNL     1      48.815   7.827  16.734  0.00  0.00    +0.000 C 
BRANCH  17  18
ATOM     18  N   UNL     1      47.911   7.914  17.877  0.00  0.00    +0.000 NA
ATOM     19  H   UNL     1      47.293   8.719  17.770  0.00  0.00    +0.000 HD
ATOM     20  H   UNL     1      48.439   8.069  18.735  0.00  0.00    +0.000 HD
ENDBRANCH  17  18
ENDBRANCH  16  17
ENDBRANCH  15  16
ENDBRANCH   1  15
BRANCH   1  21
ATOM     21  C   UNL     1      46.993   7.428  13.461  0.00  0.00    +0.000 C 
BRANCH  21  22
ATOM     22  C   UNL     1      46.493   6.335  12.526  0.00  0.00    +0.000 A 
ATOM     23  C   UNL     1      45.955   5.131  13.005  0.00  0.00    +0.000 A 
ATOM     24  C   UNL     1      45.263   4.259  12.145  0.00  0.00    +0.000 A 
ATOM     25  C   UNL     1      45.092   4.567  10.788  0.00  0.00    +0.000 A 
ATOM     26  C   UNL     1      45.675   5.742  10.298  0.00  0.00    +0.000 A 
ATOM     27  C   UNL     1      46.365   6.609  11.154  0.00  0.00    +0.000 A 
BRANCH  25  28
ATOM     28  C   UNL     1      44.220   3.714   9.886  0.00  0.00    +0.000 C 
BRANCH  28  29
ATOM     29  O   UNL     1      44.858   2.451   9.716  0.00  0.00    +0.000 OA
BRANCH  29  30
ATOM     30  C   UNL     1      45.611   2.394   8.564  0.00  0.00    +0.000 A 
ATOM     31  N   UNL     1      46.321   1.268   8.406  0.00  0.00    +0.000 NA
ATOM     32  C   UNL     1      47.049   1.174   7.276  0.00  0.00    +0.000 A 
ATOM     33  C   UNL     1      47.081   2.155   6.311  0.00  0.00    +0.000 A 
ATOM     34  C   UNL     1      46.303   3.257   6.567  0.00  0.00    +0.000 A 
ATOM     35  N   UNL     1      45.560   3.408   7.682  0.00  0.00    +0.000 NA
ENDBRANCH  29  30
ENDBRANCH  28  29
ENDBRANCH  25  28
ENDBRANCH  21  22
ENDBRANCH   1  21
TORSDOF 10
ENDMDL
MODEL 9
REMARK VINA RESULT:    -5.042      3.961      6.807
REMARK INTER + INTRA:          -9.068
REMARK INTER:                  -7.034
REMARK INTRA:                  -2.034
REMARK UNBOUND:                -1.225
REMARK  Name = 
REMARK  10 active torsions:
REMARK  status: ('A' for Active; 'I' for Inactive)
REMARK    1  A    between atoms: N_1  and  C_2
REMARK    2  A    between atoms: C_2  and  C_3
REMARK    3  A    between atoms: C_3  and  C_4
REMARK    4  A    between atoms: C_4  and  N_5
REMARK    5  A    between atoms: N_5  and  C_6
REMARK    6  A    between atoms: C_6  and  C_7
REMARK    7  A    between atoms: C_10  and  C_11
REMARK    8  A    between atoms: C_11  and  O_12
REMARK    9  A    between atoms: O_12  and  C_13
REMARK   10  A    between atoms: C_21  and  C_23
REMARK                            x       y       z     vdW  Elec       q    Type
REMARK                         _______ _______ _______ _____ _____    ______ ____
ROOT
ATOM      1  N   UNL     1      51.454   5.346  18.023  0.00  0.00    +0.000 N 
ATOM      2  C   UNL     1      50.179   5.619  18.558  0.00  0.00    +0.000 C 
ATOM      3  O   UNL     1      50.017   6.528  19.372  0.00  0.00    +0.000 OA
ENDROOT
BRANCH   2   4
ATOM      4  C   UNL     1      48.986   4.899  18.061  0.00  0.00    +0.000 A 
ATOM      5  C   UNL     1      48.462   3.736  18.603  0.00  0.00    +0.000 A 
ATOM      6  S   UNL     1      47.302   2.969  17.611  0.00  0.00    +0.000 S 
ATOM      7  C   UNL     1      47.494   4.144  16.399  0.00  0.00    +0.000 A 
ATOM      8  N   UNL     1      46.899   4.003  15.186  0.00  0.00    +0.000 NA
ATOM      9  C   UNL     1      47.142   4.972  14.367  0.00  0.00    +0.000 A 
ATOM     10  N   UNL     1      47.875   6.092  14.673  0.00  0.00    +0.000 N 
ATOM     11  C   UNL     1      48.400   6.324  15.929  0.00  0.00    +0.000 A 
ATOM     12  O   UNL     1      48.795   7.441  16.255  0.00  0.00    +0.000 OA
ATOM     13  C   UNL     1      48.303   5.183  16.818  0.00  0.00    +0.000 A 
ATOM     14  H   UNL     1      47.909   6.870  14.029  0.00  0.00    +0.000 HD
ENDBRANCH   2   4
BRANCH   1  15
ATOM     15  C   UNL     1      51.757   4.115  17.291  0.00  0.00    +0.000 C 
BRANCH  15  16
ATOM     16  C   UNL     1      52.005   2.828  18.083  0.00  0.00    +0.000 C 
BRANCH  16  17
ATOM     17  C   UNL     1      51.363   1.628  17.373  0.00  0.00    +0.000 C 
BRANCH  17  18
ATOM     18  N   UNL     1      51.663   0.370  18.051  0.00  0.00    +0.000 NA
ATOM     19  H   UNL     1      51.257   0.376  18.987  0.00  0.00    +0.000 HD
ATOM     20  H   UNL     1      52.669   0.266  18.174  0.00  0.00    +0.000 HD
ENDBRANCH  17  18
ENDBRANCH  16  17
ENDBRANCH  15  16
ENDBRANCH   1  15
BRANCH   1  21
ATOM     21  C   UNL     1      52.497   6.362  18.211  0.00  0.00    +0.000 C 
BRANCH  21  22
ATOM     22  C   UNL     1      52.682   7.372  17.086  0.00  0.00    +0.000 A 
ATOM     23  C   UNL     1      53.320   7.040  15.882  0.00  0.00    +0.000 A 
ATOM     24  C   UNL     1      53.246   7.895  14.767  0.00  0.00    +0.000 A 
ATOM     25  C   UNL     1      52.535   9.102  14.830  0.00  0.00    +0.000 A 
ATOM     26  C   UNL     1      51.943   9.460  16.047  0.00  0.00    +0.000 A 
ATOM     27  C   UNL     1      52.019   8.608  17.156  0.00  0.00    +0.000 A 
BRANCH  25  28
ATOM     28  C   UNL     1      52.319   9.958  13.595  0.00  0.00    +0.000 C 
BRANCH  28  29
ATOM     29  O   UNL     1      51.962   9.098  12.516  0.00  0.00    +0.000 OA
BRANCH  29  30
ATOM     30  C   UNL     1      50.598   8.989  12.361  0.00  0.00    +0.000 A 
ATOM     31  N   UNL     1      50.186   7.882  11.726  0.00  0.00    +0.000 NA
ATOM     32  C   UNL     1      48.855   7.737  11.581  0.00  0.00    +0.000 A 
ATOM     33  C   UNL     1      47.936   8.647  12.052  0.00  0.00    +0.000 A 
ATOM     34  C   UNL     1      48.467   9.735  12.701  0.00  0.00    +0.000 A 
ATOM     35  N   UNL     1      49.790   9.936  12.870  0.00  0.00    +0.000 NA
ENDBRANCH  29  30
ENDBRANCH  28  29
ENDBRANCH  25  28
ENDBRANCH  21  22
ENDBRANCH   1  21
TORSDOF 10
ENDMDL
