MODEL 1
REMARK VINA RESULT:    -8.205      0.000      0.000
REMARK INTER + INTRA:         -13.433
REMARK INTER:                 -12.042
REMARK INTRA:                  -1.392
REMARK UNBOUND:                -1.392
REMARK  Name = 
REMARK  10 active torsions:
REMARK  status: ('A' for Active; 'I' for Inactive)
REMARK    1  A    between atoms: C_1  and  O_2
REMARK    2  A    between atoms: O_2  and  C_3
REMARK    3  A    between atoms: C_10  and  C_11
REMARK    4  A    between atoms: N_13  and  C_14
REMARK    5  A    between atoms: C_14  and  C_15
REMARK    6  A    between atoms: C_18  and  C_19
REMARK    7  A    between atoms: C_19  and  N_20
REMARK    8  A    between atoms: N_20  and  C_21
REMARK    9  A    between atoms: C_21  and  C_22
REMARK   10  A    between atoms: C_25  and  C_26
REMARK                            x       y       z     vdW  Elec       q    Type
REMARK                         _______ _______ _______ _____ _____    ______ ____
ROOT
ATOM      1  C   UNL     1      46.969   6.112  12.893  0.00  0.00    +0.000 A 
ATOM      2  C   UNL     1      46.546   6.569  11.636  0.00  0.00    +0.000 A 
ATOM      3  C   UNL     1      45.329   6.140  11.089  0.00  0.00    +0.000 A 
ATOM      4  C   UNL     1      44.505   5.240  11.783  0.00  0.00    +0.000 A 
ATOM      5  C   UNL     1      44.928   4.792  13.044  0.00  0.00    +0.000 A 
ATOM      6  C   UNL     1      46.139   5.228  13.595  0.00  0.00    +0.000 A 
ENDROOT
BRANCH   1   7
ATOM      7  C   UNL     1      48.265   6.596  13.496  0.00  0.00    +0.000 C 
BRANCH   7  10
ATOM      8  C   UNL     1      49.055   7.338  15.707  0.00  0.00    +0.000 C 
ATOM      9  O   UNL     1      49.929   8.038  15.196  0.00  0.00    +0.000 OA
ATOM     10  N   UNL     1      48.201   6.598  14.939  0.00  0.00    +0.000 N 
ATOM     11  H   UNL     1      47.526   5.985  15.376  0.00  0.00    +0.000 HD
BRANCH   8  19
ATOM     12  C   UNL     1      48.863   4.738  17.956  0.00  0.00    +0.000 A 
ATOM     13  N   UNL     1      48.775   3.931  19.031  0.00  0.00    +0.000 NA
ATOM     14  C   UNL     1      48.626   4.494  20.231  0.00  0.00    +0.000 A 
ATOM     15  N   UNL     1      48.553   5.795  20.499  0.00  0.00    +0.000 NA
ATOM     16  C   UNL     1      48.656   6.565  19.402  0.00  0.00    +0.000 A 
ATOM     17  S   UNL     1      48.580   8.253  19.556  0.00  0.00    +0.000 S 
ATOM     18  C   UNL     1      48.765   8.464  17.880  0.00  0.00    +0.000 A 
ATOM     19  C   UNL     1      48.891   7.275  17.172  0.00  0.00    +0.000 A 
ATOM     20  C   UNL     1      48.823   6.138  18.088  0.00  0.00    +0.000 A 
BRANCH  12  22
ATOM     21  C   UNL     1      47.936   3.309  16.370  0.00  0.00    +0.000 C 
ATOM     22  O   UNL     1      49.034   4.147  16.722  0.00  0.00    +0.000 OA
ENDBRANCH  12  22
ENDBRANCH   8  19
ENDBRANCH   7  10
ENDBRANCH   1   7
BRANCH   4  23
ATOM     23  C   UNL     1      43.180   4.779  11.204  0.00  0.00    +0.000 C 
BRANCH  23  24
ATOM     24  N   UNL     1      43.367   4.105   9.919  0.00  0.00    +0.000 NA
ATOM     25  H   UNL     1      43.878   4.732   9.297  0.00  0.00    +0.000 HD
BRANCH  24  26
ATOM     26  C   UNL     1      44.157   2.871  10.052  0.00  0.00    +0.000 C 
BRANCH  26  27
ATOM     27  C   UNL     1      45.162   2.719   8.919  0.00  0.00    +0.000 A 
ATOM     28  C   UNL     1      45.499   3.819   8.130  0.00  0.00    +0.000 A 
ATOM     29  C   UNL     1      46.444   3.665   7.118  0.00  0.00    +0.000 A 
ATOM     30  C   UNL     1      47.028   2.420   6.899  0.00  0.00    +0.000 A 
ATOM     31  C   UNL     1      48.043   2.204   5.823  0.00  0.00    +0.000 C 
ATOM     32  C   UNL     1      46.626   1.376   7.724  0.00  0.00    +0.000 A 
ATOM     33  N   UNL     1      45.717   1.495   8.724  0.00  0.00    +0.000 NA
ENDBRANCH  26  27
ENDBRANCH  24  26
ENDBRANCH  23  24
ENDBRANCH   4  23
TORSDOF 8
ENDMDL
MODEL 2
REMARK VINA RESULT:    -7.826      1.525      2.563
REMARK INTER + INTRA:         -12.878
REMARK INTER:                 -11.703
REMARK INTRA:                  -1.175
REMARK UNBOUND:                -1.392
REMARK  Name = 
REMARK  10 active torsions:
REMARK  status: ('A' for Active; 'I' for Inactive)
REMARK    1  A    between atoms: C_1  and  O_2
REMARK    2  A    between atoms: O_2  and  C_3
REMARK    3  A    between atoms: C_10  and  C_11
REMARK    4  A    between atoms: N_13  and  C_14
REMARK    5  A    between atoms: C_14  and  C_15
REMARK    6  A    between atoms: C_18  and  C_19
REMARK    7  A    between atoms: C_19  and  N_20
REMARK    8  A    between atoms: N_20  and  C_21
REMARK    9  A    between atoms: C_21  and  C_22
REMARK   10  A    between atoms: C_25  and  C_26
REMARK                            x       y       z     vdW  Elec       q    Type
REMARK                         _______ _______ _______ _____ _____    ______ ____
ROOT
ATOM      1  C   UNL     1      46.954   5.967  13.319  0.00  0.00    +0.000 A 
ATOM      2  C   UNL     1      46.658   6.745  12.190  0.00  0.00    +0.000 A 
ATOM      3  C   UNL     1      45.466   6.551  11.479  0.00  0.00    +0.000 A 
ATOM      4  C   UNL     1      44.542   5.572  11.876  0.00  0.00    +0.000 A 
ATOM      5  C   UNL     1      44.839   4.801  13.011  0.00  0.00    +0.000 A 
ATOM      6  C   UNL     1      46.025   5.002  13.728  0.00  0.00    +0.000 A 
ENDROOT
BRANCH   1   7
ATOM      7  C   UNL     1      48.224   6.195  14.104  0.00  0.00    +0.000 C 
BRANCH   7  10
ATOM      8  C   UNL     1      48.853   6.180  16.484  0.00  0.00    +0.000 C 
ATOM      9  O   UNL     1      49.967   5.729  16.220  0.00  0.00    +0.000 OA
ATOM     10  N   UNL     1      47.940   6.433  15.500  0.00  0.00    +0.000 N 
ATOM     11  H   UNL     1      47.010   6.750  15.738  0.00  0.00    +0.000 HD
BRANCH   8  19
ATOM     12  C   UNL     1      47.877   9.051  18.115  0.00  0.00    +0.000 A 
ATOM     13  N   UNL     1      47.461  10.000  18.977  0.00  0.00    +0.000 NA
ATOM     14  C   UNL     1      47.232   9.644  20.242  0.00  0.00    +0.000 A 
ATOM     15  N   UNL     1      47.369   8.429  20.767  0.00  0.00    +0.000 NA
ATOM     16  C   UNL     1      47.773   7.511  19.871  0.00  0.00    +0.000 A 
ATOM     17  S   UNL     1      48.003   5.904  20.367  0.00  0.00    +0.000 S 
ATOM     18  C   UNL     1      48.471   5.436  18.802  0.00  0.00    +0.000 A 
ATOM     19  C   UNL     1      48.461   6.473  17.876  0.00  0.00    +0.000 A 
ATOM     20  C   UNL     1      48.044   7.716  18.522  0.00  0.00    +0.000 A 
BRANCH  12  22
ATOM     21  C   UNL     1      49.442   9.831  16.578  0.00  0.00    +0.000 C 
ATOM     22  O   UNL     1      48.094   9.426  16.805  0.00  0.00    +0.000 OA
ENDBRANCH  12  22
ENDBRANCH   8  19
ENDBRANCH   7  10
ENDBRANCH   1   7
BRANCH   4  23
ATOM     23  C   UNL     1      43.243   5.362  11.119  0.00  0.00    +0.000 C 
BRANCH  23  24
ATOM     24  N   UNL     1      43.475   4.689   9.842  0.00  0.00    +0.000 NA
ATOM     25  H   UNL     1      44.141   5.242   9.301  0.00  0.00    +0.000 HD
BRANCH  24  26
ATOM     26  C   UNL     1      44.055   3.348  10.020  0.00  0.00    +0.000 C 
BRANCH  26  27
ATOM     27  C   UNL     1      45.091   3.034   8.950  0.00  0.00    +0.000 A 
ATOM     28  C   UNL     1      45.615   4.057   8.160  0.00  0.00    +0.000 A 
ATOM     29  C   UNL     1      46.584   3.753   7.207  0.00  0.00    +0.000 A 
ATOM     30  C   UNL     1      47.007   2.435   7.047  0.00  0.00    +0.000 A 
ATOM     31  C   UNL     1      48.042   2.058   6.036  0.00  0.00    +0.000 C 
ATOM     32  C   UNL     1      46.425   1.476   7.868  0.00  0.00    +0.000 A 
ATOM     33  N   UNL     1      45.486   1.742   8.811  0.00  0.00    +0.000 NA
ENDBRANCH  26  27
ENDBRANCH  24  26
ENDBRANCH  23  24
ENDBRANCH   4  23
TORSDOF 8
ENDMDL
MODEL 3
REMARK VINA RESULT:    -7.682      1.847      2.139
REMARK INTER + INTRA:         -12.666
REMARK INTER:                 -11.190
REMARK INTRA:                  -1.476
REMARK UNBOUND:                -1.392
REMARK  Name = 
REMARK  10 active torsions:
REMARK  status: ('A' for Active; 'I' for Inactive)
REMARK    1  A    between atoms: C_1  and  O_2
REMARK    2  A    between atoms: O_2  and  C_3
REMARK    3  A    between atoms: C_10  and  C_11
REMARK    4  A    between atoms: N_13  and  C_14
REMARK    5  A    between atoms: C_14  and  C_15
REMARK    6  A    between atoms: C_18  and  C_19
REMARK    7  A    between atoms: C_19  and  N_20
REMARK    8  A    between atoms: N_20  and  C_21
REMARK    9  A    between atoms: C_21  and  C_22
REMARK   10  A    between atoms: C_25  and  C_26
REMARK                            x       y       z     vdW  Elec       q    Type
REMARK                         _______ _______ _______ _____ _____    ______ ____
ROOT
ATOM      1  C   UNL     1      47.201   6.676  12.532  0.00  0.00    +0.000 A 
ATOM      2  C   UNL     1      46.014   7.316  12.146  0.00  0.00    +0.000 A 
ATOM      3  C   UNL     1      44.773   6.686  12.312  0.00  0.00    +0.000 A 
ATOM      4  C   UNL     1      44.688   5.398  12.863  0.00  0.00    +0.000 A 
ATOM      5  C   UNL     1      45.877   4.764  13.255  0.00  0.00    +0.000 A 
ATOM      6  C   UNL     1      47.116   5.397  13.099  0.00  0.00    +0.000 A 
ENDROOT
BRANCH   1   7
ATOM      7  C   UNL     1      48.535   7.365  12.382  0.00  0.00    +0.000 C 
BRANCH   7  10
ATOM      8  C   UNL     1      49.547   7.550  14.619  0.00  0.00    +0.000 C 
ATOM      9  O   UNL     1      48.832   8.512  14.899  0.00  0.00    +0.000 OA
ATOM     10  N   UNL     1      49.463   6.935  13.402  0.00  0.00    +0.000 N 
ATOM     11  H   UNL     1      50.097   6.183  13.168  0.00  0.00    +0.000 HD
BRANCH   8  19
ATOM     12  C   UNL     1      49.348   5.205  17.132  0.00  0.00    +0.000 A 
ATOM     13  N   UNL     1      49.550   4.340  18.145  0.00  0.00    +0.000 NA
ATOM     14  C   UNL     1      50.766   4.282  18.691  0.00  0.00    +0.000 A 
ATOM     15  N   UNL     1      51.832   4.996  18.342  0.00  0.00    +0.000 NA
ATOM     16  C   UNL     1      51.591   5.837  17.321  0.00  0.00    +0.000 A 
ATOM     17  S   UNL     1      52.840   6.832  16.745  0.00  0.00    +0.000 S 
ATOM     18  C   UNL     1      51.818   7.523  15.576  0.00  0.00    +0.000 A 
ATOM     19  C   UNL     1      50.522   7.020  15.591  0.00  0.00    +0.000 A 
ATOM     20  C   UNL     1      50.390   6.011  16.641  0.00  0.00    +0.000 A 
BRANCH  12  22
ATOM     21  C   UNL     1      47.403   4.003  16.694  0.00  0.00    +0.000 C 
ATOM     22  O   UNL     1      48.092   5.245  16.563  0.00  0.00    +0.000 OA
ENDBRANCH  12  22
ENDBRANCH   8  19
ENDBRANCH   7  10
ENDBRANCH   1   7
BRANCH   4  23
ATOM     23  C   UNL     1      43.347   4.711  13.057  0.00  0.00    +0.000 C 
BRANCH  23  24
ATOM     24  N   UNL     1      42.802   4.242  11.783  0.00  0.00    +0.000 NA
ATOM     25  H   UNL     1      43.050   4.916  11.058  0.00  0.00    +0.000 HD
BRANCH  24  26
ATOM     26  C   UNL     1      43.359   2.939  11.389  0.00  0.00    +0.000 C 
BRANCH  26  27
ATOM     27  C   UNL     1      44.209   3.045  10.131  0.00  0.00    +0.000 A 
ATOM     28  C   UNL     1      44.459   4.292   9.558  0.00  0.00    +0.000 A 
ATOM     29  C   UNL     1      45.264   4.370   8.424  0.00  0.00    +0.000 A 
ATOM     30  C   UNL     1      45.797   3.208   7.872  0.00  0.00    +0.000 A 
ATOM     31  C   UNL     1      46.663   3.240   6.654  0.00  0.00    +0.000 C 
ATOM     32  C   UNL     1      45.488   2.006   8.500  0.00  0.00    +0.000 A 
ATOM     33  N   UNL     1      44.716   1.899   9.610  0.00  0.00    +0.000 NA
ENDBRANCH  26  27
ENDBRANCH  24  26
ENDBRANCH  23  24
ENDBRANCH   4  23
TORSDOF 8
ENDMDL
MODEL 4
REMARK VINA RESULT:    -6.869      4.492      6.445
REMARK INTER + INTRA:         -11.472
REMARK INTER:                 -10.407
REMARK INTRA:                  -1.066
REMARK UNBOUND:                -1.392
REMARK  Name = 
REMARK  10 active torsions:
REMARK  status: ('A' for Active; 'I' for Inactive)
REMARK    1  A    between atoms: C_1  and  O_2
REMARK    2  A    between atoms: O_2  and  C_3
REMARK    3  A    between atoms: C_10  and  C_11
REMARK    4  A    between atoms: N_13  and  C_14
REMARK    5  A    between atoms: C_14  and  C_15
REMARK    6  A    between atoms: C_18  and  C_19
REMARK    7  A    between atoms: C_19  and  N_20
REMARK    8  A    between atoms: N_20  and  C_21
REMARK    9  A    between atoms: C_21  and  C_22
REMARK   10  A    between atoms: C_25  and  C_26
REMARK                            x       y       z     vdW  Elec       q    Type
REMARK                         _______ _______ _______ _____ _____    ______ ____
ROOT
ATOM      1  C   UNL     1      47.830   6.514  12.973  0.00  0.00    +0.000 A 
ATOM      2  C   UNL     1      47.196   5.586  13.813  0.00  0.00    +0.000 A 
ATOM      3  C   UNL     1      45.967   5.017  13.454  0.00  0.00    +0.000 A 
ATOM      4  C   UNL     1      45.338   5.364  12.248  0.00  0.00    +0.000 A 
ATOM      5  C   UNL     1      45.979   6.286  11.407  0.00  0.00    +0.000 A 
ATOM      6  C   UNL     1      47.212   6.848  11.761  0.00  0.00    +0.000 A 
ENDROOT
BRANCH   1   7
ATOM      7  C   UNL     1      49.168   7.105  13.344  0.00  0.00    +0.000 C 
BRANCH   7  10
ATOM      8  C   UNL     1      50.940   8.476  12.322  0.00  0.00    +0.000 C 
ATOM      9  O   UNL     1      51.688   8.280  13.278  0.00  0.00    +0.000 OA
ATOM     10  N   UNL     1      49.685   7.936  12.282  0.00  0.00    +0.000 N 
ATOM     11  H   UNL     1      49.063   8.153  11.515  0.00  0.00    +0.000 HD
BRANCH   8  19
ATOM     12  C   UNL     1      52.821   7.823   9.513  0.00  0.00    +0.000 A 
ATOM     13  N   UNL     1      53.495   7.839   8.346  0.00  0.00    +0.000 NA
ATOM     14  C   UNL     1      53.548   8.986   7.665  0.00  0.00    +0.000 A 
ATOM     15  N   UNL     1      52.996  10.146   8.011  0.00  0.00    +0.000 NA
ATOM     16  C   UNL     1      52.324  10.083   9.173  0.00  0.00    +0.000 A 
ATOM     17  S   UNL     1      51.558  11.475   9.771  0.00  0.00    +0.000 S 
ATOM     18  C   UNL     1      50.998  10.638  11.140  0.00  0.00    +0.000 A 
ATOM     19  C   UNL     1      51.370   9.299  11.175  0.00  0.00    +0.000 A 
ATOM     20  C   UNL     1      52.167   8.971   9.995  0.00  0.00    +0.000 A 
BRANCH  12  22
ATOM     21  C   UNL     1      53.884   5.796   9.934  0.00  0.00    +0.000 C 
ATOM     22  O   UNL     1      52.758   6.629  10.200  0.00  0.00    +0.000 OA
ENDBRANCH  12  22
ENDBRANCH   8  19
ENDBRANCH   7  10
ENDBRANCH   1   7
BRANCH   4  23
ATOM     23  C   UNL     1      44.012   4.744  11.845  0.00  0.00    +0.000 C 
BRANCH  23  24
ATOM     24  N   UNL     1      43.975   4.453  10.412  0.00  0.00    +0.000 NA
ATOM     25  H   UNL     1      44.724   4.976   9.957  0.00  0.00    +0.000 HD
BRANCH  24  26
ATOM     26  C   UNL     1      44.196   3.026  10.132  0.00  0.00    +0.000 C 
BRANCH  26  27
ATOM     27  C   UNL     1      45.184   2.820   8.992  0.00  0.00    +0.000 A 
ATOM     28  C   UNL     1      45.533   3.889   8.167  0.00  0.00    +0.000 A 
ATOM     29  C   UNL     1      46.462   3.687   7.149  0.00  0.00    +0.000 A 
ATOM     30  C   UNL     1      47.019   2.424   6.961  0.00  0.00    +0.000 A 
ATOM     31  C   UNL     1      48.017   2.156   5.880  0.00  0.00    +0.000 C 
ATOM     32  C   UNL     1      46.607   1.413   7.821  0.00  0.00    +0.000 A 
ATOM     33  N   UNL     1      45.712   1.580   8.827  0.00  0.00    +0.000 NA
ENDBRANCH  26  27
ENDBRANCH  24  26
ENDBRANCH  23  24
ENDBRANCH   4  23
TORSDOF 8
ENDMDL
MODEL 5
REMARK VINA RESULT:    -6.860      2.549      3.484
REMARK INTER + INTRA:         -11.460
REMARK INTER:                 -10.287
REMARK INTRA:                  -1.173
REMARK UNBOUND:                -1.392
REMARK  Name = 
REMARK  10 active torsions:
REMARK  status: ('A' for Active; 'I' for Inactive)
REMARK    1  A    between atoms: C_1  and  O_2
REMARK    2  A    between atoms: O_2  and  C_3
REMARK    3  A    between atoms: C_10  and  C_11
REMARK    4  A    between atoms: N_13  and  C_14
REMARK    5  A    between atoms: C_14  and  C_15
REMARK    6  A    between atoms: C_18  and  C_19
REMARK    7  A    between atoms: C_19  and  N_20
REMARK    8  A    between atoms: N_20  and  C_21
REMARK    9  A    between atoms: C_21  and  C_22
REMARK   10  A    between atoms: C_25  and  C_26
REMARK                            x       y       z     vdW  Elec       q    Type
REMARK                         _______ _______ _______ _____ _____    ______ ____
ROOT
ATOM      1  C   UNL     1      47.112   6.769  12.586  0.00  0.00    +0.000 A 
ATOM      2  C   UNL     1      46.931   5.499  13.153  0.00  0.00    +0.000 A 
ATOM      3  C   UNL     1      45.654   4.931  13.247  0.00  0.00    +0.000 A 
ATOM      4  C   UNL     1      44.523   5.620  12.780  0.00  0.00    +0.000 A 
ATOM      5  C   UNL     1      44.709   6.887  12.207  0.00  0.00    +0.000 A 
ATOM      6  C   UNL     1      45.987   7.451  12.104  0.00  0.00    +0.000 A 
ENDROOT
BRANCH   1   7
ATOM      7  C   UNL     1      48.490   7.370  12.458  0.00  0.00    +0.000 C 
BRANCH   7  10
ATOM      8  C   UNL     1      49.222   7.474  14.807  0.00  0.00    +0.000 C 
ATOM      9  O   UNL     1      48.373   8.327  15.067  0.00  0.00    +0.000 OA
ATOM     10  N   UNL     1      49.344   6.958  13.547  0.00  0.00    +0.000 N 
ATOM     11  H   UNL     1      50.083   6.301  13.337  0.00  0.00    +0.000 HD
BRANCH   8  19
ATOM     12  C   UNL     1      52.644   7.536  15.174  0.00  0.00    +0.000 A 
ATOM     13  N   UNL     1      53.928   7.434  15.569  0.00  0.00    +0.000 NA
ATOM     14  C   UNL     1      54.185   6.816  16.723  0.00  0.00    +0.000 A 
ATOM     15  N   UNL     1      53.298   6.276  17.554  0.00  0.00    +0.000 NA
ATOM     16  C   UNL     1      52.029   6.409  17.129  0.00  0.00    +0.000 A 
ATOM     17  S   UNL     1      50.763   5.775  18.064  0.00  0.00    +0.000 S 
ATOM     18  C   UNL     1      49.602   6.305  16.942  0.00  0.00    +0.000 A 
ATOM     19  C   UNL     1      50.139   6.972  15.847  0.00  0.00    +0.000 A 
ATOM     20  C   UNL     1      51.595   7.030  15.962  0.00  0.00    +0.000 A 
BRANCH  12  22
ATOM     21  C   UNL     1      53.584   8.488  13.268  0.00  0.00    +0.000 C 
ATOM     22  O   UNL     1      52.388   8.191  13.987  0.00  0.00    +0.000 OA
ENDBRANCH  12  22
ENDBRANCH   8  19
ENDBRANCH   7  10
ENDBRANCH   1   7
BRANCH   4  23
ATOM     23  C   UNL     1      43.137   5.008  12.867  0.00  0.00    +0.000 C 
BRANCH  23  24
ATOM     24  N   UNL     1      42.736   4.417  11.590  0.00  0.00    +0.000 NA
ATOM     25  H   UNL     1      43.024   5.045  10.839  0.00  0.00    +0.000 HD
BRANCH  24  26
ATOM     26  C   UNL     1      43.384   3.117  11.354  0.00  0.00    +0.000 C 
BRANCH  26  27
ATOM     27  C   UNL     1      44.252   3.137  10.104  0.00  0.00    +0.000 A 
ATOM     28  C   UNL     1      44.655   4.352   9.551  0.00  0.00    +0.000 A 
ATOM     29  C   UNL     1      45.474   4.348   8.424  0.00  0.00    +0.000 A 
ATOM     30  C   UNL     1      45.867   3.137   7.859  0.00  0.00    +0.000 A 
ATOM     31  C   UNL     1      46.742   3.081   6.647  0.00  0.00    +0.000 C 
ATOM     32  C   UNL     1      45.411   1.973   8.467  0.00  0.00    +0.000 A 
ATOM     33  N   UNL     1      44.621   1.945   9.570  0.00  0.00    +0.000 NA
ENDBRANCH  26  27
ENDBRANCH  24  26
ENDBRANCH  23  24
ENDBRANCH   4  23
TORSDOF 8
ENDMDL
MODEL 6
REMARK VINA RESULT:    -6.767      3.298      8.330
REMARK INTER + INTRA:         -11.323
REMARK INTER:                  -9.588
REMARK INTRA:                  -1.735
REMARK UNBOUND:                -1.392
REMARK  Name = 
REMARK  10 active torsions:
REMARK  status: ('A' for Active; 'I' for Inactive)
REMARK    1  A    between atoms: C_1  and  O_2
REMARK    2  A    between atoms: O_2  and  C_3
REMARK    3  A    between atoms: C_10  and  C_11
REMARK    4  A    between atoms: N_13  and  C_14
REMARK    5  A    between atoms: C_14  and  C_15
REMARK    6  A    between atoms: C_18  and  C_19
REMARK    7  A    between atoms: C_19  and  N_20
REMARK    8  A    between atoms: N_20  and  C_21
REMARK    9  A    between atoms: C_21  and  C_22
REMARK   10  A    between atoms: C_25  and  C_26
REMARK                            x       y       z     vdW  Elec       q    Type
REMARK                         _______ _______ _______ _____ _____    ______ ____
ROOT
ATOM      1  C   UNL     1      48.557   8.002  13.310  0.00  0.00    +0.000 A 
ATOM      2  C   UNL     1      49.226   6.989  14.014  0.00  0.00    +0.000 A 
ATOM      3  C   UNL     1      49.273   7.000  15.414  0.00  0.00    +0.000 A 
ATOM      4  C   UNL     1      48.656   8.026  16.148  0.00  0.00    +0.000 A 
ATOM      5  C   UNL     1      47.981   9.032  15.440  0.00  0.00    +0.000 A 
ATOM      6  C   UNL     1      47.925   9.016  14.041  0.00  0.00    +0.000 A 
ENDROOT
BRANCH   1   7
ATOM      7  C   UNL     1      48.480   7.975  11.803  0.00  0.00    +0.000 C 
BRANCH   7  10
ATOM      8  C   UNL     1      46.328   6.929  11.221  0.00  0.00    +0.000 C 
ATOM      9  O   UNL     1      45.713   7.955  11.514  0.00  0.00    +0.000 OA
ATOM     10  N   UNL     1      47.687   6.860  11.340  0.00  0.00    +0.000 N 
ATOM     11  H   UNL     1      48.171   5.993  11.149  0.00  0.00    +0.000 HD
BRANCH   8  19
ATOM     12  C   UNL     1      44.592   4.393  12.773  0.00  0.00    +0.000 A 
ATOM     13  N   UNL     1      43.864   3.311  13.112  0.00  0.00    +0.000 NA
ATOM     14  C   UNL     1      43.445   2.503  12.137  0.00  0.00    +0.000 A 
ATOM     15  N   UNL     1      43.666   2.644  10.833  0.00  0.00    +0.000 NA
ATOM     16  C   UNL     1      44.385   3.741  10.536  0.00  0.00    +0.000 A 
ATOM     17  S   UNL     1      44.766   4.078   8.917  0.00  0.00    +0.000 S 
ATOM     18  C   UNL     1      45.610   5.486   9.357  0.00  0.00    +0.000 A 
ATOM     19  C   UNL     1      45.620   5.733  10.725  0.00  0.00    +0.000 A 
ATOM     20  C   UNL     1      44.887   4.683  11.429  0.00  0.00    +0.000 A 
BRANCH  12  22
ATOM     21  C   UNL     1      46.297   4.880  14.281  0.00  0.00    +0.000 C 
ATOM     22  O   UNL     1      45.006   5.231  13.787  0.00  0.00    +0.000 OA
ENDBRANCH  12  22
ENDBRANCH   8  19
ENDBRANCH   7  10
ENDBRANCH   1   7
BRANCH   4  23
ATOM     23  C   UNL     1      48.691   8.040  17.665  0.00  0.00    +0.000 C 
BRANCH  23  24
ATOM     24  N   UNL     1      47.442   7.532  18.231  0.00  0.00    +0.000 NA
ATOM     25  H   UNL     1      46.884   7.134  17.475  0.00  0.00    +0.000 HD
BRANCH  24  26
ATOM     26  C   UNL     1      47.675   6.466  19.219  0.00  0.00    +0.000 C 
BRANCH  26  27
ATOM     27  C   UNL     1      48.311   5.238  18.584  0.00  0.00    +0.000 A 
ATOM     28  C   UNL     1      47.562   4.417  17.742  0.00  0.00    +0.000 A 
ATOM     29  C   UNL     1      48.172   3.314  17.148  0.00  0.00    +0.000 A 
ATOM     30  C   UNL     1      49.512   3.040  17.410  0.00  0.00    +0.000 A 
ATOM     31  C   UNL     1      50.210   1.867  16.799  0.00  0.00    +0.000 C 
ATOM     32  C   UNL     1      50.181   3.903  18.270  0.00  0.00    +0.000 A 
ATOM     33  N   UNL     1      49.618   4.989  18.856  0.00  0.00    +0.000 NA
ENDBRANCH  26  27
ENDBRANCH  24  26
ENDBRANCH  23  24
ENDBRANCH   4  23
TORSDOF 8
ENDMDL
MODEL 7
REMARK VINA RESULT:    -6.203      3.453      8.526
REMARK INTER + INTRA:         -10.496
REMARK INTER:                  -8.857
REMARK INTRA:                  -1.639
REMARK UNBOUND:                -1.392
REMARK  Name = 
REMARK  10 active torsions:
REMARK  status: ('A' for Active; 'I' for Inactive)
REMARK    1  A    between atoms: C_1  and  O_2
REMARK    2  A    between atoms: O_2  and  C_3
REMARK    3  A    between atoms: C_10  and  C_11
REMARK    4  A    between atoms: N_13  and  C_14
REMARK    5  A    between atoms: C_14  and  C_15
REMARK    6  A    between atoms: C_18  and  C_19
REMARK    7  A    between atoms: C_19  and  N_20
REMARK    8  A    between atoms: N_20  and  C_21
REMARK    9  A    between atoms: C_21  and  C_22
REMARK   10  A    between atoms: C_25  and  C_26
REMARK                            x       y       z     vdW  Elec       q    Type
REMARK                         _______ _______ _______ _____ _____    ______ ____
ROOT
ATOM      1  C   UNL     1      48.328   8.907  15.991  0.00  0.00    +0.000 A 
ATOM      2  C   UNL     1      48.937   7.690  16.331  0.00  0.00    +0.000 A 
ATOM      3  C   UNL     1      49.103   7.322  17.673  0.00  0.00    +0.000 A 
ATOM      4  C   UNL     1      48.669   8.163  18.709  0.00  0.00    +0.000 A 
ATOM      5  C   UNL     1      48.053   9.376  18.365  0.00  0.00    +0.000 A 
ATOM      6  C   UNL     1      47.877   9.739  17.024  0.00  0.00    +0.000 A 
ENDROOT
BRANCH   1   7
ATOM      7  C   UNL     1      48.121   9.291  14.546  0.00  0.00    +0.000 C 
BRANCH   7  10
ATOM      8  C   UNL     1      47.159   7.600  13.036  0.00  0.00    +0.000 C 
ATOM      9  O   UNL     1      48.277   7.278  12.634  0.00  0.00    +0.000 OA
ATOM     10  N   UNL     1      47.001   8.583  13.972  0.00  0.00    +0.000 N 
ATOM     11  H   UNL     1      46.073   8.875  14.250  0.00  0.00    +0.000 HD
BRANCH   8  19
ATOM     12  C   UNL     1      46.064   4.336  13.059  0.00  0.00    +0.000 A 
ATOM     13  N   UNL     1      45.402   3.168  12.943  0.00  0.00    +0.000 NA
ATOM     14  C   UNL     1      44.218   3.174  12.327  0.00  0.00    +0.000 A 
ATOM     15  N   UNL     1      43.597   4.226  11.801  0.00  0.00    +0.000 NA
ATOM     16  C   UNL     1      44.285   5.371  11.948  0.00  0.00    +0.000 A 
ATOM     17  S   UNL     1      43.644   6.817  11.332  0.00  0.00    +0.000 S 
ATOM     18  C   UNL     1      44.990   7.703  11.871  0.00  0.00    +0.000 A 
ATOM     19  C   UNL     1      45.945   6.934  12.527  0.00  0.00    +0.000 A 
ATOM     20  C   UNL     1      45.520   5.536  12.568  0.00  0.00    +0.000 A 
BRANCH  12  22
ATOM     21  C   UNL     1      47.135   4.500  15.119  0.00  0.00    +0.000 C 
ATOM     22  O   UNL     1      47.279   4.323  13.712  0.00  0.00    +0.000 OA
ENDBRANCH  12  22
ENDBRANCH   8  19
ENDBRANCH   7  10
ENDBRANCH   1   7
BRANCH   4  23
ATOM     23  C   UNL     1      48.834   7.767  20.165  0.00  0.00    +0.000 C 
BRANCH  23  24
ATOM     24  N   UNL     1      50.140   7.154  20.404  0.00  0.00    +0.000 NA
ATOM     25  H   UNL     1      50.619   7.686  21.132  0.00  0.00    +0.000 HD
BRANCH  24  26
ATOM     26  C   UNL     1      50.021   5.765  20.876  0.00  0.00    +0.000 C 
BRANCH  26  27
ATOM     27  C   UNL     1      49.870   4.787  19.720  0.00  0.00    +0.000 A 
ATOM     28  C   UNL     1      50.959   4.502  18.897  0.00  0.00    +0.000 A 
ATOM     29  C   UNL     1      50.808   3.580  17.863  0.00  0.00    +0.000 A 
ATOM     30  C   UNL     1      49.574   2.968  17.657  0.00  0.00    +0.000 A 
ATOM     31  C   UNL     1      49.360   1.976  16.559  0.00  0.00    +0.000 C 
ATOM     32  C   UNL     1      48.539   3.318  18.517  0.00  0.00    +0.000 A 
ATOM     33  N   UNL     1      48.658   4.203  19.538  0.00  0.00    +0.000 NA
ENDBRANCH  26  27
ENDBRANCH  24  26
ENDBRANCH  23  24
ENDBRANCH   4  23
TORSDOF 8
ENDMDL
MODEL 8
REMARK VINA RESULT:    -6.171      2.943      3.808
REMARK INTER + INTRA:         -10.448
REMARK INTER:                  -9.191
REMARK INTRA:                  -1.257
REMARK UNBOUND:                -1.392
REMARK  Name = 
REMARK  10 active torsions:
REMARK  status: ('A' for Active; 'I' for Inactive)
REMARK    1  A    between atoms: C_1  and  O_2
REMARK    2  A    between atoms: O_2  and  C_3
REMARK    3  A    between atoms: C_10  and  C_11
REMARK    4  A    between atoms: N_13  and  C_14
REMARK    5  A    between atoms: C_14  and  C_15
REMARK    6  A    between atoms: C_18  and  C_19
REMARK    7  A    between atoms: C_19  and  N_20
REMARK    8  A    between atoms: N_20  and  C_21
REMARK    9  A    between atoms: C_21  and  C_22
REMARK   10  A    between atoms: C_25  and  C_26
REMARK                            x       y       z     vdW  Elec       q    Type
REMARK                         _______ _______ _______ _____ _____    ______ ____
ROOT
ATOM      1  C   UNL     1      46.101   8.079  12.281  0.00  0.00    +0.000 A 
ATOM      2  C   UNL     1      46.480   7.030  13.130  0.00  0.00    +0.000 A 
ATOM      3  C   UNL     1      45.700   5.870  13.231  0.00  0.00    +0.000 A 
ATOM      4  C   UNL     1      44.517   5.732  12.487  0.00  0.00    +0.000 A 
ATOM      5  C   UNL     1      44.145   6.781  11.632  0.00  0.00    +0.000 A 
ATOM      6  C   UNL     1      44.930   7.935  11.524  0.00  0.00    +0.000 A 
ENDROOT
BRANCH   1   7
ATOM      7  C   UNL     1      46.956   9.316  12.149  0.00  0.00    +0.000 C 
BRANCH   7  10
ATOM      8  C   UNL     1      49.283   8.511  12.204  0.00  0.00    +0.000 C 
ATOM      9  O   UNL     1      49.186   8.054  11.066  0.00  0.00    +0.000 OA
ATOM     10  N   UNL     1      48.231   9.142  12.806  0.00  0.00    +0.000 N 
ATOM     11  H   UNL     1      48.309   9.462  13.762  0.00  0.00    +0.000 HD
BRANCH   8  19
ATOM     12  C   UNL     1      50.004   8.081  15.543  0.00  0.00    +0.000 A 
ATOM     13  N   UNL     1      50.557   7.906  16.759  0.00  0.00    +0.000 NA
ATOM     14  C   UNL     1      51.889   7.881  16.847  0.00  0.00    +0.000 A 
ATOM     15  N   UNL     1      52.757   8.011  15.848  0.00  0.00    +0.000 NA
ATOM     16  C   UNL     1      52.164   8.171  14.652  0.00  0.00    +0.000 A 
ATOM     17  S   UNL     1      53.122   8.355  13.263  0.00  0.00    +0.000 S 
ATOM     18  C   UNL     1      51.746   8.494  12.274  0.00  0.00    +0.000 A 
ATOM     19  C   UNL     1      50.543   8.401  12.964  0.00  0.00    +0.000 A 
ATOM     20  C   UNL     1      50.798   8.210  14.390  0.00  0.00    +0.000 A 
BRANCH  12  22
ATOM     21  C   UNL     1      48.042   9.074  16.309  0.00  0.00    +0.000 C 
ATOM     22  O   UNL     1      48.627   8.088  15.461  0.00  0.00    +0.000 OA
ENDBRANCH  12  22
ENDBRANCH   8  19
ENDBRANCH   7  10
ENDBRANCH   1   7
BRANCH   4  23
ATOM     23  C   UNL     1      43.671   4.475  12.580  0.00  0.00    +0.000 C 
BRANCH  23  24
ATOM     24  N   UNL     1      43.315   3.975  11.252  0.00  0.00    +0.000 NA
ATOM     25  H   UNL     1      43.615   4.659  10.558  0.00  0.00    +0.000 HD
BRANCH  24  26
ATOM     26  C   UNL     1      43.987   2.703  10.942  0.00  0.00    +0.000 C 
BRANCH  26  27
ATOM     27  C   UNL     1      44.793   2.790   9.654  0.00  0.00    +0.000 A 
ATOM     28  C   UNL     1      45.002   4.025   9.041  0.00  0.00    +0.000 A 
ATOM     29  C   UNL     1      45.769   4.087   7.879  0.00  0.00    +0.000 A 
ATOM     30  C   UNL     1      46.304   2.919   7.340  0.00  0.00    +0.000 A 
ATOM     31  C   UNL     1      47.129   2.933   6.093  0.00  0.00    +0.000 C 
ATOM     32  C   UNL     1      46.037   1.730   8.009  0.00  0.00    +0.000 A 
ATOM     33  N   UNL     1      45.303   1.639   9.146  0.00  0.00    +0.000 NA
ENDBRANCH  26  27
ENDBRANCH  24  26
ENDBRANCH  23  24
ENDBRANCH   4  23
TORSDOF 8
ENDMDL
MODEL 9
REMARK VINA RESULT:    -5.827      3.023      8.879
REMARK INTER + INTRA:          -9.944
REMARK INTER:                  -8.476
REMARK INTRA:                  -1.468
REMARK UNBOUND:                -1.392
REMARK  Name = 
REMARK  10 active torsions:
REMARK  status: ('A' for Active; 'I' for Inactive)
REMARK    1  A    between atoms: C_1  and  O_2
REMARK    2  A    between atoms: O_2  and  C_3
REMARK    3  A    between atoms: C_10  and  C_11
REMARK    4  A    between atoms: N_13  and  C_14
REMARK    5  A    between atoms: C_14  and  C_15
REMARK    6  A    between atoms: C_18  and  C_19
REMARK    7  A    between atoms: C_19  and  N_20
REMARK    8  A    between atoms: N_20  and  C_21
REMARK    9  A    between atoms: C_21  and  C_22
REMARK   10  A    between atoms: C_25  and  C_26
REMARK                            x       y       z     vdW  Elec       q    Type
REMARK                         _______ _______ _______ _____ _____    ______ ____
ROOT
ATOM      1  C   UNL     1      48.721   8.324  12.681  0.00  0.00    +0.000 A 
ATOM      2  C   UNL     1      50.018   7.879  12.975  0.00  0.00    +0.000 A 
ATOM      3  C   UNL     1      50.618   8.183  14.205  0.00  0.00    +0.000 A 
ATOM      4  C   UNL     1      49.939   8.943  15.170  0.00  0.00    +0.000 A 
ATOM      5  C   UNL     1      48.638   9.379  14.874  0.00  0.00    +0.000 A 
ATOM      6  C   UNL     1      48.035   9.068  13.649  0.00  0.00    +0.000 A 
ENDROOT
BRANCH   1   7
ATOM      7  C   UNL     1      48.062   7.973  11.369  0.00  0.00    +0.000 C 
BRANCH   7  10
ATOM      8  C   UNL     1      45.854   6.910  11.612  0.00  0.00    +0.000 C 
ATOM      9  O   UNL     1      45.291   8.004  11.603  0.00  0.00    +0.000 OA
ATOM     10  N   UNL     1      47.213   6.813  11.505  0.00  0.00    +0.000 N 
ATOM     11  H   UNL     1      47.665   5.911  11.570  0.00  0.00    +0.000 HD
BRANCH   8  19
ATOM     12  C   UNL     1      45.294   4.260   9.486  0.00  0.00    +0.000 A 
ATOM     13  N   UNL     1      44.931   3.115   8.876  0.00  0.00    +0.000 NA
ATOM     14  C   UNL     1      44.146   2.267   9.544  0.00  0.00    +0.000 A 
ATOM     15  N   UNL     1      43.667   2.425  10.775  0.00  0.00    +0.000 NA
ATOM     16  C   UNL     1      44.063   3.573  11.351  0.00  0.00    +0.000 A 
ATOM     17  S   UNL     1      43.543   3.941  12.925  0.00  0.00    +0.000 S 
ATOM     18  C   UNL     1      44.391   5.414  12.914  0.00  0.00    +0.000 A 
ATOM     19  C   UNL     1      45.084   5.658  11.733  0.00  0.00    +0.000 A 
ATOM     20  C   UNL     1      44.882   4.552  10.798  0.00  0.00    +0.000 A 
BRANCH  12  22
ATOM     21  C   UNL     1      46.701   4.504   7.647  0.00  0.00    +0.000 C 
ATOM     22  O   UNL     1      46.120   5.121   8.793  0.00  0.00    +0.000 OA
ENDBRANCH  12  22
ENDBRANCH   8  19
ENDBRANCH   7  10
ENDBRANCH   1   7
BRANCH   4  23
ATOM     23  C   UNL     1      50.576   9.267  16.509  0.00  0.00    +0.000 C 
BRANCH  23  24
ATOM     24  N   UNL     1      51.016   8.053  17.196  0.00  0.00    +0.000 NA
ATOM     25  H   UNL     1      51.965   8.203  17.541  0.00  0.00    +0.000 HD
BRANCH  24  26
ATOM     26  C   UNL     1      50.167   7.734  18.354  0.00  0.00    +0.000 C 
BRANCH  26  27
ATOM     27  C   UNL     1      49.386   6.444  18.144  0.00  0.00    +0.000 A 
ATOM     28  C   UNL     1      48.955   6.087  16.867  0.00  0.00    +0.000 A 
ATOM     29  C   UNL     1      48.267   4.888  16.691  0.00  0.00    +0.000 A 
ATOM     30  C   UNL     1      48.010   4.071  17.789  0.00  0.00    +0.000 A 
ATOM     31  C   UNL     1      47.273   2.777  17.652  0.00  0.00    +0.000 C 
ATOM     32  C   UNL     1      48.466   4.508  19.028  0.00  0.00    +0.000 A 
ATOM     33  N   UNL     1      49.145   5.665  19.229  0.00  0.00    +0.000 NA
ENDBRANCH  26  27
ENDBRANCH  24  26
ENDBRANCH  23  24
ENDBRANCH   4  23
TORSDOF 8
ENDMDL
