MODEL 1
REMARK VINA RESULT:    -8.373      0.000      0.000
REMARK INTER + INTRA:         -11.074
REMARK INTER:                 -10.331
REMARK INTRA:                  -0.743
REMARK UNBOUND:                -0.743
REMARK  Name = 
REMARK  5 active torsions:
REMARK  status: ('A' for Active; 'I' for Inactive)
REMARK    1  A    between atoms: C_1  and  C_2
REMARK    2  A    between atoms: C_7  and  C_8
REMARK    3  A    between atoms: C_8  and  N_9
REMARK    4  A    between atoms: N_9  and  C_10
REMARK    5  A    between atoms: C_13  and  C_14
REMARK                            x       y       z     vdW  Elec       q    Type
REMARK                         _______ _______ _______ _____ _____    ______ ____
ROOT
ATOM      1  C   UNL     1      49.908   7.600  13.884  0.00  0.00    +0.000 C 
ATOM      2  C   UNL     1      48.969   8.793  14.078  0.00  0.00    +0.000 C 
ATOM      3  C   UNL     1      47.513   8.361  14.393  0.00  0.00    +0.000 C 
ATOM      4  N   UNL     1      46.738   7.965  13.209  0.00  0.00    +0.000 N 
ATOM      5  C   UNL     1      46.411   6.624  13.054  0.00  0.00    +0.000 A 
ATOM      6  C   UNL     1      45.264   6.278  12.328  0.00  0.00    +0.000 A 
ATOM      7  C   UNL     1      44.873   4.939  12.199  0.00  0.00    +0.000 A 
ATOM      8  C   UNL     1      45.685   3.965  12.774  0.00  0.00    +0.000 A 
ATOM      9  C   UNL     1      46.797   4.380  13.483  0.00  0.00    +0.000 A 
ATOM     10  N   UNL     1      47.157   5.673  13.648  0.00  0.00    +0.000 NA
ATOM     11  C   UNL     1      46.923   8.767  11.992  0.00  0.00    +0.000 C 
ATOM     12  C   UNL     1      48.394   9.171  11.760  0.00  0.00    +0.000 C 
ATOM     13  N   UNL     1      49.060   9.746  12.945  0.00  0.00    +0.000 NA
ATOM     14  H   UNL     1      48.545  10.585  13.211  0.00  0.00    +0.000 HD
ENDROOT
BRANCH   7  15
ATOM     15  C   UNL     1      43.606   4.575  11.464  0.00  0.00    +0.000 C 
BRANCH  15  16
ATOM     16  N   UNL     1      43.787   4.761  10.035  0.00  0.00    +0.000 N 
ATOM     17  H   UNL     1      42.915   4.887   9.528  0.00  0.00    +0.000 HD
BRANCH  16  18
ATOM     18  C   UNL     1      44.713   3.996   9.318  0.00  0.00    +0.000 A 
ATOM     19  C   UNL     1      45.613   4.521   8.387  0.00  0.00    +0.000 A 
ATOM     20  C   UNL     1      46.463   3.686   7.645  0.00  0.00    +0.000 A 
ATOM     21  C   UNL     1      46.404   2.298   7.801  0.00  0.00    +0.000 A 
ATOM     22  C   UNL     1      45.482   1.754   8.694  0.00  0.00    +0.000 A 
ATOM     23  C   UNL     1      44.644   2.598   9.436  0.00  0.00    +0.000 A 
BRANCH  21  24
ATOM     24  C   UNL     1      47.299   1.452   6.965  0.00  0.00    +0.000 C 
ATOM     25  N   UNL     1      48.329   2.067   6.310  0.00  0.00    +0.000 N 
ATOM     26  O   UNL     1      47.109   0.249   6.837  0.00  0.00    +0.000 OA
ATOM     27  H   UNL     1      48.413   3.070   6.222  0.00  0.00    +0.000 HD
ATOM     28  H   UNL     1      48.871   1.494   5.679  0.00  0.00    +0.000 HD
ENDBRANCH  21  24
ENDBRANCH  16  18
ENDBRANCH  15  16
ENDBRANCH   7  15
TORSDOF 4
ENDMDL
MODEL 2
REMARK VINA RESULT:    -6.581      4.420      7.855
REMARK INTER + INTRA:          -8.863
REMARK INTER:                  -8.326
REMARK INTRA:                  -0.537
REMARK UNBOUND:                -0.743
REMARK  Name = 
REMARK  5 active torsions:
REMARK  status: ('A' for Active; 'I' for Inactive)
REMARK    1  A    between atoms: C_1  and  C_2
REMARK    2  A    between atoms: C_7  and  C_8
REMARK    3  A    between atoms: C_8  and  N_9
REMARK    4  A    between atoms: N_9  and  C_10
REMARK    5  A    between atoms: C_13  and  C_14
REMARK                            x       y       z     vdW  Elec       q    Type
REMARK                         _______ _______ _______ _____ _____    ______ ____
ROOT
ATOM      1  C   UNL     1      45.265   4.741   9.242  0.00  0.00    +0.000 C 
ATOM      2  C   UNL     1      44.052   4.714  10.175  0.00  0.00    +0.000 C 
ATOM      3  C   UNL     1      44.171   5.733  11.338  0.00  0.00    +0.000 C 
ATOM      4  N   UNL     1      45.015   5.273  12.451  0.00  0.00    +0.000 N 
ATOM      5  C   UNL     1      46.242   5.892  12.647  0.00  0.00    +0.000 A 
ATOM      6  C   UNL     1      46.799   5.920  13.931  0.00  0.00    +0.000 A 
ATOM      7  C   UNL     1      48.007   6.585  14.177  0.00  0.00    +0.000 A 
ATOM      8  C   UNL     1      48.657   7.174  13.096  0.00  0.00    +0.000 A 
ATOM      9  C   UNL     1      48.045   7.115  11.857  0.00  0.00    +0.000 A 
ATOM     10  N   UNL     1      46.858   6.511  11.621  0.00  0.00    +0.000 NA
ATOM     11  C   UNL     1      44.894   3.861  12.840  0.00  0.00    +0.000 C 
ATOM     12  C   UNL     1      44.761   2.916  11.626  0.00  0.00    +0.000 C 
ATOM     13  N   UNL     1      43.751   3.337  10.636  0.00  0.00    +0.000 NA
ATOM     14  H   UNL     1      42.848   3.365  11.110  0.00  0.00    +0.000 HD
ENDROOT
BRANCH   7  15
ATOM     15  C   UNL     1      48.573   6.661  15.574  0.00  0.00    +0.000 C 
BRANCH  15  16
ATOM     16  N   UNL     1      48.161   5.499  16.343  0.00  0.00    +0.000 N 
ATOM     17  H   UNL     1      47.466   5.710  17.055  0.00  0.00    +0.000 HD
BRANCH  16  18
ATOM     18  C   UNL     1      49.093   4.549  16.773  0.00  0.00    +0.000 A 
ATOM     19  C   UNL     1      50.384   4.857  17.209  0.00  0.00    +0.000 A 
ATOM     20  C   UNL     1      51.296   3.847  17.553  0.00  0.00    +0.000 A 
ATOM     21  C   UNL     1      50.939   2.501  17.438  0.00  0.00    +0.000 A 
ATOM     22  C   UNL     1      49.669   2.174  16.964  0.00  0.00    +0.000 A 
ATOM     23  C   UNL     1      48.763   3.192  16.631  0.00  0.00    +0.000 A 
BRANCH  21  24
ATOM     24  C   UNL     1      51.953   1.466  17.779  0.00  0.00    +0.000 C 
ATOM     25  N   UNL     1      51.502   0.219  18.115  0.00  0.00    +0.000 N 
ATOM     26  O   UNL     1      53.150   1.720  17.791  0.00  0.00    +0.000 OA
ATOM     27  H   UNL     1      50.533   0.012  18.311  0.00  0.00    +0.000 HD
ATOM     28  H   UNL     1      52.197  -0.444  18.429  0.00  0.00    +0.000 HD
ENDBRANCH  21  24
ENDBRANCH  16  18
ENDBRANCH  15  16
ENDBRANCH   7  15
TORSDOF 4
ENDMDL
MODEL 3
REMARK VINA RESULT:    -6.443      3.306      5.443
REMARK INTER + INTRA:          -8.693
REMARK INTER:                  -8.006
REMARK INTRA:                  -0.687
REMARK UNBOUND:                -0.743
REMARK  Name = 
REMARK  5 active torsions:
REMARK  status: ('A' for Active; 'I' for Inactive)
REMARK    1  A    between atoms: C_1  and  C_2
REMARK    2  A    between atoms: C_7  and  C_8
REMARK    3  A    between atoms: C_8  and  N_9
REMARK    4  A    between atoms: N_9  and  C_10
REMARK    5  A    between atoms: C_13  and  C_14
REMARK                            x       y       z     vdW  Elec       q    Type
REMARK                         _______ _______ _______ _____ _____    ______ ____
ROOT
ATOM      1  C   UNL     1      48.357   6.050  19.697  0.00  0.00    +0.000 C 
ATOM      2  C   UNL     1      49.082   4.857  19.072  0.00  0.00    +0.000 C 
ATOM      3  C   UNL     1      49.802   5.224  17.748  0.00  0.00    +0.000 C 
ATOM      4  N   UNL     1      48.913   5.275  16.578  0.00  0.00    +0.000 N 
ATOM      5  C   UNL     1      48.639   6.513  16.012  0.00  0.00    +0.000 A 
ATOM      6  C   UNL     1      48.310   6.588  14.654  0.00  0.00    +0.000 A 
ATOM      7  C   UNL     1      48.082   7.825  14.037  0.00  0.00    +0.000 A 
ATOM      8  C   UNL     1      48.147   8.968  14.827  0.00  0.00    +0.000 A 
ATOM      9  C   UNL     1      48.486   8.820  16.160  0.00  0.00    +0.000 A 
ATOM     10  N   UNL     1      48.748   7.633  16.752  0.00  0.00    +0.000 NA
ATOM     11  C   UNL     1      47.878   4.236  16.482  0.00  0.00    +0.000 C 
ATOM     12  C   UNL     1      47.224   3.917  17.844  0.00  0.00    +0.000 C 
ATOM     13  N   UNL     1      48.185   3.683  18.939  0.00  0.00    +0.000 NA
ATOM     14  H   UNL     1      48.764   2.885  18.676  0.00  0.00    +0.000 HD
ENDROOT
BRANCH   7  15
ATOM     15  C   UNL     1      47.783   7.904  12.559  0.00  0.00    +0.000 C 
BRANCH  15  16
ATOM     16  N   UNL     1      46.347   7.883  12.338  0.00  0.00    +0.000 N 
ATOM     17  H   UNL     1      45.828   8.459  12.995  0.00  0.00    +0.000 HD
BRANCH  16  18
ATOM     18  C   UNL     1      45.681   6.693  12.030  0.00  0.00    +0.000 A 
ATOM     19  C   UNL     1      45.030   5.891  12.972  0.00  0.00    +0.000 A 
ATOM     20  C   UNL     1      44.447   4.667  12.607  0.00  0.00    +0.000 A 
ATOM     21  C   UNL     1      44.533   4.206  11.290  0.00  0.00    +0.000 A 
ATOM     22  C   UNL     1      45.217   4.973  10.346  0.00  0.00    +0.000 A 
ATOM     23  C   UNL     1      45.788   6.198  10.720  0.00  0.00    +0.000 A 
BRANCH  21  24
ATOM     24  C   UNL     1      43.932   2.885  10.959  0.00  0.00    +0.000 C 
ATOM     25  N   UNL     1      44.477   2.179   9.923  0.00  0.00    +0.000 N 
ATOM     26  O   UNL     1      42.963   2.451  11.569  0.00  0.00    +0.000 OA
ATOM     27  H   UNL     1      45.140   2.572   9.270  0.00  0.00    +0.000 HD
ATOM     28  H   UNL     1      44.002   1.328   9.656  0.00  0.00    +0.000 HD
ENDBRANCH  21  24
ENDBRANCH  16  18
ENDBRANCH  15  16
ENDBRANCH   7  15
TORSDOF 4
ENDMDL
MODEL 4
REMARK VINA RESULT:    -6.337      4.073      6.651
REMARK INTER + INTRA:          -8.562
REMARK INTER:                  -7.750
REMARK INTRA:                  -0.812
REMARK UNBOUND:                -0.743
REMARK  Name = 
REMARK  5 active torsions:
REMARK  status: ('A' for Active; 'I' for Inactive)
REMARK    1  A    between atoms: C_1  and  C_2
REMARK    2  A    between atoms: C_7  and  C_8
REMARK    3  A    between atoms: C_8  and  N_9
REMARK    4  A    between atoms: N_9  and  C_10
REMARK    5  A    between atoms: C_13  and  C_14
REMARK                            x       y       z     vdW  Elec       q    Type
REMARK                         _______ _______ _______ _____ _____    ______ ____
ROOT
ATOM      1  C   UNL     1      47.720   5.875  20.438  0.00  0.00    +0.000 C 
ATOM      2  C   UNL     1      48.956   5.010  20.187  0.00  0.00    +0.000 C 
ATOM      3  C   UNL     1      49.951   5.666  19.193  0.00  0.00    +0.000 C 
ATOM      4  N   UNL     1      49.575   5.510  17.781  0.00  0.00    +0.000 N 
ATOM      5  C   UNL     1      49.149   6.633  17.084  0.00  0.00    +0.000 A 
ATOM      6  C   UNL     1      49.326   6.687  15.696  0.00  0.00    +0.000 A 
ATOM      7  C   UNL     1      48.960   7.826  14.968  0.00  0.00    +0.000 A 
ATOM      8  C   UNL     1      48.373   8.881  15.662  0.00  0.00    +0.000 A 
ATOM      9  C   UNL     1      48.237   8.763  17.034  0.00  0.00    +0.000 A 
ATOM     10  N   UNL     1      48.627   7.683  17.748  0.00  0.00    +0.000 NA
ATOM     11  C   UNL     1      49.025   4.208  17.377  0.00  0.00    +0.000 C 
ATOM     12  C   UNL     1      48.061   3.615  18.427  0.00  0.00    +0.000 C 
ATOM     13  N   UNL     1      48.584   3.625  19.807  0.00  0.00    +0.000 NA
ATOM     14  H   UNL     1      49.437   3.067  19.817  0.00  0.00    +0.000 HD
ENDROOT
BRANCH   7  15
ATOM     15  C   UNL     1      49.205   7.901  13.481  0.00  0.00    +0.000 C 
BRANCH  15  16
ATOM     16  N   UNL     1      48.734   6.687  12.836  0.00  0.00    +0.000 N 
ATOM     17  H   UNL     1      49.251   6.448  11.994  0.00  0.00    +0.000 HD
BRANCH  16  18
ATOM     18  C   UNL     1      47.367   6.417  12.715  0.00  0.00    +0.000 A 
ATOM     19  C   UNL     1      46.409   7.364  12.340  0.00  0.00    +0.000 A 
ATOM     20  C   UNL     1      45.042   7.045  12.315  0.00  0.00    +0.000 A 
ATOM     21  C   UNL     1      44.604   5.773  12.695  0.00  0.00    +0.000 A 
ATOM     22  C   UNL     1      45.542   4.829  13.113  0.00  0.00    +0.000 A 
ATOM     23  C   UNL     1      46.906   5.156  13.127  0.00  0.00    +0.000 A 
BRANCH  21  24
ATOM     24  C   UNL     1      43.142   5.494  12.687  0.00  0.00    +0.000 C 
ATOM     25  N   UNL     1      42.390   6.066  11.699  0.00  0.00    +0.000 N 
ATOM     26  O   UNL     1      42.617   4.802  13.549  0.00  0.00    +0.000 OA
ATOM     27  H   UNL     1      42.733   6.794  11.089  0.00  0.00    +0.000 HD
ATOM     28  H   UNL     1      41.389   5.939  11.760  0.00  0.00    +0.000 HD
ENDBRANCH  21  24
ENDBRANCH  16  18
ENDBRANCH  15  16
ENDBRANCH   7  15
TORSDOF 4
ENDMDL
MODEL 5
REMARK VINA RESULT:    -6.097      4.466      8.708
REMARK INTER + INTRA:          -8.266
REMARK INTER:                  -7.560
REMARK INTRA:                  -0.706
REMARK UNBOUND:                -0.743
REMARK  Name = 
REMARK  5 active torsions:
REMARK  status: ('A' for Active; 'I' for Inactive)
REMARK    1  A    between atoms: C_1  and  C_2
REMARK    2  A    between atoms: C_7  and  C_8
REMARK    3  A    between atoms: C_8  and  N_9
REMARK    4  A    between atoms: N_9  and  C_10
REMARK    5  A    between atoms: C_13  and  C_14
REMARK                            x       y       z     vdW  Elec       q    Type
REMARK                         _______ _______ _______ _____ _____    ______ ____
ROOT
ATOM      1  C   UNL     1      42.802   5.562  11.020  0.00  0.00    +0.000 C 
ATOM      2  C   UNL     1      42.882   4.389  11.998  0.00  0.00    +0.000 C 
ATOM      3  C   UNL     1      43.683   4.736  13.281  0.00  0.00    +0.000 C 
ATOM      4  N   UNL     1      45.141   4.673  13.110  0.00  0.00    +0.000 N 
ATOM      5  C   UNL     1      45.859   5.862  13.125  0.00  0.00    +0.000 A 
ATOM      6  C   UNL     1      47.199   5.849  13.532  0.00  0.00    +0.000 A 
ATOM      7  C   UNL     1      47.937   7.037  13.613  0.00  0.00    +0.000 A 
ATOM      8  C   UNL     1      47.310   8.219  13.232  0.00  0.00    +0.000 A 
ATOM      9  C   UNL     1      45.982   8.159  12.848  0.00  0.00    +0.000 A 
ATOM     10  N   UNL     1      45.252   7.021  12.809  0.00  0.00    +0.000 NA
ATOM     11  C   UNL     1      45.670   3.567  12.300  0.00  0.00    +0.000 C 
ATOM     12  C   UNL     1      44.808   3.273  11.054  0.00  0.00    +0.000 C 
ATOM     13  N   UNL     1      43.363   3.155  11.330  0.00  0.00    +0.000 NA
ATOM     14  H   UNL     1      43.236   2.384  11.985  0.00  0.00    +0.000 HD
ENDROOT
BRANCH   7  15
ATOM     15  C   UNL     1      49.363   7.024  14.107  0.00  0.00    +0.000 C 
BRANCH  15  16
ATOM     16  N   UNL     1      49.464   7.756  15.358  0.00  0.00    +0.000 N 
ATOM     17  H   UNL     1      50.266   8.379  15.400  0.00  0.00    +0.000 HD
BRANCH  16  18
ATOM     18  C   UNL     1      49.210   7.132  16.583  0.00  0.00    +0.000 A 
ATOM     19  C   UNL     1      49.463   5.782  16.844  0.00  0.00    +0.000 A 
ATOM     20  C   UNL     1      49.112   5.200  18.072  0.00  0.00    +0.000 A 
ATOM     21  C   UNL     1      48.469   5.956  19.056  0.00  0.00    +0.000 A 
ATOM     22  C   UNL     1      48.170   7.293  18.797  0.00  0.00    +0.000 A 
ATOM     23  C   UNL     1      48.533   7.867  17.570  0.00  0.00    +0.000 A 
BRANCH  21  24
ATOM     24  C   UNL     1      48.083   5.285  20.327  0.00  0.00    +0.000 C 
ATOM     25  N   UNL     1      48.558   4.023  20.552  0.00  0.00    +0.000 N 
ATOM     26  O   UNL     1      47.340   5.825  21.137  0.00  0.00    +0.000 OA
ATOM     27  H   UNL     1      49.005   3.462  19.841  0.00  0.00    +0.000 HD
ATOM     28  H   UNL     1      48.215   3.550  21.377  0.00  0.00    +0.000 HD
ENDBRANCH  21  24
ENDBRANCH  16  18
ENDBRANCH  15  16
ENDBRANCH   7  15
TORSDOF 4
ENDMDL
MODEL 6
REMARK VINA RESULT:    -5.802      4.114      8.327
REMARK INTER + INTRA:          -7.902
REMARK INTER:                  -7.208
REMARK INTRA:                  -0.694
REMARK UNBOUND:                -0.743
REMARK  Name = 
REMARK  5 active torsions:
REMARK  status: ('A' for Active; 'I' for Inactive)
REMARK    1  A    between atoms: C_1  and  C_2
REMARK    2  A    between atoms: C_7  and  C_8
REMARK    3  A    between atoms: C_8  and  N_9
REMARK    4  A    between atoms: N_9  and  C_10
REMARK    5  A    between atoms: C_13  and  C_14
REMARK                            x       y       z     vdW  Elec       q    Type
REMARK                         _______ _______ _______ _____ _____    ______ ____
ROOT
ATOM      1  C   UNL     1      42.194   5.638  11.787  0.00  0.00    +0.000 C 
ATOM      2  C   UNL     1      42.847   4.372  12.346  0.00  0.00    +0.000 C 
ATOM      3  C   UNL     1      44.124   4.675  13.172  0.00  0.00    +0.000 C 
ATOM      4  N   UNL     1      45.323   4.910  12.353  0.00  0.00    +0.000 N 
ATOM      5  C   UNL     1      45.841   6.198  12.299  0.00  0.00    +0.000 A 
ATOM      6  C   UNL     1      47.206   6.377  12.046  0.00  0.00    +0.000 A 
ATOM      7  C   UNL     1      47.773   7.658  12.039  0.00  0.00    +0.000 A 
ATOM      8  C   UNL     1      46.929   8.745  12.244  0.00  0.00    +0.000 A 
ATOM      9  C   UNL     1      45.592   8.493  12.497  0.00  0.00    +0.000 A 
ATOM     10  N   UNL     1      45.046   7.257  12.547  0.00  0.00    +0.000 NA
ATOM     11  C   UNL     1      45.505   4.051  11.176  0.00  0.00    +0.000 C 
ATOM     12  C   UNL     1      44.185   3.783  10.421  0.00  0.00    +0.000 C 
ATOM     13  N   UNL     1      43.067   3.359  11.285  0.00  0.00    +0.000 NA
ATOM     14  H   UNL     1      43.344   2.492  11.745  0.00  0.00    +0.000 HD
ENDROOT
BRANCH   7  15
ATOM     15  C   UNL     1      49.256   7.842  11.822  0.00  0.00    +0.000 C 
BRANCH  15  16
ATOM     16  N   UNL     1      49.995   7.317  12.957  0.00  0.00    +0.000 N 
ATOM     17  H   UNL     1      50.248   6.337  12.858  0.00  0.00    +0.000 HD
BRANCH  16  18
ATOM     18  C   UNL     1      49.633   7.643  14.268  0.00  0.00    +0.000 A 
ATOM     19  C   UNL     1      49.108   6.730  15.188  0.00  0.00    +0.000 A 
ATOM     20  C   UNL     1      48.692   7.142  16.464  0.00  0.00    +0.000 A 
ATOM     21  C   UNL     1      48.766   8.487  16.834  0.00  0.00    +0.000 A 
ATOM     22  C   UNL     1      49.248   9.418  15.913  0.00  0.00    +0.000 A 
ATOM     23  C   UNL     1      49.668   8.995  14.645  0.00  0.00    +0.000 A 
BRANCH  21  24
ATOM     24  C   UNL     1      48.279   8.881  18.184  0.00  0.00    +0.000 C 
ATOM     25  N   UNL     1      47.229   8.181  18.712  0.00  0.00    +0.000 N 
ATOM     26  O   UNL     1      48.775   9.817  18.797  0.00  0.00    +0.000 OA
ATOM     27  H   UNL     1      46.663   7.539  18.175  0.00  0.00    +0.000 HD
ATOM     28  H   UNL     1      46.855   8.518  19.588  0.00  0.00    +0.000 HD
ENDBRANCH  21  24
ENDBRANCH  16  18
ENDBRANCH  15  16
ENDBRANCH   7  15
TORSDOF 4
ENDMDL
MODEL 7
REMARK VINA RESULT:    -5.468      3.817      7.884
REMARK INTER + INTRA:          -7.490
REMARK INTER:                  -6.927
REMARK INTRA:                  -0.563
REMARK UNBOUND:                -0.743
REMARK  Name = 
REMARK  5 active torsions:
REMARK  status: ('A' for Active; 'I' for Inactive)
REMARK    1  A    between atoms: C_1  and  C_2
REMARK    2  A    between atoms: C_7  and  C_8
REMARK    3  A    between atoms: C_8  and  N_9
REMARK    4  A    between atoms: N_9  and  C_10
REMARK    5  A    between atoms: C_13  and  C_14
REMARK                            x       y       z     vdW  Elec       q    Type
REMARK                         _______ _______ _______ _____ _____    ______ ____
ROOT
ATOM      1  C   UNL     1      43.306   4.297  10.751  0.00  0.00    +0.000 C 
ATOM      2  C   UNL     1      43.360   3.803  12.199  0.00  0.00    +0.000 C 
ATOM      3  C   UNL     1      43.550   4.958  13.216  0.00  0.00    +0.000 C 
ATOM      4  N   UNL     1      44.939   5.422  13.340  0.00  0.00    +0.000 N 
ATOM      5  C   UNL     1      45.262   6.678  12.843  0.00  0.00    +0.000 A 
ATOM      6  C   UNL     1      46.333   7.383  13.404  0.00  0.00    +0.000 A 
ATOM      7  C   UNL     1      46.651   8.675  12.966  0.00  0.00    +0.000 A 
ATOM      8  C   UNL     1      45.900   9.213  11.925  0.00  0.00    +0.000 A 
ATOM      9  C   UNL     1      44.851   8.463  11.424  0.00  0.00    +0.000 A 
ATOM     10  N   UNL     1      44.512   7.233  11.872  0.00  0.00    +0.000 NA
ATOM     11  C   UNL     1      45.989   4.394  13.330  0.00  0.00    +0.000 C 
ATOM     12  C   UNL     1      45.716   3.272  12.305  0.00  0.00    +0.000 C 
ATOM     13  N   UNL     1      44.352   2.713  12.365  0.00  0.00    +0.000 NA
ATOM     14  H   UNL     1      44.220   2.321  13.298  0.00  0.00    +0.000 HD
ENDROOT
BRANCH   7  15
ATOM     15  C   UNL     1      47.771   9.453  13.614  0.00  0.00    +0.000 C 
BRANCH  15  16
ATOM     16  N   UNL     1      47.823   9.162  15.036  0.00  0.00    +0.000 N 
ATOM     17  H   UNL     1      47.664   9.977  15.623  0.00  0.00    +0.000 HD
BRANCH  16  18
ATOM     18  C   UNL     1      48.797   8.308  15.564  0.00  0.00    +0.000 A 
ATOM     19  C   UNL     1      50.043   8.078  14.974  0.00  0.00    +0.000 A 
ATOM     20  C   UNL     1      50.943   7.147  15.515  0.00  0.00    +0.000 A 
ATOM     21  C   UNL     1      50.598   6.404  16.647  0.00  0.00    +0.000 A 
ATOM     22  C   UNL     1      49.342   6.589  17.224  0.00  0.00    +0.000 A 
ATOM     23  C   UNL     1      48.454   7.528  16.680  0.00  0.00    +0.000 A 
BRANCH  21  24
ATOM     24  C   UNL     1      51.572   5.403  17.163  0.00  0.00    +0.000 C 
ATOM     25  N   UNL     1      52.793   5.856  17.578  0.00  0.00    +0.000 N 
ATOM     26  O   UNL     1      51.309   4.207  17.189  0.00  0.00    +0.000 OA
ATOM     27  H   UNL     1      53.130   6.791  17.397  0.00  0.00    +0.000 HD
ATOM     28  H   UNL     1      53.471   5.155  17.841  0.00  0.00    +0.000 HD
ENDBRANCH  21  24
ENDBRANCH  16  18
ENDBRANCH  15  16
ENDBRANCH   7  15
TORSDOF 4
ENDMDL
