MODEL 1
REMARK VINA RESULT:    -7.675      0.000      0.000
REMARK INTER + INTRA:         -12.483
REMARK INTER:                 -10.816
REMARK INTRA:                  -1.667
REMARK UNBOUND:                -1.667
REMARK  Name = 
REMARK  9 active torsions:
REMARK  status: ('A' for Active; 'I' for Inactive)
REMARK    1  A    between atoms: C_1  and  C_2
REMARK    2  A    between atoms: C_2  and  C_3
REMARK    3  A    between atoms: C_2  and  C_4
REMARK    4  A    between atoms: C_2  and  C_22
REMARK    5  A    between atoms: C_4  and  N_5
REMARK    6  A    between atoms: N_5  and  C_6
REMARK    7  A    between atoms: C_10  and  C_11
REMARK    8  A    between atoms: C_16  and  C_17
REMARK    9  A    between atoms: C_26  and  C_27
REMARK                            x       y       z     vdW  Elec       q    Type
REMARK                         _______ _______ _______ _____ _____    ______ ____
ROOT
ATOM      1  N   UNL     1      48.329   8.136  13.173  0.00  0.00    +0.000 N 
ATOM      2  H   UNL     1      48.920   8.849  12.744  0.00  0.00    +0.000 HD
ENDROOT
BRANCH   1   3
ATOM      3  C   UNL     1      47.162   7.929  12.430  0.00  0.00    +0.000 A 
ATOM      4  C   UNL     1      46.127   8.862  12.505  0.00  0.00    +0.000 A 
ATOM      5  N   UNL     1      44.893   8.700  11.984  0.00  0.00    +0.000 NA
ATOM      6  C   UNL     1      44.657   7.527  11.356  0.00  0.00    +0.000 A 
ATOM      7  C   UNL     1      45.596   6.511  11.155  0.00  0.00    +0.000 A 
ATOM      8  C   UNL     1      46.863   6.747  11.736  0.00  0.00    +0.000 A 
BRANCH   7   9
ATOM      9  C   UNL     1      45.252   5.228  10.472  0.00  0.00    +0.000 A 
ATOM     10  C   UNL     1      45.655   5.055   9.123  0.00  0.00    +0.000 A 
ATOM     11  C   UNL     1      45.466   3.858   8.425  0.00  0.00    +0.000 A 
ATOM     12  C   UNL     1      44.900   2.769   9.063  0.00  0.00    +0.000 A 
ATOM     13  C   UNL     1      44.464   2.907  10.376  0.00  0.00    +0.000 A 
ATOM     14  C   UNL     1      44.583   4.133  11.080  0.00  0.00    +0.000 A 
BRANCH  14  15
ATOM     15  C   UNL     1      43.948   4.139  12.456  0.00  0.00    +0.000 C 
ATOM     16  F   UNL     1      44.761   4.510  13.478  0.00  0.00    +0.000 F 
ATOM     17  F   UNL     1      42.886   4.996  12.527  0.00  0.00    +0.000 F 
ATOM     18  F   UNL     1      43.449   2.915  12.791  0.00  0.00    +0.000 F 
ENDBRANCH  14  15
ENDBRANCH   7   9
ENDBRANCH   1   3
BRANCH   1  19
ATOM     19  C   UNL     1      49.102   7.003  13.682  0.00  0.00    +0.000 C 
BRANCH  19  21
ATOM     20  C   UNL     1      50.766   7.166  15.575  0.00  0.00    +0.000 C 
ATOM     21  C   UNL     1      49.257   7.068  15.238  0.00  0.00    +0.000 C 
ATOM     22  C   UNL     1      48.611   8.389  15.717  0.00  0.00    +0.000 C 
BRANCH  21  23
ATOM     23  C   UNL     1      48.565   5.884  15.932  0.00  0.00    +0.000 A 
ATOM     24  C   UNL     1      47.621   5.078  15.294  0.00  0.00    +0.000 A 
ATOM     25  N   UNL     1      46.975   4.036  15.869  0.00  0.00    +0.000 NA
ATOM     26  C   UNL     1      47.280   3.759  17.156  0.00  0.00    +0.000 A 
ATOM     27  C   UNL     1      48.192   4.481  17.905  0.00  0.00    +0.000 A 
ATOM     28  C   UNL     1      48.838   5.557  17.275  0.00  0.00    +0.000 A 
BRANCH  27  29
ATOM     29  C   UNL     1      48.513   4.168  19.314  0.00  0.00    +0.000 C 
ATOM     30  N   UNL     1      48.314   2.900  19.786  0.00  0.00    +0.000 N 
ATOM     31  O   UNL     1      48.954   5.035  20.067  0.00  0.00    +0.000 OA
ATOM     32  H   UNL     1      47.949   2.116  19.263  0.00  0.00    +0.000 HD
ATOM     33  H   UNL     1      48.539   2.737  20.759  0.00  0.00    +0.000 HD
ENDBRANCH  27  29
ENDBRANCH  21  23
ENDBRANCH  19  21
ENDBRANCH   1  19
TORSDOF 7
ENDMDL
MODEL 2
REMARK VINA RESULT:    -6.937      2.744      3.915
REMARK INTER + INTRA:         -11.443
REMARK INTER:                  -9.678
REMARK INTRA:                  -1.765
REMARK UNBOUND:                -1.667
REMARK  Name = 
REMARK  9 active torsions:
REMARK  status: ('A' for Active; 'I' for Inactive)
REMARK    1  A    between atoms: C_1  and  C_2
REMARK    2  A    between atoms: C_2  and  C_3
REMARK    3  A    between atoms: C_2  and  C_4
REMARK    4  A    between atoms: C_2  and  C_22
REMARK    5  A    between atoms: C_4  and  N_5
REMARK    6  A    between atoms: N_5  and  C_6
REMARK    7  A    between atoms: C_10  and  C_11
REMARK    8  A    between atoms: C_16  and  C_17
REMARK    9  A    between atoms: C_26  and  C_27
REMARK                            x       y       z     vdW  Elec       q    Type
REMARK                         _______ _______ _______ _____ _____    ______ ____
ROOT
ATOM      1  N   UNL     1      49.794   7.782  16.766  0.00  0.00    +0.000 N 
ATOM      2  H   UNL     1      50.625   7.320  17.136  0.00  0.00    +0.000 HD
ENDROOT
BRANCH   1   3
ATOM      3  C   UNL     1      49.554   7.412  15.438  0.00  0.00    +0.000 A 
ATOM      4  C   UNL     1      50.394   7.892  14.432  0.00  0.00    +0.000 A 
ATOM      5  N   UNL     1      50.177   7.758  13.107  0.00  0.00    +0.000 NA
ATOM      6  C   UNL     1      49.043   7.118  12.747  0.00  0.00    +0.000 A 
ATOM      7  C   UNL     1      48.124   6.539  13.628  0.00  0.00    +0.000 A 
ATOM      8  C   UNL     1      48.412   6.728  14.999  0.00  0.00    +0.000 A 
BRANCH   7   9
ATOM      9  C   UNL     1      46.876   5.869  13.154  0.00  0.00    +0.000 A 
ATOM     10  C   UNL     1      46.812   4.453  13.207  0.00  0.00    +0.000 A 
ATOM     11  C   UNL     1      45.658   3.735  12.878  0.00  0.00    +0.000 A 
ATOM     12  C   UNL     1      44.505   4.410  12.518  0.00  0.00    +0.000 A 
ATOM     13  C   UNL     1      44.535   5.796  12.425  0.00  0.00    +0.000 A 
ATOM     14  C   UNL     1      45.715   6.539  12.687  0.00  0.00    +0.000 A 
BRANCH  14  15
ATOM     15  C   UNL     1      45.600   8.027  12.421  0.00  0.00    +0.000 C 
ATOM     16  F   UNL     1      44.422   8.441  11.890  0.00  0.00    +0.000 F 
ATOM     17  F   UNL     1      45.745   8.764  13.563  0.00  0.00    +0.000 F 
ATOM     18  F   UNL     1      46.576   8.470  11.578  0.00  0.00    +0.000 F 
ENDBRANCH  14  15
ENDBRANCH   7   9
ENDBRANCH   1   3
BRANCH   1  19
ATOM     19  C   UNL     1      48.701   7.824  17.737  0.00  0.00    +0.000 C 
BRANCH  19  21
ATOM     20  C   UNL     1      50.241   6.691  19.388  0.00  0.00    +0.000 C 
ATOM     21  C   UNL     1      48.816   6.664  18.782  0.00  0.00    +0.000 C 
ATOM     22  C   UNL     1      47.837   6.978  19.939  0.00  0.00    +0.000 C 
BRANCH  21  23
ATOM     23  C   UNL     1      48.452   5.303  18.167  0.00  0.00    +0.000 A 
ATOM     24  C   UNL     1      47.137   4.920  17.897  0.00  0.00    +0.000 A 
ATOM     25  N   UNL     1      46.769   3.728  17.370  0.00  0.00    +0.000 NA
ATOM     26  C   UNL     1      47.757   2.852  17.083  0.00  0.00    +0.000 A 
ATOM     27  C   UNL     1      49.099   3.103  17.305  0.00  0.00    +0.000 A 
ATOM     28  C   UNL     1      49.441   4.348  17.856  0.00  0.00    +0.000 A 
BRANCH  27  29
ATOM     29  C   UNL     1      50.169   2.134  16.988  0.00  0.00    +0.000 C 
ATOM     30  N   UNL     1      51.181   1.928  17.885  0.00  0.00    +0.000 N 
ATOM     31  O   UNL     1      50.163   1.513  15.926  0.00  0.00    +0.000 OA
ATOM     32  H   UNL     1      51.293   2.387  18.778  0.00  0.00    +0.000 HD
ATOM     33  H   UNL     1      51.895   1.262  17.619  0.00  0.00    +0.000 HD
ENDBRANCH  27  29
ENDBRANCH  21  23
ENDBRANCH  19  21
ENDBRANCH   1  19
TORSDOF 7
ENDMDL
MODEL 3
REMARK VINA RESULT:    -6.876      4.302      8.109
REMARK INTER + INTRA:         -11.357
REMARK INTER:                 -10.123
REMARK INTRA:                  -1.234
REMARK UNBOUND:                -1.667
REMARK  Name = 
REMARK  9 active torsions:
REMARK  status: ('A' for Active; 'I' for Inactive)
REMARK    1  A    between atoms: C_1  and  C_2
REMARK    2  A    between atoms: C_2  and  C_3
REMARK    3  A    between atoms: C_2  and  C_4
REMARK    4  A    between atoms: C_2  and  C_22
REMARK    5  A    between atoms: C_4  and  N_5
REMARK    6  A    between atoms: N_5  and  C_6
REMARK    7  A    between atoms: C_10  and  C_11
REMARK    8  A    between atoms: C_16  and  C_17
REMARK    9  A    between atoms: C_26  and  C_27
REMARK                            x       y       z     vdW  Elec       q    Type
REMARK                         _______ _______ _______ _____ _____    ______ ____
ROOT
ATOM      1  N   UNL     1      46.136   4.575  12.139  0.00  0.00    +0.000 N 
ATOM      2  H   UNL     1      46.293   4.574  11.132  0.00  0.00    +0.000 HD
ENDROOT
BRANCH   1   3
ATOM      3  C   UNL     1      46.425   5.825  12.699  0.00  0.00    +0.000 A 
ATOM      4  C   UNL     1      45.459   6.830  12.664  0.00  0.00    +0.000 A 
ATOM      5  N   UNL     1      45.663   8.120  13.006  0.00  0.00    +0.000 NA
ATOM      6  C   UNL     1      46.916   8.443  13.398  0.00  0.00    +0.000 A 
ATOM      7  C   UNL     1      47.981   7.548  13.533  0.00  0.00    +0.000 A 
ATOM      8  C   UNL     1      47.694   6.218  13.148  0.00  0.00    +0.000 A 
BRANCH   7   9
ATOM      9  C   UNL     1      49.347   7.987  13.948  0.00  0.00    +0.000 A 
ATOM     10  C   UNL     1      49.669   7.963  15.329  0.00  0.00    +0.000 A 
ATOM     11  C   UNL     1      50.947   8.263  15.812  0.00  0.00    +0.000 A 
ATOM     12  C   UNL     1      51.967   8.562  14.926  0.00  0.00    +0.000 A 
ATOM     13  C   UNL     1      51.685   8.625  13.567  0.00  0.00    +0.000 A 
ATOM     14  C   UNL     1      50.379   8.392  13.062  0.00  0.00    +0.000 A 
BRANCH  14  15
ATOM     15  C   UNL     1      50.226   8.620  11.571  0.00  0.00    +0.000 C 
ATOM     16  F   UNL     1      49.230   9.466  11.204  0.00  0.00    +0.000 F 
ATOM     17  F   UNL     1      51.357   9.150  11.016  0.00  0.00    +0.000 F 
ATOM     18  F   UNL     1      50.003   7.454  10.899  0.00  0.00    +0.000 F 
ENDBRANCH  14  15
ENDBRANCH   7   9
ENDBRANCH   1   3
BRANCH   1  19
ATOM     19  C   UNL     1      44.922   3.851  12.516  0.00  0.00    +0.000 C 
BRANCH  19  21
ATOM     20  C   UNL     1      43.313   2.185  11.506  0.00  0.00    +0.000 C 
ATOM     21  C   UNL     1      44.032   3.536  11.266  0.00  0.00    +0.000 C 
ATOM     22  C   UNL     1      42.927   4.618  11.195  0.00  0.00    +0.000 C 
BRANCH  21  23
ATOM     23  C   UNL     1      44.847   3.558   9.963  0.00  0.00    +0.000 A 
ATOM     24  C   UNL     1      45.035   4.715   9.206  0.00  0.00    +0.000 A 
ATOM     25  N   UNL     1      45.731   4.779   8.047  0.00  0.00    +0.000 NA
ATOM     26  C   UNL     1      46.287   3.631   7.600  0.00  0.00    +0.000 A 
ATOM     27  C   UNL     1      46.174   2.415   8.251  0.00  0.00    +0.000 A 
ATOM     28  C   UNL     1      45.440   2.389   9.448  0.00  0.00    +0.000 A 
BRANCH  27  29
ATOM     29  C   UNL     1      46.785   1.166   7.749  0.00  0.00    +0.000 C 
ATOM     30  N   UNL     1      47.917   1.229   6.982  0.00  0.00    +0.000 N 
ATOM     31  O   UNL     1      46.288   0.072   8.010  0.00  0.00    +0.000 OA
ATOM     32  H   UNL     1      48.402   2.069   6.699  0.00  0.00    +0.000 HD
ATOM     33  H   UNL     1      48.292   0.349   6.655  0.00  0.00    +0.000 HD
ENDBRANCH  27  29
ENDBRANCH  21  23
ENDBRANCH  19  21
ENDBRANCH   1  19
TORSDOF 7
ENDMDL
MODEL 4
REMARK VINA RESULT:    -6.823      2.446      3.470
REMARK INTER + INTRA:         -11.283
REMARK INTER:                  -9.370
REMARK INTRA:                  -1.913
REMARK UNBOUND:                -1.667
REMARK  Name = 
REMARK  9 active torsions:
REMARK  status: ('A' for Active; 'I' for Inactive)
REMARK    1  A    between atoms: C_1  and  C_2
REMARK    2  A    between atoms: C_2  and  C_3
REMARK    3  A    between atoms: C_2  and  C_4
REMARK    4  A    between atoms: C_2  and  C_22
REMARK    5  A    between atoms: C_4  and  N_5
REMARK    6  A    between atoms: N_5  and  C_6
REMARK    7  A    between atoms: C_10  and  C_11
REMARK    8  A    between atoms: C_16  and  C_17
REMARK    9  A    between atoms: C_26  and  C_27
REMARK                            x       y       z     vdW  Elec       q    Type
REMARK                         _______ _______ _______ _____ _____    ______ ____
ROOT
ATOM      1  N   UNL     1      49.758   7.874  16.285  0.00  0.00    +0.000 N 
ATOM      2  H   UNL     1      50.573   7.346  16.597  0.00  0.00    +0.000 HD
ENDROOT
BRANCH   1   3
ATOM      3  C   UNL     1      49.449   7.592  14.950  0.00  0.00    +0.000 A 
ATOM      4  C   UNL     1      50.394   7.856  13.958  0.00  0.00    +0.000 A 
ATOM      5  N   UNL     1      50.167   7.796  12.629  0.00  0.00    +0.000 NA
ATOM      6  C   UNL     1      48.911   7.466  12.251  0.00  0.00    +0.000 A 
ATOM      7  C   UNL     1      47.866   7.128  13.116  0.00  0.00    +0.000 A 
ATOM      8  C   UNL     1      48.176   7.222  14.492  0.00  0.00    +0.000 A 
BRANCH   7   9
ATOM      9  C   UNL     1      46.495   6.799  12.622  0.00  0.00    +0.000 A 
ATOM     10  C   UNL     1      45.740   7.827  12.002  0.00  0.00    +0.000 A 
ATOM     11  C   UNL     1      44.487   7.601  11.423  0.00  0.00    +0.000 A 
ATOM     12  C   UNL     1      43.956   6.323  11.407  0.00  0.00    +0.000 A 
ATOM     13  C   UNL     1      44.651   5.294  12.031  0.00  0.00    +0.000 A 
ATOM     14  C   UNL     1      45.890   5.517  12.685  0.00  0.00    +0.000 A 
BRANCH  14  15
ATOM     15  C   UNL     1      46.449   4.310  13.414  0.00  0.00    +0.000 C 
ATOM     16  F   UNL     1      47.780   4.096  13.262  0.00  0.00    +0.000 F 
ATOM     17  F   UNL     1      46.260   4.397  14.765  0.00  0.00    +0.000 F 
ATOM     18  F   UNL     1      45.830   3.156  13.034  0.00  0.00    +0.000 F 
ENDBRANCH  14  15
ENDBRANCH   7   9
ENDBRANCH   1   3
BRANCH   1  19
ATOM     19  C   UNL     1      48.706   7.928  17.300  0.00  0.00    +0.000 C 
BRANCH  19  21
ATOM     20  C   UNL     1      50.467   6.986  18.847  0.00  0.00    +0.000 C 
ATOM     21  C   UNL     1      48.970   6.904  18.455  0.00  0.00    +0.000 C 
ATOM     22  C   UNL     1      48.164   7.375  19.689  0.00  0.00    +0.000 C 
BRANCH  21  23
ATOM     23  C   UNL     1      48.528   5.483  18.072  0.00  0.00    +0.000 A 
ATOM     24  C   UNL     1      47.191   5.081  18.069  0.00  0.00    +0.000 A 
ATOM     25  N   UNL     1      46.756   3.838  17.754  0.00  0.00    +0.000 NA
ATOM     26  C   UNL     1      47.694   2.927  17.413  0.00  0.00    +0.000 A 
ATOM     27  C   UNL     1      49.051   3.193  17.381  0.00  0.00    +0.000 A 
ATOM     28  C   UNL     1      49.464   4.492  17.718  0.00  0.00    +0.000 A 
BRANCH  27  29
ATOM     29  C   UNL     1      50.067   2.185  17.008  0.00  0.00    +0.000 C 
ATOM     30  N   UNL     1      51.116   1.939  17.851  0.00  0.00    +0.000 N 
ATOM     31  O   UNL     1      49.982   1.566  15.948  0.00  0.00    +0.000 OA
ATOM     32  H   UNL     1      51.291   2.393  18.738  0.00  0.00    +0.000 HD
ATOM     33  H   UNL     1      51.789   1.248  17.549  0.00  0.00    +0.000 HD
ENDBRANCH  27  29
ENDBRANCH  21  23
ENDBRANCH  19  21
ENDBRANCH   1  19
TORSDOF 7
ENDMDL
MODEL 5
REMARK VINA RESULT:    -6.769      3.270      6.690
REMARK INTER + INTRA:         -11.205
REMARK INTER:                  -9.338
REMARK INTRA:                  -1.867
REMARK UNBOUND:                -1.667
REMARK  Name = 
REMARK  9 active torsions:
REMARK  status: ('A' for Active; 'I' for Inactive)
REMARK    1  A    between atoms: C_1  and  C_2
REMARK    2  A    between atoms: C_2  and  C_3
REMARK    3  A    between atoms: C_2  and  C_4
REMARK    4  A    between atoms: C_2  and  C_22
REMARK    5  A    between atoms: C_4  and  N_5
REMARK    6  A    between atoms: N_5  and  C_6
REMARK    7  A    between atoms: C_10  and  C_11
REMARK    8  A    between atoms: C_16  and  C_17
REMARK    9  A    between atoms: C_26  and  C_27
REMARK                            x       y       z     vdW  Elec       q    Type
REMARK                         _______ _______ _______ _____ _____    ______ ____
ROOT
ATOM      1  N   UNL     1      48.119   9.628  14.958  0.00  0.00    +0.000 N 
ATOM      2  H   UNL     1      47.150   9.727  14.656  0.00  0.00    +0.000 HD
ENDROOT
BRANCH   1   3
ATOM      3  C   UNL     1      48.216   8.841  16.111  0.00  0.00    +0.000 A 
ATOM      4  C   UNL     1      47.989   9.423  17.358  0.00  0.00    +0.000 A 
ATOM      5  N   UNL     1      48.217   8.830  18.549  0.00  0.00    +0.000 NA
ATOM      6  C   UNL     1      48.719   7.576  18.505  0.00  0.00    +0.000 A 
ATOM      7  C   UNL     1      48.958   6.837  17.343  0.00  0.00    +0.000 A 
ATOM      8  C   UNL     1      48.704   7.527  16.135  0.00  0.00    +0.000 A 
BRANCH   7   9
ATOM      9  C   UNL     1      49.540   5.462  17.375  0.00  0.00    +0.000 A 
ATOM     10  C   UNL     1      50.952   5.330  17.366  0.00  0.00    +0.000 A 
ATOM     11  C   UNL     1      51.597   4.095  17.489  0.00  0.00    +0.000 A 
ATOM     12  C   UNL     1      50.851   2.942  17.666  0.00  0.00    +0.000 A 
ATOM     13  C   UNL     1      49.465   3.025  17.650  0.00  0.00    +0.000 A 
ATOM     14  C   UNL     1      48.791   4.259  17.457  0.00  0.00    +0.000 A 
BRANCH  14  15
ATOM     15  C   UNL     1      47.282   4.147  17.348  0.00  0.00    +0.000 C 
ATOM     16  F   UNL     1      46.571   4.935  18.194  0.00  0.00    +0.000 F 
ATOM     17  F   UNL     1      46.834   4.481  16.100  0.00  0.00    +0.000 F 
ATOM     18  F   UNL     1      46.850   2.871  17.559  0.00  0.00    +0.000 F 
ENDBRANCH  14  15
ENDBRANCH   7   9
ENDBRANCH   1   3
BRANCH   1  19
ATOM     19  C   UNL     1      49.036   9.423  13.836  0.00  0.00    +0.000 C 
BRANCH  19  21
ATOM     20  C   UNL     1      47.278  10.142  12.170  0.00  0.00    +0.000 C 
ATOM     21  C   UNL     1      48.267   9.008  12.536  0.00  0.00    +0.000 C 
ATOM     22  C   UNL     1      49.301   8.934  11.387  0.00  0.00    +0.000 C 
BRANCH  21  23
ATOM     23  C   UNL     1      47.581   7.641  12.690  0.00  0.00    +0.000 A 
ATOM     24  C   UNL     1      48.283   6.470  12.980  0.00  0.00    +0.000 A 
ATOM     25  N   UNL     1      47.724   5.243  13.110  0.00  0.00    +0.000 NA
ATOM     26  C   UNL     1      46.384   5.158  12.950  0.00  0.00    +0.000 A 
ATOM     27  C   UNL     1      45.573   6.239  12.656  0.00  0.00    +0.000 A 
ATOM     28  C   UNL     1      46.190   7.494  12.525  0.00  0.00    +0.000 A 
BRANCH  27  29
ATOM     29  C   UNL     1      44.109   6.131  12.481  0.00  0.00    +0.000 C 
ATOM     30  N   UNL     1      43.505   6.768  11.432  0.00  0.00    +0.000 N 
ATOM     31  O   UNL     1      43.427   5.478  13.270  0.00  0.00    +0.000 OA
ATOM     32  H   UNL     1      43.963   7.337  10.733  0.00  0.00    +0.000 HD
ATOM     33  H   UNL     1      42.501   6.672  11.360  0.00  0.00    +0.000 HD
ENDBRANCH  27  29
ENDBRANCH  21  23
ENDBRANCH  19  21
ENDBRANCH   1  19
TORSDOF 7
ENDMDL
MODEL 6
REMARK VINA RESULT:    -6.664      2.201      2.752
REMARK INTER + INTRA:         -11.057
REMARK INTER:                  -9.856
REMARK INTRA:                  -1.201
REMARK UNBOUND:                -1.667
REMARK  Name = 
REMARK  9 active torsions:
REMARK  status: ('A' for Active; 'I' for Inactive)
REMARK    1  A    between atoms: C_1  and  C_2
REMARK    2  A    between atoms: C_2  and  C_3
REMARK    3  A    between atoms: C_2  and  C_4
REMARK    4  A    between atoms: C_2  and  C_22
REMARK    5  A    between atoms: C_4  and  N_5
REMARK    6  A    between atoms: N_5  and  C_6
REMARK    7  A    between atoms: C_10  and  C_11
REMARK    8  A    between atoms: C_16  and  C_17
REMARK    9  A    between atoms: C_26  and  C_27
REMARK                            x       y       z     vdW  Elec       q    Type
REMARK                         _______ _______ _______ _____ _____    ______ ____
ROOT
ATOM      1  N   UNL     1      47.766   6.032  14.536  0.00  0.00    +0.000 N 
ATOM      2  H   UNL     1      47.214   5.507  15.214  0.00  0.00    +0.000 HD
ENDROOT
BRANCH   1   3
ATOM      3  C   UNL     1      47.007   6.365  13.409  0.00  0.00    +0.000 A 
ATOM      4  C   UNL     1      46.386   7.613  13.346  0.00  0.00    +0.000 A 
ATOM      5  N   UNL     1      45.493   7.993  12.408  0.00  0.00    +0.000 NA
ATOM      6  C   UNL     1      45.179   7.069  11.473  0.00  0.00    +0.000 A 
ATOM      7  C   UNL     1      45.744   5.795  11.368  0.00  0.00    +0.000 A 
ATOM      8  C   UNL     1      46.664   5.465  12.390  0.00  0.00    +0.000 A 
BRANCH   7   9
ATOM      9  C   UNL     1      45.325   4.818  10.319  0.00  0.00    +0.000 A 
ATOM     10  C   UNL     1      45.850   4.970   9.010  0.00  0.00    +0.000 A 
ATOM     11  C   UNL     1      45.597   4.057   7.982  0.00  0.00    +0.000 A 
ATOM     12  C   UNL     1      44.835   2.929   8.234  0.00  0.00    +0.000 A 
ATOM     13  C   UNL     1      44.277   2.758   9.495  0.00  0.00    +0.000 A 
ATOM     14  C   UNL     1      44.465   3.709  10.532  0.00  0.00    +0.000 A 
BRANCH  14  15
ATOM     15  C   UNL     1      43.687   3.424  11.802  0.00  0.00    +0.000 C 
ATOM     16  F   UNL     1      42.868   4.419  12.226  0.00  0.00    +0.000 F 
ATOM     17  F   UNL     1      42.873   2.334  11.670  0.00  0.00    +0.000 F 
ATOM     18  F   UNL     1      44.512   3.136  12.850  0.00  0.00    +0.000 F 
ENDBRANCH  14  15
ENDBRANCH   7   9
ENDBRANCH   1   3
BRANCH   1  19
ATOM     19  C   UNL     1      48.634   7.024  15.172  0.00  0.00    +0.000 C 
BRANCH  19  21
ATOM     20  C   UNL     1      48.601   7.895  17.543  0.00  0.00    +0.000 C 
ATOM     21  C   UNL     1      48.922   6.659  16.667  0.00  0.00    +0.000 C 
ATOM     22  C   UNL     1      47.921   5.553  17.079  0.00  0.00    +0.000 C 
BRANCH  21  23
ATOM     23  C   UNL     1      50.357   6.142  16.863  0.00  0.00    +0.000 A 
ATOM     24  C   UNL     1      51.484   6.887  16.514  0.00  0.00    +0.000 A 
ATOM     25  N   UNL     1      52.765   6.468  16.655  0.00  0.00    +0.000 NA
ATOM     26  C   UNL     1      52.954   5.237  17.178  0.00  0.00    +0.000 A 
ATOM     27  C   UNL     1      51.925   4.395  17.561  0.00  0.00    +0.000 A 
ATOM     28  C   UNL     1      50.611   4.863  17.395  0.00  0.00    +0.000 A 
BRANCH  27  29
ATOM     29  C   UNL     1      52.147   3.049  18.130  0.00  0.00    +0.000 C 
ATOM     30  N   UNL     1      51.258   2.045  17.858  0.00  0.00    +0.000 N 
ATOM     31  O   UNL     1      53.119   2.821  18.848  0.00  0.00    +0.000 OA
ATOM     32  H   UNL     1      50.423   2.121  17.293  0.00  0.00    +0.000 HD
ATOM     33  H   UNL     1      51.447   1.145  18.277  0.00  0.00    +0.000 HD
ENDBRANCH  27  29
ENDBRANCH  21  23
ENDBRANCH  19  21
ENDBRANCH   1  19
TORSDOF 7
ENDMDL
MODEL 7
REMARK VINA RESULT:    -6.659      3.564      7.423
REMARK INTER + INTRA:         -11.051
REMARK INTER:                  -9.764
REMARK INTRA:                  -1.287
REMARK UNBOUND:                -1.667
REMARK  Name = 
REMARK  9 active torsions:
REMARK  status: ('A' for Active; 'I' for Inactive)
REMARK    1  A    between atoms: C_1  and  C_2
REMARK    2  A    between atoms: C_2  and  C_3
REMARK    3  A    between atoms: C_2  and  C_4
REMARK    4  A    between atoms: C_2  and  C_22
REMARK    5  A    between atoms: C_4  and  N_5
REMARK    6  A    between atoms: N_5  and  C_6
REMARK    7  A    between atoms: C_10  and  C_11
REMARK    8  A    between atoms: C_16  and  C_17
REMARK    9  A    between atoms: C_26  and  C_27
REMARK                            x       y       z     vdW  Elec       q    Type
REMARK                         _______ _______ _______ _____ _____    ______ ____
ROOT
ATOM      1  N   UNL     1      48.293   7.918  15.423  0.00  0.00    +0.000 N 
ATOM      2  H   UNL     1      47.311   8.188  15.480  0.00  0.00    +0.000 HD
ENDROOT
BRANCH   1   3
ATOM      3  C   UNL     1      48.686   7.188  16.551  0.00  0.00    +0.000 A 
ATOM      4  C   UNL     1      48.552   7.757  17.817  0.00  0.00    +0.000 A 
ATOM      5  N   UNL     1      49.047   7.240  18.961  0.00  0.00    +0.000 NA
ATOM      6  C   UNL     1      49.737   6.083  18.844  0.00  0.00    +0.000 A 
ATOM      7  C   UNL     1      49.922   5.363  17.660  0.00  0.00    +0.000 A 
ATOM      8  C   UNL     1      49.384   5.972  16.503  0.00  0.00    +0.000 A 
BRANCH   7   9
ATOM      9  C   UNL     1      50.721   4.103  17.607  0.00  0.00    +0.000 A 
ATOM     10  C   UNL     1      52.110   4.177  17.887  0.00  0.00    +0.000 A 
ATOM     11  C   UNL     1      52.928   3.044  17.956  0.00  0.00    +0.000 A 
ATOM     12  C   UNL     1      52.380   1.785  17.786  0.00  0.00    +0.000 A 
ATOM     13  C   UNL     1      51.029   1.673  17.481  0.00  0.00    +0.000 A 
ATOM     14  C   UNL     1      50.196   2.813  17.337  0.00  0.00    +0.000 A 
BRANCH  14  15
ATOM     15  C   UNL     1      48.780   2.511  16.885  0.00  0.00    +0.000 C 
ATOM     16  F   UNL     1      48.276   3.342  15.938  0.00  0.00    +0.000 F 
ATOM     17  F   UNL     1      48.671   1.260  16.346  0.00  0.00    +0.000 F 
ATOM     18  F   UNL     1      47.898   2.536  17.925  0.00  0.00    +0.000 F 
ENDBRANCH  14  15
ENDBRANCH   7   9
ENDBRANCH   1   3
BRANCH   1  19
ATOM     19  C   UNL     1      48.677   7.483  14.081  0.00  0.00    +0.000 C 
BRANCH  19  21
ATOM     20  C   UNL     1      46.635   8.864  13.524  0.00  0.00    +0.000 C 
ATOM     21  C   UNL     1      47.503   7.667  13.061  0.00  0.00    +0.000 C 
ATOM     22  C   UNL     1      48.123   8.070  11.702  0.00  0.00    +0.000 C 
BRANCH  21  23
ATOM     23  C   UNL     1      46.692   6.373  12.883  0.00  0.00    +0.000 A 
ATOM     24  C   UNL     1      46.947   5.212  13.616  0.00  0.00    +0.000 A 
ATOM     25  N   UNL     1      46.269   4.047  13.483  0.00  0.00    +0.000 NA
ATOM     26  C   UNL     1      45.269   4.018  12.575  0.00  0.00    +0.000 A 
ATOM     27  C   UNL     1      44.916   5.095  11.782  0.00  0.00    +0.000 A 
ATOM     28  C   UNL     1      45.645   6.284  11.945  0.00  0.00    +0.000 A 
BRANCH  27  29
ATOM     29  C   UNL     1      43.820   5.048  10.790  0.00  0.00    +0.000 C 
ATOM     30  N   UNL     1      44.061   4.545   9.541  0.00  0.00    +0.000 N 
ATOM     31  O   UNL     1      42.696   5.459  11.073  0.00  0.00    +0.000 OA
ATOM     32  H   UNL     1      44.944   4.192   9.198  0.00  0.00    +0.000 HD
ATOM     33  H   UNL     1      43.283   4.542   8.895  0.00  0.00    +0.000 HD
ENDBRANCH  27  29
ENDBRANCH  21  23
ENDBRANCH  19  21
ENDBRANCH   1  19
TORSDOF 7
ENDMDL
MODEL 8
REMARK VINA RESULT:    -6.567      4.202      7.902
REMARK INTER + INTRA:         -10.921
REMARK INTER:                  -9.821
REMARK INTRA:                  -1.100
REMARK UNBOUND:                -1.667
REMARK  Name = 
REMARK  9 active torsions:
REMARK  status: ('A' for Active; 'I' for Inactive)
REMARK    1  A    between atoms: C_1  and  C_2
REMARK    2  A    between atoms: C_2  and  C_3
REMARK    3  A    between atoms: C_2  and  C_4
REMARK    4  A    between atoms: C_2  and  C_22
REMARK    5  A    between atoms: C_4  and  N_5
REMARK    6  A    between atoms: N_5  and  C_6
REMARK    7  A    between atoms: C_10  and  C_11
REMARK    8  A    between atoms: C_16  and  C_17
REMARK    9  A    between atoms: C_26  and  C_27
REMARK                            x       y       z     vdW  Elec       q    Type
REMARK                         _______ _______ _______ _____ _____    ______ ____
ROOT
ATOM      1  N   UNL     1      46.084   4.190  12.222  0.00  0.00    +0.000 N 
ATOM      2  H   UNL     1      46.378   4.009  11.263  0.00  0.00    +0.000 HD
ENDROOT
BRANCH   1   3
ATOM      3  C   UNL     1      46.336   5.516  12.591  0.00  0.00    +0.000 A 
ATOM      4  C   UNL     1      45.268   6.404  12.725  0.00  0.00    +0.000 A 
ATOM      5  N   UNL     1      45.381   7.737  12.902  0.00  0.00    +0.000 NA
ATOM      6  C   UNL     1      46.638   8.232  12.936  0.00  0.00    +0.000 A 
ATOM      7  C   UNL     1      47.811   7.475  12.863  0.00  0.00    +0.000 A 
ATOM      8  C   UNL     1      47.614   6.088  12.668  0.00  0.00    +0.000 A 
BRANCH   7   9
ATOM      9  C   UNL     1      49.168   8.098  12.880  0.00  0.00    +0.000 A 
ATOM     10  C   UNL     1      49.770   8.431  11.639  0.00  0.00    +0.000 A 
ATOM     11  C   UNL     1      50.994   9.102  11.549  0.00  0.00    +0.000 A 
ATOM     12  C   UNL     1      51.647   9.504  12.701  0.00  0.00    +0.000 A 
ATOM     13  C   UNL     1      51.105   9.171  13.936  0.00  0.00    +0.000 A 
ATOM     14  C   UNL     1      49.900   8.429  14.050  0.00  0.00    +0.000 A 
BRANCH  14  15
ATOM     15  C   UNL     1      49.520   8.052  15.468  0.00  0.00    +0.000 C 
ATOM     16  F   UNL     1      49.296   6.731  15.685  0.00  0.00    +0.000 F 
ATOM     17  F   UNL     1      50.491   8.394  16.367  0.00  0.00    +0.000 F 
ATOM     18  F   UNL     1      48.396   8.703  15.883  0.00  0.00    +0.000 F 
ENDBRANCH  14  15
ENDBRANCH   7   9
ENDBRANCH   1   3
BRANCH   1  19
ATOM     19  C   UNL     1      44.805   3.556  12.543  0.00  0.00    +0.000 C 
BRANCH  19  21
ATOM     20  C   UNL     1      43.180   2.002  11.391  0.00  0.00    +0.000 C 
ATOM     21  C   UNL     1      43.929   3.352  11.262  0.00  0.00    +0.000 C 
ATOM     22  C   UNL     1      42.847   4.458  11.255  0.00  0.00    +0.000 C 
BRANCH  21  23
ATOM     23  C   UNL     1      44.764   3.453   9.976  0.00  0.00    +0.000 A 
ATOM     24  C   UNL     1      44.938   4.648   9.277  0.00  0.00    +0.000 A 
ATOM     25  N   UNL     1      45.652   4.782   8.134  0.00  0.00    +0.000 NA
ATOM     26  C   UNL     1      46.241   3.668   7.644  0.00  0.00    +0.000 A 
ATOM     27  C   UNL     1      46.144   2.421   8.235  0.00  0.00    +0.000 A 
ATOM     28  C   UNL     1      45.391   2.322   9.416  0.00  0.00    +0.000 A 
BRANCH  27  29
ATOM     29  C   UNL     1      46.791   1.210   7.685  0.00  0.00    +0.000 C 
ATOM     30  N   UNL     1      47.832   1.341   6.808  0.00  0.00    +0.000 N 
ATOM     31  O   UNL     1      46.403   0.088   8.005  0.00  0.00    +0.000 OA
ATOM     32  H   UNL     1      48.225   2.208   6.469  0.00  0.00    +0.000 HD
ATOM     33  H   UNL     1      48.236   0.484   6.452  0.00  0.00    +0.000 HD
ENDBRANCH  27  29
ENDBRANCH  21  23
ENDBRANCH  19  21
ENDBRANCH   1  19
TORSDOF 7
ENDMDL
MODEL 9
REMARK VINA RESULT:    -6.129      3.632      5.466
REMARK INTER + INTRA:         -10.304
REMARK INTER:                  -8.164
REMARK INTRA:                  -2.140
REMARK UNBOUND:                -1.667
REMARK  Name = 
REMARK  9 active torsions:
REMARK  status: ('A' for Active; 'I' for Inactive)
REMARK    1  A    between atoms: C_1  and  C_2
REMARK    2  A    between atoms: C_2  and  C_3
REMARK    3  A    between atoms: C_2  and  C_4
REMARK    4  A    between atoms: C_2  and  C_22
REMARK    5  A    between atoms: C_4  and  N_5
REMARK    6  A    between atoms: N_5  and  C_6
REMARK    7  A    between atoms: C_10  and  C_11
REMARK    8  A    between atoms: C_16  and  C_17
REMARK    9  A    between atoms: C_26  and  C_27
REMARK                            x       y       z     vdW  Elec       q    Type
REMARK                         _______ _______ _______ _____ _____    ______ ____
ROOT
ATOM      1  N   UNL     1      52.064   6.872  17.542  0.00  0.00    +0.000 N 
ATOM      2  H   UNL     1      52.684   6.459  16.846  0.00  0.00    +0.000 HD
ENDROOT
BRANCH   1   3
ATOM      3  C   UNL     1      50.966   7.496  16.939  0.00  0.00    +0.000 A 
ATOM      4  C   UNL     1      50.342   8.562  17.588  0.00  0.00    +0.000 A 
ATOM      5  N   UNL     1      49.181   9.134  17.208  0.00  0.00    +0.000 NA
ATOM      6  C   UNL     1      48.584   8.607  16.116  0.00  0.00    +0.000 A 
ATOM      7  C   UNL     1      49.099   7.573  15.328  0.00  0.00    +0.000 A 
ATOM      8  C   UNL     1      50.313   7.017  15.794  0.00  0.00    +0.000 A 
BRANCH   7   9
ATOM      9  C   UNL     1      48.365   7.025  14.148  0.00  0.00    +0.000 A 
ATOM     10  C   UNL     1      47.575   5.861  14.330  0.00  0.00    +0.000 A 
ATOM     11  C   UNL     1      46.776   5.324  13.315  0.00  0.00    +0.000 A 
ATOM     12  C   UNL     1      46.706   5.955  12.085  0.00  0.00    +0.000 A 
ATOM     13  C   UNL     1      47.488   7.081  11.858  0.00  0.00    +0.000 A 
ATOM     14  C   UNL     1      48.358   7.601  12.851  0.00  0.00    +0.000 A 
BRANCH  14  15
ATOM     15  C   UNL     1      49.224   8.759  12.393  0.00  0.00    +0.000 C 
ATOM     16  F   UNL     1      49.062   9.921  13.076  0.00  0.00    +0.000 F 
ATOM     17  F   UNL     1      50.556   8.474  12.500  0.00  0.00    +0.000 F 
ATOM     18  F   UNL     1      49.020   9.056  11.078  0.00  0.00    +0.000 F 
ENDBRANCH  14  15
ENDBRANCH   7   9
ENDBRANCH   1   3
BRANCH   1  19
ATOM     19  C   UNL     1      51.885   6.011  18.711  0.00  0.00    +0.000 C 
BRANCH  19  21
ATOM     20  C   UNL     1      53.543   4.564  17.470  0.00  0.00    +0.000 C 
ATOM     21  C   UNL     1      52.310   4.535  18.407  0.00  0.00    +0.000 C 
ATOM     22  C   UNL     1      52.780   3.901  19.738  0.00  0.00    +0.000 C 
BRANCH  21  23
ATOM     23  C   UNL     1      51.144   3.711  17.837  0.00  0.00    +0.000 A 
ATOM     24  C   UNL     1      51.323   2.471  17.221  0.00  0.00    +0.000 A 
ATOM     25  N   UNL     1      50.330   1.717  16.692  0.00  0.00    +0.000 NA
ATOM     26  C   UNL     1      49.074   2.209  16.778  0.00  0.00    +0.000 A 
ATOM     27  C   UNL     1      48.759   3.424  17.358  0.00  0.00    +0.000 A 
ATOM     28  C   UNL     1      49.817   4.179  17.891  0.00  0.00    +0.000 A 
BRANCH  27  29
ATOM     29  C   UNL     1      47.380   3.950  17.443  0.00  0.00    +0.000 C 
ATOM     30  N   UNL     1      47.177   5.263  17.769  0.00  0.00    +0.000 N 
ATOM     31  O   UNL     1      46.413   3.221  17.226  0.00  0.00    +0.000 OA
ATOM     32  H   UNL     1      47.892   5.946  17.977  0.00  0.00    +0.000 HD
ATOM     33  H   UNL     1      46.216   5.573  17.823  0.00  0.00    +0.000 HD
ENDBRANCH  27  29
ENDBRANCH  21  23
ENDBRANCH  19  21
ENDBRANCH   1  19
TORSDOF 7
ENDMDL
