MODEL 1
REMARK VINA RESULT:    -8.363      0.000      0.000
REMARK INTER + INTRA:         -10.823
REMARK INTER:                 -10.563
REMARK INTRA:                  -0.261
REMARK UNBOUND:                -0.261
REMARK  Name = 
REMARK  6 active torsions:
REMARK  status: ('A' for Active; 'I' for Inactive)
REMARK    1  A    between atoms: C_1  and  C_2
REMARK    2  A    between atoms: C_2  and  N_3
REMARK    3  A    between atoms: C_2  and  C_14
REMARK    4  A    between atoms: N_3  and  C_4
REMARK    5  A    between atoms: C_7  and  C_8
REMARK    6  A    between atoms: C_12  and  O_13
REMARK                            x       y       z     vdW  Elec       q    Type
REMARK                         _______ _______ _______ _____ _____    ______ ____
ROOT
ATOM      1  C   UNL     1      44.650   3.961   9.097  0.00  0.00    +0.000 A 
ATOM      2  N   UNL     1      45.434   4.535   8.162  0.00  0.00    +0.000 NA
ATOM      3  C   UNL     1      46.289   3.731   7.473  0.00  0.00    +0.000 A 
ATOM      4  C   UNL     1      46.433   2.370   7.690  0.00  0.00    +0.000 A 
ATOM      5  C   UNL     1      45.598   1.780   8.636  0.00  0.00    +0.000 A 
ATOM      6  C   UNL     1      44.675   2.573   9.315  0.00  0.00    +0.000 A 
ENDROOT
BRANCH   4   7
ATOM      7  C   UNL     1      47.414   1.512   6.986  0.00  0.00    +0.000 C 
ATOM      8  N   UNL     1      48.552   2.087   6.480  0.00  0.00    +0.000 N 
ATOM      9  O   UNL     1      47.231   0.312   6.855  0.00  0.00    +0.000 OA
ATOM     10  H   UNL     1      48.795   3.063   6.523  0.00  0.00    +0.000 HD
ATOM     11  H   UNL     1      49.197   1.462   6.009  0.00  0.00    +0.000 HD
ENDBRANCH   4   7
BRANCH   1  12
ATOM     12  N   UNL     1      43.766   4.752   9.844  0.00  0.00    +0.000 N 
ATOM     13  H   UNL     1      43.789   5.670   9.408  0.00  0.00    +0.000 HD
BRANCH  12  15
ATOM     14  C   UNL     1      42.931   5.810  11.904  0.00  0.00    +0.000 C 
ATOM     15  C   UNL     1      43.906   4.779  11.306  0.00  0.00    +0.000 C 
BRANCH  15  16
ATOM     16  C   UNL     1      45.377   5.145  11.702  0.00  0.00    +0.000 C 
ATOM     17  C   UNL     1      45.711   4.796  13.169  0.00  0.00    +0.000 C 
ATOM     18  C   UNL     1      47.093   5.278  13.608  0.00  0.00    +0.000 C 
ATOM     19  C   UNL     1      47.280   6.760  13.322  0.00  0.00    +0.000 C 
ATOM     20  C   UNL     1      47.094   7.042  11.837  0.00  0.00    +0.000 C 
ATOM     21  C   UNL     1      45.702   6.611  11.364  0.00  0.00    +0.000 C 
ENDBRANCH  15  16
ENDBRANCH  12  15
ENDBRANCH   1  12
BRANCH   6  22
ATOM     22  O   UNL     1      43.820   1.994  10.215  0.00  0.00    +0.000 OA
ATOM     23  H   UNL     1      43.610   1.095   9.910  0.00  0.00    +0.000 HD
ENDBRANCH   6  22
TORSDOF 5
ENDMDL
MODEL 2
REMARK VINA RESULT:    -6.922      2.667      6.306
REMARK INTER + INTRA:          -9.003
REMARK INTER:                  -8.532
REMARK INTRA:                  -0.471
REMARK UNBOUND:                -0.261
REMARK  Name = 
REMARK  6 active torsions:
REMARK  status: ('A' for Active; 'I' for Inactive)
REMARK    1  A    between atoms: C_1  and  C_2
REMARK    2  A    between atoms: C_2  and  N_3
REMARK    3  A    between atoms: C_2  and  C_14
REMARK    4  A    between atoms: N_3  and  C_4
REMARK    5  A    between atoms: C_7  and  C_8
REMARK    6  A    between atoms: C_12  and  O_13
REMARK                            x       y       z     vdW  Elec       q    Type
REMARK                         _______ _______ _______ _____ _____    ______ ____
ROOT
ATOM      1  C   UNL     1      45.220   4.232  11.491  0.00  0.00    +0.000 A 
ATOM      2  N   UNL     1      44.800   5.287  10.763  0.00  0.00    +0.000 NA
ATOM      3  C   UNL     1      45.039   6.532  11.257  0.00  0.00    +0.000 A 
ATOM      4  C   UNL     1      45.652   6.790  12.472  0.00  0.00    +0.000 A 
ATOM      5  C   UNL     1      46.110   5.696  13.204  0.00  0.00    +0.000 A 
ATOM      6  C   UNL     1      45.927   4.413  12.693  0.00  0.00    +0.000 A 
ENDROOT
BRANCH   4   7
ATOM      7  C   UNL     1      45.847   8.145  13.039  0.00  0.00    +0.000 C 
ATOM      8  N   UNL     1      44.884   9.096  12.821  0.00  0.00    +0.000 N 
ATOM      9  O   UNL     1      46.838   8.424  13.695  0.00  0.00    +0.000 OA
ATOM     10  H   UNL     1      44.038   8.976  12.289  0.00  0.00    +0.000 HD
ATOM     11  H   UNL     1      45.057  10.008  13.230  0.00  0.00    +0.000 HD
ENDBRANCH   4   7
BRANCH   1  12
ATOM     12  N   UNL     1      44.981   2.931  11.030  0.00  0.00    +0.000 N 
ATOM     13  H   UNL     1      45.791   2.388  11.317  0.00  0.00    +0.000 HD
BRANCH  12  15
ATOM     14  C   UNL     1      43.835   1.410   9.470  0.00  0.00    +0.000 C 
ATOM     15  C   UNL     1      44.598   2.738   9.625  0.00  0.00    +0.000 C 
BRANCH  15  16
ATOM     16  C   UNL     1      45.872   2.731   8.713  0.00  0.00    +0.000 C 
ATOM     17  C   UNL     1      45.805   3.773   7.575  0.00  0.00    +0.000 C 
ATOM     18  C   UNL     1      46.974   3.679   6.596  0.00  0.00    +0.000 C 
ATOM     19  C   UNL     1      47.135   2.264   6.060  0.00  0.00    +0.000 C 
ATOM     20  C   UNL     1      47.353   1.284   7.204  0.00  0.00    +0.000 C 
ATOM     21  C   UNL     1      46.180   1.317   8.189  0.00  0.00    +0.000 C 
ENDBRANCH  15  16
ENDBRANCH  12  15
ENDBRANCH   1  12
BRANCH   6  22
ATOM     22  O   UNL     1      46.412   3.334  13.384  0.00  0.00    +0.000 OA
ATOM     23  H   UNL     1      46.131   2.522  12.929  0.00  0.00    +0.000 HD
ENDBRANCH   6  22
TORSDOF 5
ENDMDL
MODEL 3
REMARK VINA RESULT:    -6.682      3.406      6.016
REMARK INTER + INTRA:          -8.701
REMARK INTER:                  -8.220
REMARK INTRA:                  -0.480
REMARK UNBOUND:                -0.261
REMARK  Name = 
REMARK  6 active torsions:
REMARK  status: ('A' for Active; 'I' for Inactive)
REMARK    1  A    between atoms: C_1  and  C_2
REMARK    2  A    between atoms: C_2  and  N_3
REMARK    3  A    between atoms: C_2  and  C_14
REMARK    4  A    between atoms: N_3  and  C_4
REMARK    5  A    between atoms: C_7  and  C_8
REMARK    6  A    between atoms: C_12  and  O_13
REMARK                            x       y       z     vdW  Elec       q    Type
REMARK                         _______ _______ _______ _____ _____    ______ ____
ROOT
ATOM      1  C   UNL     1      46.105   5.526  12.529  0.00  0.00    +0.000 A 
ATOM      2  N   UNL     1      46.618   6.470  11.714  0.00  0.00    +0.000 NA
ATOM      3  C   UNL     1      47.750   7.108  12.116  0.00  0.00    +0.000 A 
ATOM      4  C   UNL     1      48.393   6.878  13.323  0.00  0.00    +0.000 A 
ATOM      5  C   UNL     1      47.875   5.880  14.145  0.00  0.00    +0.000 A 
ATOM      6  C   UNL     1      46.748   5.174  13.729  0.00  0.00    +0.000 A 
ENDROOT
BRANCH   4   7
ATOM      7  C   UNL     1      49.585   7.623  13.789  0.00  0.00    +0.000 C 
ATOM      8  N   UNL     1      50.689   7.679  12.977  0.00  0.00    +0.000 N 
ATOM      9  O   UNL     1      49.600   8.187  14.872  0.00  0.00    +0.000 OA
ATOM     10  H   UNL     1      50.786   7.243  12.074  0.00  0.00    +0.000 HD
ATOM     11  H   UNL     1      51.481   8.202  13.334  0.00  0.00    +0.000 HD
ENDBRANCH   4   7
BRANCH   1  12
ATOM     12  N   UNL     1      44.930   4.855  12.163  0.00  0.00    +0.000 N 
ATOM     13  H   UNL     1      45.184   3.872  12.111  0.00  0.00    +0.000 HD
BRANCH  12  15
ATOM     14  C   UNL     1      42.695   5.535  11.389  0.00  0.00    +0.000 C 
ATOM     15  C   UNL     1      44.172   5.341  11.002  0.00  0.00    +0.000 C 
BRANCH  15  16
ATOM     16  C   UNL     1      44.283   4.321   9.818  0.00  0.00    +0.000 C 
ATOM     17  C   UNL     1      44.316   2.851  10.291  0.00  0.00    +0.000 C 
ATOM     18  C   UNL     1      44.568   1.855   9.160  0.00  0.00    +0.000 C 
ATOM     19  C   UNL     1      45.812   2.223   8.365  0.00  0.00    +0.000 C 
ATOM     20  C   UNL     1      45.676   3.624   7.785  0.00  0.00    +0.000 C 
ATOM     21  C   UNL     1      45.464   4.661   8.892  0.00  0.00    +0.000 C 
ENDBRANCH  15  16
ENDBRANCH  12  15
ENDBRANCH   1  12
BRANCH   6  22
ATOM     22  O   UNL     1      46.257   4.162  14.510  0.00  0.00    +0.000 OA
ATOM     23  H   UNL     1      46.771   3.356  14.334  0.00  0.00    +0.000 HD
ENDBRANCH   6  22
TORSDOF 5
ENDMDL
MODEL 4
REMARK VINA RESULT:    -6.380      5.550      7.740
REMARK INTER + INTRA:          -8.319
REMARK INTER:                  -7.839
REMARK INTRA:                  -0.480
REMARK UNBOUND:                -0.261
REMARK  Name = 
REMARK  6 active torsions:
REMARK  status: ('A' for Active; 'I' for Inactive)
REMARK    1  A    between atoms: C_1  and  C_2
REMARK    2  A    between atoms: C_2  and  N_3
REMARK    3  A    between atoms: C_2  and  C_14
REMARK    4  A    between atoms: N_3  and  C_4
REMARK    5  A    between atoms: C_7  and  C_8
REMARK    6  A    between atoms: C_12  and  O_13
REMARK                            x       y       z     vdW  Elec       q    Type
REMARK                         _______ _______ _______ _____ _____    ______ ____
ROOT
ATOM      1  C   UNL     1      47.667   3.909  15.929  0.00  0.00    +0.000 A 
ATOM      2  N   UNL     1      47.947   2.613  15.684  0.00  0.00    +0.000 NA
ATOM      3  C   UNL     1      49.044   2.077  16.285  0.00  0.00    +0.000 A 
ATOM      4  C   UNL     1      49.913   2.782  17.103  0.00  0.00    +0.000 A 
ATOM      5  C   UNL     1      49.600   4.112  17.375  0.00  0.00    +0.000 A 
ATOM      6  C   UNL     1      48.451   4.667  16.816  0.00  0.00    +0.000 A 
ENDROOT
BRANCH   4   7
ATOM      7  C   UNL     1      51.145   2.215  17.699  0.00  0.00    +0.000 C 
ATOM      8  N   UNL     1      51.291   0.852  17.741  0.00  0.00    +0.000 N 
ATOM      9  O   UNL     1      52.026   2.933  18.144  0.00  0.00    +0.000 OA
ATOM     10  H   UNL     1      50.625   0.171  17.413  0.00  0.00    +0.000 HD
ATOM     11  H   UNL     1      52.150   0.507  18.154  0.00  0.00    +0.000 HD
ENDBRANCH   4   7
BRANCH   1  12
ATOM     12  N   UNL     1      46.557   4.507  15.318  0.00  0.00    +0.000 N 
ATOM     13  H   UNL     1      45.745   4.054  15.727  0.00  0.00    +0.000 HD
BRANCH  12  15
ATOM     14  C   UNL     1      47.015   5.981  13.401  0.00  0.00    +0.000 C 
ATOM     15  C   UNL     1      46.519   4.596  13.853  0.00  0.00    +0.000 C 
BRANCH  15  16
ATOM     16  C   UNL     1      45.060   4.357  13.334  0.00  0.00    +0.000 C 
ATOM     17  C   UNL     1      44.988   3.319  12.193  0.00  0.00    +0.000 C 
ATOM     18  C   UNL     1      43.595   3.183  11.583  0.00  0.00    +0.000 C 
ATOM     19  C   UNL     1      43.043   4.534  11.154  0.00  0.00    +0.000 C 
ATOM     20  C   UNL     1      42.984   5.484  12.343  0.00  0.00    +0.000 C 
ATOM     21  C   UNL     1      44.373   5.682  12.959  0.00  0.00    +0.000 C 
ENDBRANCH  15  16
ENDBRANCH  12  15
ENDBRANCH   1  12
BRANCH   6  22
ATOM     22  O   UNL     1      48.112   5.961  17.113  0.00  0.00    +0.000 OA
ATOM     23  H   UNL     1      47.235   6.146  16.738  0.00  0.00    +0.000 HD
ENDBRANCH   6  22
TORSDOF 5
ENDMDL
MODEL 5
REMARK VINA RESULT:    -5.979      3.141      5.224
REMARK INTER + INTRA:          -7.813
REMARK INTER:                  -7.273
REMARK INTRA:                  -0.539
REMARK UNBOUND:                -0.261
REMARK  Name = 
REMARK  6 active torsions:
REMARK  status: ('A' for Active; 'I' for Inactive)
REMARK    1  A    between atoms: C_1  and  C_2
REMARK    2  A    between atoms: C_2  and  N_3
REMARK    3  A    between atoms: C_2  and  C_14
REMARK    4  A    between atoms: N_3  and  C_4
REMARK    5  A    between atoms: C_7  and  C_8
REMARK    6  A    between atoms: C_12  and  O_13
REMARK                            x       y       z     vdW  Elec       q    Type
REMARK                         _______ _______ _______ _____ _____    ______ ____
ROOT
ATOM      1  C   UNL     1      46.447   6.040  12.638  0.00  0.00    +0.000 A 
ATOM      2  N   UNL     1      46.004   6.191  11.373  0.00  0.00    +0.000 NA
ATOM      3  C   UNL     1      45.223   5.205  10.854  0.00  0.00    +0.000 A 
ATOM      4  C   UNL     1      44.881   4.040  11.523  0.00  0.00    +0.000 A 
ATOM      5  C   UNL     1      45.317   3.907  12.840  0.00  0.00    +0.000 A 
ATOM      6  C   UNL     1      46.071   4.928  13.412  0.00  0.00    +0.000 A 
ENDROOT
BRANCH   4   7
ATOM      7  C   UNL     1      44.090   2.937  10.929  0.00  0.00    +0.000 C 
ATOM      8  N   UNL     1      44.615   2.244   9.870  0.00  0.00    +0.000 N 
ATOM      9  O   UNL     1      42.991   2.636  11.367  0.00  0.00    +0.000 OA
ATOM     10  H   UNL     1      45.503   2.416   9.427  0.00  0.00    +0.000 HD
ATOM     11  H   UNL     1      44.042   1.495   9.497  0.00  0.00    +0.000 HD
ENDBRANCH   4   7
BRANCH   1  12
ATOM     12  N   UNL     1      47.267   7.022  13.209  0.00  0.00    +0.000 N 
ATOM     13  H   UNL     1      46.859   7.911  12.932  0.00  0.00    +0.000 HD
BRANCH  12  15
ATOM     14  C   UNL     1      49.451   7.182  14.332  0.00  0.00    +0.000 C 
ATOM     15  C   UNL     1      48.719   6.938  13.001  0.00  0.00    +0.000 C 
BRANCH  15  16
ATOM     16  C   UNL     1      49.175   7.998  11.940  0.00  0.00    +0.000 C 
ATOM     17  C   UNL     1      50.703   8.225  11.934  0.00  0.00    +0.000 C 
ATOM     18  C   UNL     1      51.145   9.356  11.007  0.00  0.00    +0.000 C 
ATOM     19  C   UNL     1      50.382  10.640  11.297  0.00  0.00    +0.000 C 
ATOM     20  C   UNL     1      48.884  10.414  11.142  0.00  0.00    +0.000 C 
ATOM     21  C   UNL     1      48.392   9.313  12.087  0.00  0.00    +0.000 C 
ENDBRANCH  15  16
ENDBRANCH  12  15
ENDBRANCH   1  12
BRANCH   6  22
ATOM     22  O   UNL     1      46.467   4.825  14.720  0.00  0.00    +0.000 OA
ATOM     23  H   UNL     1      46.376   3.899  14.999  0.00  0.00    +0.000 HD
ENDBRANCH   6  22
TORSDOF 5
ENDMDL
MODEL 6
REMARK VINA RESULT:    -5.863      2.875      6.275
REMARK INTER + INTRA:          -7.667
REMARK INTER:                  -7.384
REMARK INTRA:                  -0.283
REMARK UNBOUND:                -0.261
REMARK  Name = 
REMARK  6 active torsions:
REMARK  status: ('A' for Active; 'I' for Inactive)
REMARK    1  A    between atoms: C_1  and  C_2
REMARK    2  A    between atoms: C_2  and  N_3
REMARK    3  A    between atoms: C_2  and  C_14
REMARK    4  A    between atoms: N_3  and  C_4
REMARK    5  A    between atoms: C_7  and  C_8
REMARK    6  A    between atoms: C_12  and  O_13
REMARK                            x       y       z     vdW  Elec       q    Type
REMARK                         _______ _______ _______ _____ _____    ______ ____
ROOT
ATOM      1  C   UNL     1      45.185   4.002  11.484  0.00  0.00    +0.000 A 
ATOM      2  N   UNL     1      45.698   3.067  12.309  0.00  0.00    +0.000 NA
ATOM      3  C   UNL     1      46.396   3.495  13.395  0.00  0.00    +0.000 A 
ATOM      4  C   UNL     1      46.646   4.826  13.693  0.00  0.00    +0.000 A 
ATOM      5  C   UNL     1      46.086   5.786  12.853  0.00  0.00    +0.000 A 
ATOM      6  C   UNL     1      45.320   5.373  11.765  0.00  0.00    +0.000 A 
ENDROOT
BRANCH   4   7
ATOM      7  C   UNL     1      47.465   5.286  14.838  0.00  0.00    +0.000 C 
ATOM      8  N   UNL     1      47.132   4.867  16.100  0.00  0.00    +0.000 N 
ATOM      9  O   UNL     1      48.426   6.022  14.677  0.00  0.00    +0.000 OA
ATOM     10  H   UNL     1      46.356   4.272  16.344  0.00  0.00    +0.000 HD
ATOM     11  H   UNL     1      47.721   5.204  16.853  0.00  0.00    +0.000 HD
ENDBRANCH   4   7
BRANCH   1  12
ATOM     12  N   UNL     1      44.473   3.607  10.343  0.00  0.00    +0.000 N 
ATOM     13  H   UNL     1      44.319   2.608  10.451  0.00  0.00    +0.000 HD
BRANCH  12  15
ATOM     14  C   UNL     1      43.841   3.964   7.991  0.00  0.00    +0.000 C 
ATOM     15  C   UNL     1      44.984   3.995   9.022  0.00  0.00    +0.000 C 
BRANCH  15  16
ATOM     16  C   UNL     1      46.129   3.022   8.578  0.00  0.00    +0.000 C 
ATOM     17  C   UNL     1      46.872   3.503   7.313  0.00  0.00    +0.000 C 
ATOM     18  C   UNL     1      47.893   2.495   6.788  0.00  0.00    +0.000 C 
ATOM     19  C   UNL     1      47.265   1.124   6.589  0.00  0.00    +0.000 C 
ATOM     20  C   UNL     1      46.677   0.614   7.897  0.00  0.00    +0.000 C 
ATOM     21  C   UNL     1      45.616   1.578   8.437  0.00  0.00    +0.000 C 
ENDBRANCH  15  16
ENDBRANCH  12  15
ENDBRANCH   1  12
BRANCH   6  22
ATOM     22  O   UNL     1      44.730   6.310  10.958  0.00  0.00    +0.000 OA
ATOM     23  H   UNL     1      43.798   6.066  10.830  0.00  0.00    +0.000 HD
ENDBRANCH   6  22
TORSDOF 5
ENDMDL
MODEL 7
REMARK VINA RESULT:    -5.859      4.151      6.273
REMARK INTER + INTRA:          -7.660
REMARK INTER:                  -7.091
REMARK INTRA:                  -0.569
REMARK UNBOUND:                -0.261
REMARK  Name = 
REMARK  6 active torsions:
REMARK  status: ('A' for Active; 'I' for Inactive)
REMARK    1  A    between atoms: C_1  and  C_2
REMARK    2  A    between atoms: C_2  and  N_3
REMARK    3  A    between atoms: C_2  and  C_14
REMARK    4  A    between atoms: N_3  and  C_4
REMARK    5  A    between atoms: C_7  and  C_8
REMARK    6  A    between atoms: C_12  and  O_13
REMARK                            x       y       z     vdW  Elec       q    Type
REMARK                         _______ _______ _______ _____ _____    ______ ____
ROOT
ATOM      1  C   UNL     1      46.818   5.634  13.519  0.00  0.00    +0.000 A 
ATOM      2  N   UNL     1      46.047   6.692  13.194  0.00  0.00    +0.000 NA
ATOM      3  C   UNL     1      44.822   6.441  12.657  0.00  0.00    +0.000 A 
ATOM      4  C   UNL     1      44.328   5.175  12.388  0.00  0.00    +0.000 A 
ATOM      5  C   UNL     1      45.118   4.087  12.755  0.00  0.00    +0.000 A 
ATOM      6  C   UNL     1      46.353   4.318  13.357  0.00  0.00    +0.000 A 
ENDROOT
BRANCH   4   7
ATOM      7  C   UNL     1      43.023   4.907  11.739  0.00  0.00    +0.000 C 
ATOM      8  N   UNL     1      42.061   5.884  11.764  0.00  0.00    +0.000 N 
ATOM      9  O   UNL     1      42.795   3.845  11.183  0.00  0.00    +0.000 OA
ATOM     10  H   UNL     1      42.140   6.787  12.202  0.00  0.00    +0.000 HD
ATOM     11  H   UNL     1      41.185   5.660  11.305  0.00  0.00    +0.000 HD
ENDBRANCH   4   7
BRANCH   1  12
ATOM     12  N   UNL     1      48.094   5.845  14.059  0.00  0.00    +0.000 N 
ATOM     13  H   UNL     1      48.612   4.990  13.874  0.00  0.00    +0.000 HD
BRANCH  12  15
ATOM     14  C   UNL     1      49.244   7.456  15.522  0.00  0.00    +0.000 C 
ATOM     15  C   UNL     1      48.204   6.324  15.443  0.00  0.00    +0.000 C 
BRANCH  15  16
ATOM     16  C   UNL     1      48.624   5.149  16.391  0.00  0.00    +0.000 C 
ATOM     17  C   UNL     1      47.415   4.393  16.985  0.00  0.00    +0.000 C 
ATOM     18  C   UNL     1      47.807   3.340  18.020  0.00  0.00    +0.000 C 
ATOM     19  C   UNL     1      48.694   3.931  19.104  0.00  0.00    +0.000 C 
ATOM     20  C   UNL     1      49.952   4.532  18.492  0.00  0.00    +0.000 C 
ATOM     21  C   UNL     1      49.604   5.625  17.477  0.00  0.00    +0.000 C 
ENDBRANCH  15  16
ENDBRANCH  12  15
ENDBRANCH   1  12
BRANCH   6  22
ATOM     22  O   UNL     1      47.117   3.255  13.760  0.00  0.00    +0.000 OA
ATOM     23  H   UNL     1      46.555   2.639  14.259  0.00  0.00    +0.000 HD
ENDBRANCH   6  22
TORSDOF 5
ENDMDL
MODEL 8
REMARK VINA RESULT:    -5.789      3.371      5.585
REMARK INTER + INTRA:          -7.572
REMARK INTER:                  -7.165
REMARK INTRA:                  -0.407
REMARK UNBOUND:                -0.261
REMARK  Name = 
REMARK  6 active torsions:
REMARK  status: ('A' for Active; 'I' for Inactive)
REMARK    1  A    between atoms: C_1  and  C_2
REMARK    2  A    between atoms: C_2  and  N_3
REMARK    3  A    between atoms: C_2  and  C_14
REMARK    4  A    between atoms: N_3  and  C_4
REMARK    5  A    between atoms: C_7  and  C_8
REMARK    6  A    between atoms: C_12  and  O_13
REMARK                            x       y       z     vdW  Elec       q    Type
REMARK                         _______ _______ _______ _____ _____    ______ ____
ROOT
ATOM      1  C   UNL     1      46.505   5.473  13.638  0.00  0.00    +0.000 A 
ATOM      2  N   UNL     1      45.630   6.307  13.039  0.00  0.00    +0.000 NA
ATOM      3  C   UNL     1      44.741   5.769  12.161  0.00  0.00    +0.000 A 
ATOM      4  C   UNL     1      44.696   4.429  11.813  0.00  0.00    +0.000 A 
ATOM      5  C   UNL     1      45.582   3.569  12.459  0.00  0.00    +0.000 A 
ATOM      6  C   UNL     1      46.465   4.087  13.403  0.00  0.00    +0.000 A 
ENDROOT
BRANCH   4   7
ATOM      7  C   UNL     1      43.773   3.858  10.804  0.00  0.00    +0.000 C 
ATOM      8  N   UNL     1      43.747   4.407   9.548  0.00  0.00    +0.000 N 
ATOM      9  O   UNL     1      43.046   2.914  11.068  0.00  0.00    +0.000 OA
ATOM     10  H   UNL     1      44.294   5.191   9.229  0.00  0.00    +0.000 HD
ATOM     11  H   UNL     1      43.103   3.984   8.889  0.00  0.00    +0.000 HD
ENDBRANCH   4   7
BRANCH   1  12
ATOM     12  N   UNL     1      47.450   5.985  14.537  0.00  0.00    +0.000 N 
ATOM     13  H   UNL     1      46.968   6.052  15.429  0.00  0.00    +0.000 HD
BRANCH  12  15
ATOM     14  C   UNL     1      49.070   6.911  12.933  0.00  0.00    +0.000 C 
ATOM     15  C   UNL     1      48.194   7.195  14.166  0.00  0.00    +0.000 C 
BRANCH  15  16
ATOM     16  C   UNL     1      49.093   7.665  15.361  0.00  0.00    +0.000 C 
ATOM     17  C   UNL     1      49.482   6.512  16.311  0.00  0.00    +0.000 C 
ATOM     18  C   UNL     1      50.236   6.979  17.555  0.00  0.00    +0.000 C 
ATOM     19  C   UNL     1      49.478   8.080  18.281  0.00  0.00    +0.000 C 
ATOM     20  C   UNL     1      49.247   9.266  17.355  0.00  0.00    +0.000 C 
ATOM     21  C   UNL     1      48.456   8.848  16.111  0.00  0.00    +0.000 C 
ENDBRANCH  15  16
ENDBRANCH  12  15
ENDBRANCH   1  12
BRANCH   6  22
ATOM     22  O   UNL     1      47.309   3.243  14.074  0.00  0.00    +0.000 OA
ATOM     23  H   UNL     1      47.318   3.494  15.013  0.00  0.00    +0.000 HD
ENDBRANCH   6  22
TORSDOF 5
ENDMDL
MODEL 9
REMARK VINA RESULT:    -5.524      5.536      8.042
REMARK INTER + INTRA:          -7.238
REMARK INTER:                  -6.740
REMARK INTRA:                  -0.499
REMARK UNBOUND:                -0.261
REMARK  Name = 
REMARK  6 active torsions:
REMARK  status: ('A' for Active; 'I' for Inactive)
REMARK    1  A    between atoms: C_1  and  C_2
REMARK    2  A    between atoms: C_2  and  N_3
REMARK    3  A    between atoms: C_2  and  C_14
REMARK    4  A    between atoms: N_3  and  C_4
REMARK    5  A    between atoms: C_7  and  C_8
REMARK    6  A    between atoms: C_12  and  O_13
REMARK                            x       y       z     vdW  Elec       q    Type
REMARK                         _______ _______ _______ _____ _____    ______ ____
ROOT
ATOM      1  C   UNL     1      48.301   5.638  15.707  0.00  0.00    +0.000 A 
ATOM      2  N   UNL     1      49.482   6.267  15.869  0.00  0.00    +0.000 NA
ATOM      3  C   UNL     1      50.329   5.790  16.821  0.00  0.00    +0.000 A 
ATOM      4  C   UNL     1      50.045   4.723  17.660  0.00  0.00    +0.000 A 
ATOM      5  C   UNL     1      48.835   4.060  17.464  0.00  0.00    +0.000 A 
ATOM      6  C   UNL     1      47.976   4.495  16.458  0.00  0.00    +0.000 A 
ENDROOT
BRANCH   4   7
ATOM      7  C   UNL     1      50.939   4.250  18.742  0.00  0.00    +0.000 C 
ATOM      8  N   UNL     1      50.561   4.451  20.045  0.00  0.00    +0.000 N 
ATOM      9  O   UNL     1      51.993   3.687  18.496  0.00  0.00    +0.000 OA
ATOM     10  H   UNL     1      49.722   4.911  20.358  0.00  0.00    +0.000 HD
ATOM     11  H   UNL     1      51.201   4.108  20.753  0.00  0.00    +0.000 HD
ENDBRANCH   4   7
BRANCH   1  12
ATOM     12  N   UNL     1      47.390   6.106  14.749  0.00  0.00    +0.000 N 
ATOM     13  H   UNL     1      46.469   5.916  15.134  0.00  0.00    +0.000 HD
BRANCH  12  15
ATOM     14  C   UNL     1      48.132   6.840  12.520  0.00  0.00    +0.000 C 
ATOM     15  C   UNL     1      47.555   5.681  13.353  0.00  0.00    +0.000 C 
BRANCH  15  16
ATOM     16  C   UNL     1      46.176   5.233  12.758  0.00  0.00    +0.000 C 
ATOM     17  C   UNL     1      45.957   3.706  12.831  0.00  0.00    +0.000 C 
ATOM     18  C   UNL     1      44.683   3.241  12.127  0.00  0.00    +0.000 C 
ATOM     19  C   UNL     1      44.622   3.755  10.696  0.00  0.00    +0.000 C 
ATOM     20  C   UNL     1      44.686   5.276  10.674  0.00  0.00    +0.000 C 
ATOM     21  C   UNL     1      45.972   5.783  11.335  0.00  0.00    +0.000 C 
ENDBRANCH  15  16
ENDBRANCH  12  15
ENDBRANCH   1  12
BRANCH   6  22
ATOM     22  O   UNL     1      46.805   3.822  16.231  0.00  0.00    +0.000 OA
ATOM     23  H   UNL     1      47.002   3.020  15.719  0.00  0.00    +0.000 HD
ENDBRANCH   6  22
TORSDOF 5
ENDMDL
