MODEL 1
REMARK VINA RESULT:    -9.597      0.000      0.000
REMARK INTER + INTRA:         -12.163
REMARK INTER:                 -12.122
REMARK INTRA:                  -0.041
REMARK UNBOUND:                -0.041
REMARK  Name = 
REMARK  5 active torsions:
REMARK  status: ('A' for Active; 'I' for Inactive)
REMARK    1  A    between atoms: C_2  and  C_4
REMARK    2  A    between atoms: N_8  and  C_9
REMARK    3  A    between atoms: C_9  and  C_10
REMARK    4  A    between atoms: C_14  and  C_15
REMARK    5  A    between atoms: C_19  and  O_20
REMARK                            x       y       z     vdW  Elec       q    Type
REMARK                         _______ _______ _______ _____ _____    ______ ____
ROOT
ATOM      1  C   UNL     1      44.112   4.736  11.499  0.00  0.00    +0.000 C 
ATOM      2  C   UNL     1      42.814   5.032  12.233  0.00  0.00    +0.000 C 
ATOM      3  C   UNL     1      43.172   5.854  11.043  0.00  0.00    +0.000 C 
ENDROOT
BRANCH   1   8
ATOM      4  C   UNL     1      46.600   2.734   7.382  0.00  0.00    +0.000 A 
ATOM      5  C   UNL     1      46.390   4.060   7.742  0.00  0.00    +0.000 A 
ATOM      6  C   UNL     1      45.602   4.355   8.862  0.00  0.00    +0.000 A 
ATOM      7  C   UNL     1      45.046   3.318   9.607  0.00  0.00    +0.000 A 
ATOM      8  N   UNL     1      44.197   3.515  10.697  0.00  0.00    +0.000 N 
ATOM      9  N   UNL     1      45.264   2.027   9.281  0.00  0.00    +0.000 NA
ATOM     10  C   UNL     1      46.019   1.760   8.182  0.00  0.00    +0.000 A 
ATOM     11  H   UNL     1      43.987   2.614  11.115  0.00  0.00    +0.000 HD
BRANCH   4  13
ATOM     12  N   UNL     1      47.184   3.025   5.032  0.00  0.00    +0.000 N 
ATOM     13  C   UNL     1      47.357   2.309   6.185  0.00  0.00    +0.000 C 
ATOM     14  O   UNL     1      48.133   1.363   6.226  0.00  0.00    +0.000 OA
ATOM     15  H   UNL     1      47.775   2.764   4.253  0.00  0.00    +0.000 HD
ATOM     16  H   UNL     1      46.748   3.933   5.008  0.00  0.00    +0.000 HD
ENDBRANCH   4  13
ENDBRANCH   1   8
BRANCH   1  17
ATOM     17  C   UNL     1      45.444   5.282  12.003  0.00  0.00    +0.000 A 
ATOM     18  C   UNL     1      46.084   6.346  11.345  0.00  0.00    +0.000 A 
ATOM     19  C   UNL     1      47.168   7.005  11.921  0.00  0.00    +0.000 A 
ATOM     20  C   UNL     1      47.644   6.605  13.170  0.00  0.00    +0.000 A 
ATOM     21  C   UNL     1      47.072   5.514  13.841  0.00  0.00    +0.000 A 
ATOM     22  C   UNL     1      45.996   4.854  13.221  0.00  0.00    +0.000 A 
BRANCH  21  23
ATOM     23  C   UNL     1      47.500   5.109  15.191  0.00  0.00    +0.000 A 
ATOM     24  C   UNL     1      48.457   5.834  15.908  0.00  0.00    +0.000 A 
ATOM     25  N   UNL     1      48.848   5.562  17.179  0.00  0.00    +0.000 NA
ATOM     26  C   UNL     1      48.245   4.517  17.783  0.00  0.00    +0.000 A 
ATOM     27  C   UNL     1      47.282   3.733  17.168  0.00  0.00    +0.000 A 
ATOM     28  C   UNL     1      46.917   4.025  15.862  0.00  0.00    +0.000 A 
BRANCH  27  29
ATOM     29  O   UNL     1      46.663   2.692  17.791  0.00  0.00    +0.000 OA
ATOM     30  H   UNL     1      45.747   2.944  17.995  0.00  0.00    +0.000 HD
ENDBRANCH  27  29
ENDBRANCH  21  23
ENDBRANCH   1  17
TORSDOF 5
ENDMDL
MODEL 2
REMARK VINA RESULT:    -8.823      2.797      3.922
REMARK INTER + INTRA:         -11.185
REMARK INTER:                 -10.912
REMARK INTRA:                  -0.273
REMARK UNBOUND:                -0.041
REMARK  Name = 
REMARK  5 active torsions:
REMARK  status: ('A' for Active; 'I' for Inactive)
REMARK    1  A    between atoms: C_2  and  C_4
REMARK    2  A    between atoms: N_8  and  C_9
REMARK    3  A    between atoms: C_9  and  C_10
REMARK    4  A    between atoms: C_14  and  C_15
REMARK    5  A    between atoms: C_19  and  O_20
REMARK                            x       y       z     vdW  Elec       q    Type
REMARK                         _______ _______ _______ _____ _____    ______ ____
ROOT
ATOM      1  C   UNL     1      43.717   4.869  11.585  0.00  0.00    +0.000 C 
ATOM      2  C   UNL     1      42.339   5.318  12.045  0.00  0.00    +0.000 C 
ATOM      3  C   UNL     1      43.031   6.096  10.979  0.00  0.00    +0.000 C 
ENDROOT
BRANCH   1   8
ATOM      4  C   UNL     1      46.423   2.820   7.632  0.00  0.00    +0.000 A 
ATOM      5  C   UNL     1      46.228   4.148   7.988  0.00  0.00    +0.000 A 
ATOM      6  C   UNL     1      45.374   4.460   9.053  0.00  0.00    +0.000 A 
ATOM      7  C   UNL     1      44.737   3.436   9.750  0.00  0.00    +0.000 A 
ATOM      8  N   UNL     1      43.821   3.652  10.780  0.00  0.00    +0.000 N 
ATOM      9  N   UNL     1      44.939   2.141   9.428  0.00  0.00    +0.000 NA
ATOM     10  C   UNL     1      45.760   1.859   8.382  0.00  0.00    +0.000 A 
ATOM     11  H   UNL     1      43.557   2.755  11.176  0.00  0.00    +0.000 HD
BRANCH   4  13
ATOM     12  N   UNL     1      47.188   3.116   5.335  0.00  0.00    +0.000 N 
ATOM     13  C   UNL     1      47.248   2.379   6.486  0.00  0.00    +0.000 C 
ATOM     14  O   UNL     1      47.981   1.403   6.569  0.00  0.00    +0.000 OA
ATOM     15  H   UNL     1      47.823   2.842   4.597  0.00  0.00    +0.000 HD
ATOM     16  H   UNL     1      46.791   4.041   5.294  0.00  0.00    +0.000 HD
ENDBRANCH   4  13
ENDBRANCH   1   8
BRANCH   1  17
ATOM     17  C   UNL     1      44.971   5.246  12.366  0.00  0.00    +0.000 A 
ATOM     18  C   UNL     1      45.555   4.347  13.274  0.00  0.00    +0.000 A 
ATOM     19  C   UNL     1      46.819   4.580  13.813  0.00  0.00    +0.000 A 
ATOM     20  C   UNL     1      47.525   5.730  13.461  0.00  0.00    +0.000 A 
ATOM     21  C   UNL     1      46.961   6.684  12.600  0.00  0.00    +0.000 A 
ATOM     22  C   UNL     1      45.674   6.431  12.094  0.00  0.00    +0.000 A 
BRANCH  21  23
ATOM     23  C   UNL     1      47.705   7.873  12.149  0.00  0.00    +0.000 A 
ATOM     24  C   UNL     1      47.132   9.148  12.165  0.00  0.00    +0.000 A 
ATOM     25  N   UNL     1      47.776  10.296  11.833  0.00  0.00    +0.000 NA
ATOM     26  C   UNL     1      49.072  10.175  11.475  0.00  0.00    +0.000 A 
ATOM     27  C   UNL     1      49.740   8.962  11.428  0.00  0.00    +0.000 A 
ATOM     28  C   UNL     1      49.048   7.806  11.756  0.00  0.00    +0.000 A 
BRANCH  27  29
ATOM     29  O   UNL     1      51.054   8.851  11.086  0.00  0.00    +0.000 OA
ATOM     30  H   UNL     1      51.216   7.958  10.740  0.00  0.00    +0.000 HD
ENDBRANCH  27  29
ENDBRANCH  21  23
ENDBRANCH   1  17
TORSDOF 5
ENDMDL
MODEL 3
REMARK VINA RESULT:    -7.954      1.916      7.935
REMARK INTER + INTRA:         -10.088
REMARK INTER:                  -9.889
REMARK INTRA:                  -0.199
REMARK UNBOUND:                -0.041
REMARK  Name = 
REMARK  5 active torsions:
REMARK  status: ('A' for Active; 'I' for Inactive)
REMARK    1  A    between atoms: C_2  and  C_4
REMARK    2  A    between atoms: N_8  and  C_9
REMARK    3  A    between atoms: C_9  and  C_10
REMARK    4  A    between atoms: C_14  and  C_15
REMARK    5  A    between atoms: C_19  and  O_20
REMARK                            x       y       z     vdW  Elec       q    Type
REMARK                         _______ _______ _______ _____ _____    ______ ____
ROOT
ATOM      1  C   UNL     1      48.544   7.719  12.864  0.00  0.00    +0.000 C 
ATOM      2  C   UNL     1      49.716   7.489  11.923  0.00  0.00    +0.000 C 
ATOM      3  C   UNL     1      49.212   8.877  12.121  0.00  0.00    +0.000 C 
ENDROOT
BRANCH   1   8
ATOM      4  C   UNL     1      47.927   4.337  16.780  0.00  0.00    +0.000 A 
ATOM      5  C   UNL     1      47.287   4.406  15.549  0.00  0.00    +0.000 A 
ATOM      6  C   UNL     1      47.560   5.475  14.686  0.00  0.00    +0.000 A 
ATOM      7  C   UNL     1      48.480   6.450  15.066  0.00  0.00    +0.000 A 
ATOM      8  N   UNL     1      48.769   7.582  14.304  0.00  0.00    +0.000 N 
ATOM      9  N   UNL     1      49.127   6.379  16.249  0.00  0.00    +0.000 NA
ATOM     10  C   UNL     1      48.836   5.342  17.079  0.00  0.00    +0.000 A 
ATOM     11  H   UNL     1      49.519   8.097  14.754  0.00  0.00    +0.000 HD
BRANCH   4  13
ATOM     12  N   UNL     1      48.501   3.234  18.878  0.00  0.00    +0.000 N 
ATOM     13  C   UNL     1      47.667   3.293  17.794  0.00  0.00    +0.000 C 
ATOM     14  O   UNL     1      46.724   2.521  17.686  0.00  0.00    +0.000 OA
ATOM     15  H   UNL     1      48.251   2.566  19.596  0.00  0.00    +0.000 HD
ATOM     16  H   UNL     1      49.134   3.977  19.127  0.00  0.00    +0.000 HD
ENDBRANCH   4  13
ENDBRANCH   1   8
BRANCH   1  17
ATOM     17  C   UNL     1      47.108   7.499  12.403  0.00  0.00    +0.000 A 
ATOM     18  C   UNL     1      46.152   8.524  12.499  0.00  0.00    +0.000 A 
ATOM     19  C   UNL     1      44.912   8.420  11.871  0.00  0.00    +0.000 A 
ATOM     20  C   UNL     1      44.596   7.276  11.139  0.00  0.00    +0.000 A 
ATOM     21  C   UNL     1      45.496   6.203  11.058  0.00  0.00    +0.000 A 
ATOM     22  C   UNL     1      46.728   6.329  11.724  0.00  0.00    +0.000 A 
BRANCH  21  23
ATOM     23  C   UNL     1      45.227   5.012  10.235  0.00  0.00    +0.000 A 
ATOM     24  C   UNL     1      44.385   3.987  10.677  0.00  0.00    +0.000 A 
ATOM     25  N   UNL     1      44.036   2.897   9.949  0.00  0.00    +0.000 NA
ATOM     26  C   UNL     1      44.541   2.822   8.699  0.00  0.00    +0.000 A 
ATOM     27  C   UNL     1      45.383   3.781   8.159  0.00  0.00    +0.000 A 
ATOM     28  C   UNL     1      45.735   4.874   8.936  0.00  0.00    +0.000 A 
BRANCH  27  29
ATOM     29  O   UNL     1      45.873   3.708   6.890  0.00  0.00    +0.000 OA
ATOM     30  H   UNL     1      46.830   3.873   6.910  0.00  0.00    +0.000 HD
ENDBRANCH  27  29
ENDBRANCH  21  23
ENDBRANCH   1  17
TORSDOF 5
ENDMDL
MODEL 4
REMARK VINA RESULT:    -7.432      2.648      4.023
REMARK INTER + INTRA:          -9.429
REMARK INTER:                  -8.884
REMARK INTRA:                  -0.545
REMARK UNBOUND:                -0.041
REMARK  Name = 
REMARK  5 active torsions:
REMARK  status: ('A' for Active; 'I' for Inactive)
REMARK    1  A    between atoms: C_2  and  C_4
REMARK    2  A    between atoms: N_8  and  C_9
REMARK    3  A    between atoms: C_9  and  C_10
REMARK    4  A    between atoms: C_14  and  C_15
REMARK    5  A    between atoms: C_19  and  O_20
REMARK                            x       y       z     vdW  Elec       q    Type
REMARK                         _______ _______ _______ _____ _____    ______ ____
ROOT
ATOM      1  C   UNL     1      47.219   8.104  12.545  0.00  0.00    +0.000 C 
ATOM      2  C   UNL     1      46.038   8.896  13.084  0.00  0.00    +0.000 C 
ATOM      3  C   UNL     1      47.127   9.621  12.370  0.00  0.00    +0.000 C 
ENDROOT
BRANCH   1   8
ATOM      4  C   UNL     1      44.653   3.824  11.045  0.00  0.00    +0.000 A 
ATOM      5  C   UNL     1      45.016   4.249  12.317  0.00  0.00    +0.000 A 
ATOM      6  C   UNL     1      45.792   5.405  12.464  0.00  0.00    +0.000 A 
ATOM      7  C   UNL     1      46.184   6.122  11.336  0.00  0.00    +0.000 A 
ATOM      8  N   UNL     1      47.009   7.246  11.379  0.00  0.00    +0.000 N 
ATOM      9  N   UNL     1      45.817   5.732  10.097  0.00  0.00    +0.000 NA
ATOM     10  C   UNL     1      45.075   4.598   9.974  0.00  0.00    +0.000 A 
ATOM     11  H   UNL     1      47.087   7.631  10.443  0.00  0.00    +0.000 HD
BRANCH   4  13
ATOM     12  N   UNL     1      44.271   1.833   9.689  0.00  0.00    +0.000 N 
ATOM     13  C   UNL     1      43.894   2.586  10.768  0.00  0.00    +0.000 C 
ATOM     14  O   UNL     1      42.974   2.229  11.491  0.00  0.00    +0.000 OA
ATOM     15  H   UNL     1      43.790   0.951   9.572  0.00  0.00    +0.000 HD
ATOM     16  H   UNL     1      45.150   1.956   9.212  0.00  0.00    +0.000 HD
ENDBRANCH   4  13
ENDBRANCH   1   8
BRANCH   1  17
ATOM     17  C   UNL     1      48.379   7.704  13.451  0.00  0.00    +0.000 A 
ATOM     18  C   UNL     1      49.618   8.362  13.371  0.00  0.00    +0.000 A 
ATOM     19  C   UNL     1      50.601   8.173  14.341  0.00  0.00    +0.000 A 
ATOM     20  C   UNL     1      50.368   7.309  15.411  0.00  0.00    +0.000 A 
ATOM     21  C   UNL     1      49.168   6.590  15.505  0.00  0.00    +0.000 A 
ATOM     22  C   UNL     1      48.207   6.783  14.497  0.00  0.00    +0.000 A 
BRANCH  21  23
ATOM     23  C   UNL     1      48.858   5.725  16.656  0.00  0.00    +0.000 A 
ATOM     24  C   UNL     1      49.443   5.930  17.909  0.00  0.00    +0.000 A 
ATOM     25  N   UNL     1      49.154   5.220  19.029  0.00  0.00    +0.000 NA
ATOM     26  C   UNL     1      48.218   4.256  18.905  0.00  0.00    +0.000 A 
ATOM     27  C   UNL     1      47.572   3.969  17.712  0.00  0.00    +0.000 A 
ATOM     28  C   UNL     1      47.903   4.701  16.582  0.00  0.00    +0.000 A 
BRANCH  27  29
ATOM     29  O   UNL     1      46.614   3.008  17.599  0.00  0.00    +0.000 OA
ATOM     30  H   UNL     1      47.022   2.136  17.735  0.00  0.00    +0.000 HD
ENDBRANCH  27  29
ENDBRANCH  21  23
ENDBRANCH   1  17
TORSDOF 5
ENDMDL
MODEL 5
REMARK VINA RESULT:    -7.390      3.229      5.115
REMARK INTER + INTRA:          -9.375
REMARK INTER:                  -8.554
REMARK INTRA:                  -0.821
REMARK UNBOUND:                -0.041
REMARK  Name = 
REMARK  5 active torsions:
REMARK  status: ('A' for Active; 'I' for Inactive)
REMARK    1  A    between atoms: C_2  and  C_4
REMARK    2  A    between atoms: N_8  and  C_9
REMARK    3  A    between atoms: C_9  and  C_10
REMARK    4  A    between atoms: C_14  and  C_15
REMARK    5  A    between atoms: C_19  and  O_20
REMARK                            x       y       z     vdW  Elec       q    Type
REMARK                         _______ _______ _______ _____ _____    ______ ____
ROOT
ATOM      1  C   UNL     1      48.693   8.509  12.617  0.00  0.00    +0.000 C 
ATOM      2  C   UNL     1      48.485   9.883  12.003  0.00  0.00    +0.000 C 
ATOM      3  C   UNL     1      49.857   9.302  12.021  0.00  0.00    +0.000 C 
ENDROOT
BRANCH   1   8
ATOM      4  C   UNL     1      44.310   5.837  11.722  0.00  0.00    +0.000 A 
ATOM      5  C   UNL     1      44.633   6.703  12.759  0.00  0.00    +0.000 A 
ATOM      6  C   UNL     1      45.925   7.239  12.835  0.00  0.00    +0.000 A 
ATOM      7  C   UNL     1      46.868   6.906  11.866  0.00  0.00    +0.000 A 
ATOM      8  N   UNL     1      48.194   7.338  11.894  0.00  0.00    +0.000 N 
ATOM      9  N   UNL     1      46.558   6.086  10.840  0.00  0.00    +0.000 NA
ATOM     10  C   UNL     1      45.303   5.564  10.791  0.00  0.00    +0.000 A 
ATOM     11  H   UNL     1      48.658   7.028  11.046  0.00  0.00    +0.000 HD
BRANCH   4  13
ATOM     12  N   UNL     1      41.873   5.917  11.749  0.00  0.00    +0.000 N 
ATOM     13  C   UNL     1      43.002   5.162  11.580  0.00  0.00    +0.000 C 
ATOM     14  O   UNL     1      42.926   3.975  11.295  0.00  0.00    +0.000 OA
ATOM     15  H   UNL     1      40.994   5.450  11.565  0.00  0.00    +0.000 HD
ATOM     16  H   UNL     1      41.879   6.925  11.751  0.00  0.00    +0.000 HD
ENDBRANCH   4  13
ENDBRANCH   1   8
BRANCH   1  17
ATOM     17  C   UNL     1      48.837   8.333  14.125  0.00  0.00    +0.000 A 
ATOM     18  C   UNL     1      48.672   9.420  14.999  0.00  0.00    +0.000 A 
ATOM     19  C   UNL     1      48.566   9.233  16.376  0.00  0.00    +0.000 A 
ATOM     20  C   UNL     1      48.634   7.947  16.911  0.00  0.00    +0.000 A 
ATOM     21  C   UNL     1      48.852   6.835  16.085  0.00  0.00    +0.000 A 
ATOM     22  C   UNL     1      48.981   7.060  14.703  0.00  0.00    +0.000 A 
BRANCH  21  23
ATOM     23  C   UNL     1      48.858   5.457  16.605  0.00  0.00    +0.000 A 
ATOM     24  C   UNL     1      50.043   4.819  16.987  0.00  0.00    +0.000 A 
ATOM     25  N   UNL     1      50.119   3.582  17.538  0.00  0.00    +0.000 NA
ATOM     26  C   UNL     1      48.949   2.940  17.738  0.00  0.00    +0.000 A 
ATOM     27  C   UNL     1      47.717   3.479  17.401  0.00  0.00    +0.000 A 
ATOM     28  C   UNL     1      47.675   4.738  16.822  0.00  0.00    +0.000 A 
BRANCH  27  29
ATOM     29  O   UNL     1      46.538   2.833  17.624  0.00  0.00    +0.000 OA
ATOM     30  H   UNL     1      45.990   3.372  18.218  0.00  0.00    +0.000 HD
ENDBRANCH  27  29
ENDBRANCH  21  23
ENDBRANCH   1  17
TORSDOF 5
ENDMDL
MODEL 6
REMARK VINA RESULT:    -7.306      3.871      8.711
REMARK INTER + INTRA:          -9.269
REMARK INTER:                  -8.744
REMARK INTRA:                  -0.525
REMARK UNBOUND:                -0.041
REMARK  Name = 
REMARK  5 active torsions:
REMARK  status: ('A' for Active; 'I' for Inactive)
REMARK    1  A    between atoms: C_2  and  C_4
REMARK    2  A    between atoms: N_8  and  C_9
REMARK    3  A    between atoms: C_9  and  C_10
REMARK    4  A    between atoms: C_14  and  C_15
REMARK    5  A    between atoms: C_19  and  O_20
REMARK                            x       y       z     vdW  Elec       q    Type
REMARK                         _______ _______ _______ _____ _____    ______ ____
ROOT
ATOM      1  C   UNL     1      48.238   3.397  17.152  0.00  0.00    +0.000 C 
ATOM      2  C   UNL     1      47.931   3.541  18.634  0.00  0.00    +0.000 C 
ATOM      3  C   UNL     1      46.922   2.893  17.749  0.00  0.00    +0.000 C 
ENDROOT
BRANCH   1   8
ATOM      4  C   UNL     1      53.155   1.963  18.108  0.00  0.00    +0.000 A 
ATOM      5  C   UNL     1      52.516   3.175  18.341  0.00  0.00    +0.000 A 
ATOM      6  C   UNL     1      51.195   3.354  17.909  0.00  0.00    +0.000 A 
ATOM      7  C   UNL     1      50.534   2.313  17.260  0.00  0.00    +0.000 A 
ATOM      8  N   UNL     1      49.244   2.419  16.739  0.00  0.00    +0.000 N 
ATOM      9  N   UNL     1      51.137   1.124  17.051  0.00  0.00    +0.000 NA
ATOM     10  C   UNL     1      52.424   0.974  17.465  0.00  0.00    +0.000 A 
ATOM     11  H   UNL     1      48.959   1.511  16.386  0.00  0.00    +0.000 HD
BRANCH   4  13
ATOM     12  N   UNL     1      54.817   1.111  19.675  0.00  0.00    +0.000 N 
ATOM     13  C   UNL     1      54.564   1.687  18.460  0.00  0.00    +0.000 C 
ATOM     14  O   UNL     1      55.475   1.940  17.683  0.00  0.00    +0.000 OA
ATOM     15  H   UNL     1      55.780   0.857  19.855  0.00  0.00    +0.000 HD
ATOM     16  H   UNL     1      54.103   0.677  20.238  0.00  0.00    +0.000 HD
ENDBRANCH   4  13
ENDBRANCH   1   8
BRANCH   1  17
ATOM     17  C   UNL     1      48.017   4.556  16.186  0.00  0.00    +0.000 A 
ATOM     18  C   UNL     1      48.786   5.729  16.275  0.00  0.00    +0.000 A 
ATOM     19  C   UNL     1      48.762   6.689  15.265  0.00  0.00    +0.000 A 
ATOM     20  C   UNL     1      47.954   6.501  14.144  0.00  0.00    +0.000 A 
ATOM     21  C   UNL     1      47.127   5.373  14.035  0.00  0.00    +0.000 A 
ATOM     22  C   UNL     1      47.156   4.435  15.083  0.00  0.00    +0.000 A 
BRANCH  21  23
ATOM     23  C   UNL     1      46.316   5.105  12.835  0.00  0.00    +0.000 A 
ATOM     24  C   UNL     1      46.295   5.986  11.749  0.00  0.00    +0.000 A 
ATOM     25  N   UNL     1      45.630   5.773  10.586  0.00  0.00    +0.000 NA
ATOM     26  C   UNL     1      44.954   4.608  10.485  0.00  0.00    +0.000 A 
ATOM     27  C   UNL     1      44.910   3.662  11.497  0.00  0.00    +0.000 A 
ATOM     28  C   UNL     1      45.586   3.919  12.680  0.00  0.00    +0.000 A 
BRANCH  27  29
ATOM     29  O   UNL     1      44.243   2.480  11.379  0.00  0.00    +0.000 OA
ATOM     30  H   UNL     1      44.541   2.027  10.573  0.00  0.00    +0.000 HD
ENDBRANCH  27  29
ENDBRANCH  21  23
ENDBRANCH   1  17
TORSDOF 5
ENDMDL
MODEL 7
REMARK VINA RESULT:    -7.132      3.199      7.607
REMARK INTER + INTRA:          -9.049
REMARK INTER:                  -8.356
REMARK INTRA:                  -0.693
REMARK UNBOUND:                -0.041
REMARK  Name = 
REMARK  5 active torsions:
REMARK  status: ('A' for Active; 'I' for Inactive)
REMARK    1  A    between atoms: C_2  and  C_4
REMARK    2  A    between atoms: N_8  and  C_9
REMARK    3  A    between atoms: C_9  and  C_10
REMARK    4  A    between atoms: C_14  and  C_15
REMARK    5  A    between atoms: C_19  and  O_20
REMARK                            x       y       z     vdW  Elec       q    Type
REMARK                         _______ _______ _______ _____ _____    ______ ____
ROOT
ATOM      1  C   UNL     1      44.995   7.738  11.962  0.00  0.00    +0.000 C 
ATOM      2  C   UNL     1      45.134   8.702  10.794  0.00  0.00    +0.000 C 
ATOM      3  C   UNL     1      43.843   8.652  11.537  0.00  0.00    +0.000 C 
ENDROOT
BRANCH   1   8
ATOM      4  C   UNL     1      49.817   8.020  13.915  0.00  0.00    +0.000 A 
ATOM      5  C   UNL     1      49.342   7.337  12.803  0.00  0.00    +0.000 A 
ATOM      6  C   UNL     1      47.969   7.338  12.526  0.00  0.00    +0.000 A 
ATOM      7  C   UNL     1      47.096   8.032  13.361  0.00  0.00    +0.000 A 
ATOM      8  N   UNL     1      45.710   8.038  13.203  0.00  0.00    +0.000 N 
ATOM      9  N   UNL     1      47.551   8.720  14.430  0.00  0.00    +0.000 NA
ATOM     10  C   UNL     1      48.885   8.695  14.691  0.00  0.00    +0.000 A 
ATOM     11  H   UNL     1      45.306   8.671  13.885  0.00  0.00    +0.000 HD
BRANCH   4  13
ATOM     12  N   UNL     1      51.615   7.149  15.314  0.00  0.00    +0.000 N 
ATOM     13  C   UNL     1      51.233   8.032  14.340  0.00  0.00    +0.000 C 
ATOM     14  O   UNL     1      52.046   8.787  13.823  0.00  0.00    +0.000 OA
ATOM     15  H   UNL     1      52.604   7.121  15.526  0.00  0.00    +0.000 HD
ATOM     16  H   UNL     1      51.051   6.364  15.597  0.00  0.00    +0.000 HD
ENDBRANCH   4  13
ENDBRANCH   1   8
BRANCH   1  17
ATOM     17  C   UNL     1      44.667   6.267  11.735  0.00  0.00    +0.000 A 
ATOM     18  C   UNL     1      43.622   5.642  12.437  0.00  0.00    +0.000 A 
ATOM     19  C   UNL     1      43.160   4.378  12.074  0.00  0.00    +0.000 A 
ATOM     20  C   UNL     1      43.745   3.704  11.001  0.00  0.00    +0.000 A 
ATOM     21  C   UNL     1      44.825   4.264  10.304  0.00  0.00    +0.000 A 
ATOM     22  C   UNL     1      45.285   5.529  10.712  0.00  0.00    +0.000 A 
BRANCH  21  23
ATOM     23  C   UNL     1      45.420   3.615   9.123  0.00  0.00    +0.000 A 
ATOM     24  C   UNL     1      45.889   4.356   8.034  0.00  0.00    +0.000 A 
ATOM     25  N   UNL     1      46.510   3.835   6.946  0.00  0.00    +0.000 NA
ATOM     26  C   UNL     1      46.691   2.497   6.941  0.00  0.00    +0.000 A 
ATOM     27  C   UNL     1      46.269   1.667   7.968  0.00  0.00    +0.000 A 
ATOM     28  C   UNL     1      45.622   2.229   9.057  0.00  0.00    +0.000 A 
BRANCH  27  29
ATOM     29  O   UNL     1      46.474   0.321   7.965  0.00  0.00    +0.000 OA
ATOM     30  H   UNL     1      47.396   0.140   8.211  0.00  0.00    +0.000 HD
ENDBRANCH  27  29
ENDBRANCH  21  23
ENDBRANCH   1  17
TORSDOF 5
ENDMDL
MODEL 8
REMARK VINA RESULT:    -6.697      4.689      6.708
REMARK INTER + INTRA:          -8.500
REMARK INTER:                  -7.748
REMARK INTRA:                  -0.752
REMARK UNBOUND:                -0.041
REMARK  Name = 
REMARK  5 active torsions:
REMARK  status: ('A' for Active; 'I' for Inactive)
REMARK    1  A    between atoms: C_2  and  C_4
REMARK    2  A    between atoms: N_8  and  C_9
REMARK    3  A    between atoms: C_9  and  C_10
REMARK    4  A    between atoms: C_14  and  C_15
REMARK    5  A    between atoms: C_19  and  O_20
REMARK                            x       y       z     vdW  Elec       q    Type
REMARK                         _______ _______ _______ _____ _____    ______ ____
ROOT
ATOM      1  C   UNL     1      47.734   8.386  13.709  0.00  0.00    +0.000 C 
ATOM      2  C   UNL     1      48.580   7.532  14.640  0.00  0.00    +0.000 C 
ATOM      3  C   UNL     1      48.173   8.895  15.084  0.00  0.00    +0.000 C 
ENDROOT
BRANCH   1   8
ATOM      4  C   UNL     1      44.725   5.139  10.962  0.00  0.00    +0.000 A 
ATOM      5  C   UNL     1      46.016   5.587  10.713  0.00  0.00    +0.000 A 
ATOM      6  C   UNL     1      46.591   6.542  11.560  0.00  0.00    +0.000 A 
ATOM      7  C   UNL     1      45.868   7.025  12.649  0.00  0.00    +0.000 A 
ATOM      8  N   UNL     1      46.332   8.021  13.508  0.00  0.00    +0.000 N 
ATOM      9  N   UNL     1      44.622   6.577  12.914  0.00  0.00    +0.000 NA
ATOM     10  C   UNL     1      44.075   5.661  12.071  0.00  0.00    +0.000 A 
ATOM     11  H   UNL     1      45.660   8.143  14.260  0.00  0.00    +0.000 HD
BRANCH   4  13
ATOM     12  N   UNL     1      44.051   4.379   8.745  0.00  0.00    +0.000 N 
ATOM     13  C   UNL     1      43.996   4.185  10.098  0.00  0.00    +0.000 C 
ATOM     14  O   UNL     1      43.383   3.238  10.572  0.00  0.00    +0.000 OA
ATOM     15  H   UNL     1      43.614   3.665   8.175  0.00  0.00    +0.000 HD
ATOM     16  H   UNL     1      44.720   4.989   8.302  0.00  0.00    +0.000 HD
ENDBRANCH   4  13
ENDBRANCH   1   8
BRANCH   1  17
ATOM     17  C   UNL     1      48.371   9.184  12.577  0.00  0.00    +0.000 A 
ATOM     18  C   UNL     1      47.882  10.453  12.222  0.00  0.00    +0.000 A 
ATOM     19  C   UNL     1      48.592  11.287  11.360  0.00  0.00    +0.000 A 
ATOM     20  C   UNL     1      49.806  10.862  10.823  0.00  0.00    +0.000 A 
ATOM     21  C   UNL     1      50.309   9.583  11.104  0.00  0.00    +0.000 A 
ATOM     22  C   UNL     1      49.557   8.756  11.956  0.00  0.00    +0.000 A 
BRANCH  21  23
ATOM     23  C   UNL     1      51.621   9.128  10.613  0.00  0.00    +0.000 A 
ATOM     24  C   UNL     1      52.460   9.966   9.871  0.00  0.00    +0.000 A 
ATOM     25  N   UNL     1      53.707   9.641   9.447  0.00  0.00    +0.000 NA
ATOM     26  C   UNL     1      54.158   8.415   9.789  0.00  0.00    +0.000 A 
ATOM     27  C   UNL     1      53.413   7.507  10.524  0.00  0.00    +0.000 A 
ATOM     28  C   UNL     1      52.135   7.863  10.927  0.00  0.00    +0.000 A 
BRANCH  27  29
ATOM     29  O   UNL     1      53.883   6.279  10.883  0.00  0.00    +0.000 OA
ATOM     30  H   UNL     1      54.842   6.250  10.727  0.00  0.00    +0.000 HD
ENDBRANCH  27  29
ENDBRANCH  21  23
ENDBRANCH   1  17
TORSDOF 5
ENDMDL
