MODEL 1
REMARK VINA RESULT:    -8.964      0.000      0.000
REMARK INTER + INTRA:         -12.982
REMARK INTER:                 -12.108
REMARK INTRA:                  -0.874
REMARK UNBOUND:                -0.874
REMARK  Name = 
REMARK  6 active torsions:
REMARK  status: ('A' for Active; 'I' for Inactive)
REMARK    1  A    between atoms: C_2  and  C_20
REMARK    2  A    between atoms: N_3  and  C_4
REMARK    3  A    between atoms: C_4  and  C_5
REMARK    4  A    between atoms: C_8  and  C_9
REMARK    5  A    between atoms: C_9  and  N_10
REMARK    6  A    between atoms: C_11  and  C_13
REMARK                            x       y       z     vdW  Elec       q    Type
REMARK                         _______ _______ _______ _____ _____    ______ ____
ROOT
ATOM      1  C   UNL     1      45.943   4.396  14.685  0.00  0.00    +0.000 C 
ENDROOT
BRANCH   1   2
ATOM      2  C   UNL     1      46.095   4.850  13.224  0.00  0.00    +0.000 C 
ATOM      3  C   UNL     1      45.993   3.685  12.219  0.00  0.00    +0.000 C 
ATOM      4  C   UNL     1      44.567   3.172  12.012  0.00  0.00    +0.000 C 
ATOM      5  C   UNL     1      43.559   4.288  11.690  0.00  0.00    +0.000 C 
ATOM      6  C   UNL     1      43.648   5.394  12.753  0.00  0.00    +0.000 C 
ATOM      7  C   UNL     1      45.066   5.945  12.911  0.00  0.00    +0.000 C 
BRANCH   5   8
ATOM      8  C   UNL     1      43.737   4.884  10.278  0.00  0.00    +0.000 C 
BRANCH   8   9
ATOM      9  N   UNL     1      44.195   3.919   9.305  0.00  0.00    +0.000 N 
ATOM     10  C   UNL     1      45.289   4.118   8.493  0.00  0.00    +0.000 C 
ATOM     11  O   UNL     1      45.961   5.145   8.490  0.00  0.00    +0.000 OA
ATOM     12  H   UNL     1      43.740   3.012   9.229  0.00  0.00    +0.000 HD
BRANCH  10  13
ATOM     13  C   UNL     1      45.588   2.923   7.573  0.00  0.00    +0.000 C 
ATOM     14  C   UNL     1      45.931   1.684   8.385  0.00  0.00    +0.000 C 
ATOM     15  C   UNL     1      46.953   0.984   7.526  0.00  0.00    +0.000 C 
ATOM     16  C   UNL     1      47.673   2.140   6.873  0.00  0.00    +0.000 C 
ATOM     17  O   UNL     1      46.702   3.177   6.693  0.00  0.00    +0.000 OA
ENDBRANCH  10  13
ENDBRANCH   8   9
ENDBRANCH   5   8
ENDBRANCH   1   2
BRANCH   1  20
ATOM     18  O   UNL     1      46.573   3.261  17.205  0.00  0.00    +0.000 OA
ATOM     19  C   UNL     1      47.394   3.986  16.650  0.00  0.00    +0.000 C 
ATOM     20  N   UNL     1      47.150   4.590  15.446  0.00  0.00    +0.000 N 
ATOM     21  H   UNL     1      47.886   5.120  14.992  0.00  0.00    +0.000 HD
BRANCH  19  22
ATOM     22  C   UNL     1      48.688   4.297  17.264  0.00  0.00    +0.000 A 
ATOM     23  C   UNL     1      48.885   5.519  17.892  0.00  0.00    +0.000 A 
ATOM     24  S   UNL     1      50.457   5.715  18.523  0.00  0.00    +0.000 S 
ATOM     25  C   UNL     1      50.915   4.157  18.017  0.00  0.00    +0.000 A 
ATOM     26  N   UNL     1      52.162   3.676  18.273  0.00  0.00    +0.000 NA
ATOM     27  C   UNL     1      52.359   2.467  17.868  0.00  0.00    +0.000 A 
ATOM     28  N   UNL     1      51.429   1.695  17.224  0.00  0.00    +0.000 N 
ATOM     29  C   UNL     1      50.182   2.160  16.885  0.00  0.00    +0.000 A 
ATOM     30  O   UNL     1      49.422   1.481  16.206  0.00  0.00    +0.000 OA
ATOM     31  C   UNL     1      49.892   3.504  17.357  0.00  0.00    +0.000 A 
ATOM     32  H   UNL     1      51.655   0.763  16.911  0.00  0.00    +0.000 HD
ENDBRANCH  19  22
ENDBRANCH   1  20
TORSDOF 6
ENDMDL
MODEL 2
REMARK VINA RESULT:    -7.796      2.191      2.634
REMARK INTER + INTRA:         -11.405
REMARK INTER:                 -10.601
REMARK INTRA:                  -0.803
REMARK UNBOUND:                -0.874
REMARK  Name = 
REMARK  6 active torsions:
REMARK  status: ('A' for Active; 'I' for Inactive)
REMARK    1  A    between atoms: C_2  and  C_20
REMARK    2  A    between atoms: N_3  and  C_4
REMARK    3  A    between atoms: C_4  and  C_5
REMARK    4  A    between atoms: C_8  and  C_9
REMARK    5  A    between atoms: C_9  and  N_10
REMARK    6  A    between atoms: C_11  and  C_13
REMARK                            x       y       z     vdW  Elec       q    Type
REMARK                         _______ _______ _______ _____ _____    ______ ____
ROOT
ATOM      1  C   UNL     1      46.201   3.865  14.379  0.00  0.00    +0.000 C 
ENDROOT
BRANCH   1   2
ATOM      2  C   UNL     1      46.215   4.376  12.928  0.00  0.00    +0.000 C 
ATOM      3  C   UNL     1      45.647   3.350  11.925  0.00  0.00    +0.000 C 
ATOM      4  C   UNL     1      44.123   3.225  11.968  0.00  0.00    +0.000 C 
ATOM      5  C   UNL     1      43.397   4.577  11.869  0.00  0.00    +0.000 C 
ATOM      6  C   UNL     1      43.947   5.543  12.929  0.00  0.00    +0.000 C 
ATOM      7  C   UNL     1      45.465   5.712  12.841  0.00  0.00    +0.000 C 
BRANCH   5   8
ATOM      8  C   UNL     1      43.481   5.213  10.466  0.00  0.00    +0.000 C 
BRANCH   8   9
ATOM      9  N   UNL     1      43.943   4.297   9.450  0.00  0.00    +0.000 N 
ATOM     10  C   UNL     1      45.126   4.456   8.763  0.00  0.00    +0.000 C 
ATOM     11  O   UNL     1      45.886   5.407   8.920  0.00  0.00    +0.000 OA
ATOM     12  H   UNL     1      43.418   3.450   9.245  0.00  0.00    +0.000 HD
BRANCH  10  13
ATOM     13  C   UNL     1      45.405   3.323   7.762  0.00  0.00    +0.000 C 
ATOM     14  C   UNL     1      45.851   2.059   8.481  0.00  0.00    +0.000 C 
ATOM     15  C   UNL     1      46.836   1.447   7.518  0.00  0.00    +0.000 C 
ATOM     16  C   UNL     1      47.464   2.663   6.881  0.00  0.00    +0.000 C 
ATOM     17  O   UNL     1      46.444   3.667   6.823  0.00  0.00    +0.000 OA
ENDBRANCH  10  13
ENDBRANCH   8   9
ENDBRANCH   5   8
ENDBRANCH   1   2
BRANCH   1  20
ATOM     18  O   UNL     1      47.323   3.231  16.904  0.00  0.00    +0.000 OA
ATOM     19  C   UNL     1      47.410   4.380  16.478  0.00  0.00    +0.000 C 
ATOM     20  N   UNL     1      46.870   4.766  15.281  0.00  0.00    +0.000 N 
ATOM     21  H   UNL     1      47.032   5.707  14.938  0.00  0.00    +0.000 HD
BRANCH  19  22
ATOM     22  C   UNL     1      48.065   5.440  17.250  0.00  0.00    +0.000 A 
ATOM     23  C   UNL     1      47.913   5.492  18.629  0.00  0.00    +0.000 A 
ATOM     24  S   UNL     1      48.721   6.807  19.354  0.00  0.00    +0.000 S 
ATOM     25  C   UNL     1      49.337   7.327  17.857  0.00  0.00    +0.000 A 
ATOM     26  N   UNL     1      50.150   8.415  17.773  0.00  0.00    +0.000 NA
ATOM     27  C   UNL     1      50.575   8.672  16.582  0.00  0.00    +0.000 A 
ATOM     28  N   UNL     1      50.259   7.946  15.464  0.00  0.00    +0.000 N 
ATOM     29  C   UNL     1      49.391   6.882  15.489  0.00  0.00    +0.000 A 
ATOM     30  O   UNL     1      49.041   6.334  14.451  0.00  0.00    +0.000 OA
ATOM     31  C   UNL     1      48.916   6.523  16.814  0.00  0.00    +0.000 A 
ATOM     32  H   UNL     1      50.606   8.214  14.557  0.00  0.00    +0.000 HD
ENDBRANCH  19  22
ENDBRANCH   1  20
TORSDOF 6
ENDMDL
MODEL 3
REMARK VINA RESULT:    -7.628      2.325      3.030
REMARK INTER + INTRA:         -11.179
REMARK INTER:                 -10.447
REMARK INTRA:                  -0.731
REMARK UNBOUND:                -0.874
REMARK  Name = 
REMARK  6 active torsions:
REMARK  status: ('A' for Active; 'I' for Inactive)
REMARK    1  A    between atoms: C_2  and  C_20
REMARK    2  A    between atoms: N_3  and  C_4
REMARK    3  A    between atoms: C_4  and  C_5
REMARK    4  A    between atoms: C_8  and  C_9
REMARK    5  A    between atoms: C_9  and  N_10
REMARK    6  A    between atoms: C_11  and  C_13
REMARK                            x       y       z     vdW  Elec       q    Type
REMARK                         _______ _______ _______ _____ _____    ______ ____
ROOT
ATOM      1  C   UNL     1      46.436   4.303  14.393  0.00  0.00    +0.000 C 
ENDROOT
BRANCH   1   2
ATOM      2  C   UNL     1      46.348   4.639  12.895  0.00  0.00    +0.000 C 
ATOM      3  C   UNL     1      45.671   3.527  12.069  0.00  0.00    +0.000 C 
ATOM      4  C   UNL     1      44.153   3.466  12.243  0.00  0.00    +0.000 C 
ATOM      5  C   UNL     1      43.461   4.824  12.038  0.00  0.00    +0.000 C 
ATOM      6  C   UNL     1      44.123   5.886  12.930  0.00  0.00    +0.000 C 
ATOM      7  C   UNL     1      45.632   5.984  12.706  0.00  0.00    +0.000 C 
BRANCH   5   8
ATOM      8  C   UNL     1      43.450   5.288  10.567  0.00  0.00    +0.000 C 
BRANCH   8   9
ATOM      9  N   UNL     1      43.825   4.249   9.638  0.00  0.00    +0.000 N 
ATOM     10  C   UNL     1      44.934   4.321   8.823  0.00  0.00    +0.000 C 
ATOM     11  O   UNL     1      45.690   5.286   8.781  0.00  0.00    +0.000 OA
ATOM     12  H   UNL     1      43.296   3.381   9.597  0.00  0.00    +0.000 HD
BRANCH  10  13
ATOM     13  C   UNL     1      45.131   3.067   7.955  0.00  0.00    +0.000 C 
ATOM     14  C   UNL     1      45.482   1.861   8.812  0.00  0.00    +0.000 C 
ATOM     15  C   UNL     1      46.421   1.077   7.932  0.00  0.00    +0.000 C 
ATOM     16  C   UNL     1      47.138   2.167   7.172  0.00  0.00    +0.000 C 
ATOM     17  O   UNL     1      46.195   3.230   6.994  0.00  0.00    +0.000 OA
ENDBRANCH  10  13
ENDBRANCH   8   9
ENDBRANCH   5   8
ENDBRANCH   1   2
BRANCH   1  20
ATOM     18  O   UNL     1      48.361   3.825  16.419  0.00  0.00    +0.000 OA
ATOM     19  C   UNL     1      48.116   4.980  16.082  0.00  0.00    +0.000 C 
ATOM     20  N   UNL     1      47.182   5.290  15.132  0.00  0.00    +0.000 N 
ATOM     21  H   UNL     1      47.067   6.253  14.835  0.00  0.00    +0.000 HD
BRANCH  19  22
ATOM     22  C   UNL     1      48.781   6.124  16.714  0.00  0.00    +0.000 A 
ATOM     23  C   UNL     1      49.844   6.749  16.077  0.00  0.00    +0.000 A 
ATOM     24  S   UNL     1      50.510   8.039  16.970  0.00  0.00    +0.000 S 
ATOM     25  C   UNL     1      49.374   7.836  18.219  0.00  0.00    +0.000 A 
ATOM     26  N   UNL     1      49.373   8.654  19.306  0.00  0.00    +0.000 NA
ATOM     27  C   UNL     1      48.432   8.411  20.154  0.00  0.00    +0.000 A 
ATOM     28  N   UNL     1      47.496   7.420  20.022  0.00  0.00    +0.000 N 
ATOM     29  C   UNL     1      47.498   6.528  18.978  0.00  0.00    +0.000 A 
ATOM     30  O   UNL     1      46.718   5.583  18.958  0.00  0.00    +0.000 OA
ATOM     31  C   UNL     1      48.512   6.784  17.970  0.00  0.00    +0.000 A 
ATOM     32  H   UNL     1      46.800   7.266  20.736  0.00  0.00    +0.000 HD
ENDBRANCH  19  22
ENDBRANCH   1  20
TORSDOF 6
ENDMDL
MODEL 4
REMARK VINA RESULT:    -7.598      2.112      2.597
REMARK INTER + INTRA:         -11.138
REMARK INTER:                 -10.433
REMARK INTRA:                  -0.705
REMARK UNBOUND:                -0.874
REMARK  Name = 
REMARK  6 active torsions:
REMARK  status: ('A' for Active; 'I' for Inactive)
REMARK    1  A    between atoms: C_2  and  C_20
REMARK    2  A    between atoms: N_3  and  C_4
REMARK    3  A    between atoms: C_4  and  C_5
REMARK    4  A    between atoms: C_8  and  C_9
REMARK    5  A    between atoms: C_9  and  N_10
REMARK    6  A    between atoms: C_11  and  C_13
REMARK                            x       y       z     vdW  Elec       q    Type
REMARK                         _______ _______ _______ _____ _____    ______ ____
ROOT
ATOM      1  C   UNL     1      47.013   6.805  13.057  0.00  0.00    +0.000 C 
ENDROOT
BRANCH   1   2
ATOM      2  C   UNL     1      46.472   5.525  12.398  0.00  0.00    +0.000 C 
ATOM      3  C   UNL     1      45.328   4.873  13.201  0.00  0.00    +0.000 C 
ATOM      4  C   UNL     1      43.993   5.612  13.084  0.00  0.00    +0.000 C 
ATOM      5  C   UNL     1      43.577   5.892  11.630  0.00  0.00    +0.000 C 
ATOM      6  C   UNL     1      44.721   6.602  10.888  0.00  0.00    +0.000 C 
ATOM      7  C   UNL     1      46.037   5.827  10.957  0.00  0.00    +0.000 C 
BRANCH   5   8
ATOM      8  C   UNL     1      43.143   4.626  10.864  0.00  0.00    +0.000 C 
BRANCH   8   9
ATOM      9  N   UNL     1      43.836   4.453   9.609  0.00  0.00    +0.000 N 
ATOM     10  C   UNL     1      44.483   3.291   9.251  0.00  0.00    +0.000 C 
ATOM     11  O   UNL     1      44.566   2.303   9.974  0.00  0.00    +0.000 OA
ATOM     12  H   UNL     1      43.817   5.188   8.907  0.00  0.00    +0.000 HD
BRANCH  10  13
ATOM     13  C   UNL     1      45.108   3.352   7.847  0.00  0.00    +0.000 C 
ATOM     14  C   UNL     1      46.011   2.153   7.601  0.00  0.00    +0.000 C 
ATOM     15  C   UNL     1      47.107   2.722   6.737  0.00  0.00    +0.000 C 
ATOM     16  C   UNL     1      47.227   4.135   7.255  0.00  0.00    +0.000 C 
ATOM     17  O   UNL     1      45.913   4.535   7.659  0.00  0.00    +0.000 OA
ENDBRANCH  10  13
ENDBRANCH   8   9
ENDBRANCH   5   8
ENDBRANCH   1   2
BRANCH   1  20
ATOM     18  O   UNL     1      49.669   6.942  14.037  0.00  0.00    +0.000 OA
ATOM     19  C   UNL     1      48.753   6.688  14.814  0.00  0.00    +0.000 C 
ATOM     20  N   UNL     1      47.450   6.580  14.410  0.00  0.00    +0.000 N 
ATOM     21  H   UNL     1      46.720   6.442  15.100  0.00  0.00    +0.000 HD
BRANCH  19  22
ATOM     22  C   UNL     1      48.999   6.436  16.238  0.00  0.00    +0.000 A 
ATOM     23  C   UNL     1      49.576   7.419  17.029  0.00  0.00    +0.000 A 
ATOM     24  S   UNL     1      49.811   6.939  18.648  0.00  0.00    +0.000 S 
ATOM     25  C   UNL     1      49.110   5.418  18.358  0.00  0.00    +0.000 A 
ATOM     26  N   UNL     1      48.976   4.505  19.359  0.00  0.00    +0.000 NA
ATOM     27  C   UNL     1      48.391   3.411  19.007  0.00  0.00    +0.000 A 
ATOM     28  N   UNL     1      47.934   3.138  17.744  0.00  0.00    +0.000 N 
ATOM     29  C   UNL     1      48.107   3.999  16.688  0.00  0.00    +0.000 A 
ATOM     30  O   UNL     1      47.790   3.669  15.552  0.00  0.00    +0.000 OA
ATOM     31  C   UNL     1      48.722   5.268  17.040  0.00  0.00    +0.000 A 
ATOM     32  H   UNL     1      47.507   2.251  17.528  0.00  0.00    +0.000 HD
ENDBRANCH  19  22
ENDBRANCH   1  20
TORSDOF 6
ENDMDL
MODEL 5
REMARK VINA RESULT:    -6.958      2.141      2.876
REMARK INTER + INTRA:         -10.272
REMARK INTER:                  -9.393
REMARK INTRA:                  -0.880
REMARK UNBOUND:                -0.874
REMARK  Name = 
REMARK  6 active torsions:
REMARK  status: ('A' for Active; 'I' for Inactive)
REMARK    1  A    between atoms: C_2  and  C_20
REMARK    2  A    between atoms: N_3  and  C_4
REMARK    3  A    between atoms: C_4  and  C_5
REMARK    4  A    between atoms: C_8  and  C_9
REMARK    5  A    between atoms: C_9  and  N_10
REMARK    6  A    between atoms: C_11  and  C_13
REMARK                            x       y       z     vdW  Elec       q    Type
REMARK                         _______ _______ _______ _____ _____    ______ ____
ROOT
ATOM      1  C   UNL     1      48.605   7.183  15.276  0.00  0.00    +0.000 C 
ENDROOT
BRANCH   1   2
ATOM      2  C   UNL     1      48.565   7.092  13.742  0.00  0.00    +0.000 C 
ATOM      3  C   UNL     1      47.917   5.787  13.235  0.00  0.00    +0.000 C 
ATOM      4  C   UNL     1      46.394   5.761  13.372  0.00  0.00    +0.000 C 
ATOM      5  C   UNL     1      45.706   7.003  12.780  0.00  0.00    +0.000 C 
ATOM      6  C   UNL     1      46.337   8.277  13.364  0.00  0.00    +0.000 C 
ATOM      7  C   UNL     1      47.853   8.325  13.167  0.00  0.00    +0.000 C 
BRANCH   5   8
ATOM      8  C   UNL     1      45.741   7.043  11.238  0.00  0.00    +0.000 C 
BRANCH   8   9
ATOM      9  N   UNL     1      45.352   5.795  10.626  0.00  0.00    +0.000 N 
ATOM     10  C   UNL     1      44.048   5.360  10.546  0.00  0.00    +0.000 C 
ATOM     11  O   UNL     1      43.093   5.970  11.018  0.00  0.00    +0.000 OA
ATOM     12  H   UNL     1      46.047   5.208  10.170  0.00  0.00    +0.000 HD
BRANCH  10  13
ATOM     13  C   UNL     1      43.899   4.017   9.812  0.00  0.00    +0.000 C 
ATOM     14  C   UNL     1      44.857   2.979  10.376  0.00  0.00    +0.000 C 
ATOM     15  C   UNL     1      45.227   2.162   9.165  0.00  0.00    +0.000 C 
ATOM     16  C   UNL     1      45.202   3.190   8.060  0.00  0.00    +0.000 C 
ATOM     17  O   UNL     1      44.180   4.132   8.401  0.00  0.00    +0.000 OA
ENDBRANCH  10  13
ENDBRANCH   8   9
ENDBRANCH   5   8
ENDBRANCH   1   2
BRANCH   1  20
ATOM     18  O   UNL     1      48.800   6.271  17.954  0.00  0.00    +0.000 OA
ATOM     19  C   UNL     1      49.669   5.955  17.145  0.00  0.00    +0.000 C 
ATOM     20  N   UNL     1      49.656   6.379  15.844  0.00  0.00    +0.000 N 
ATOM     21  H   UNL     1      50.355   6.032  15.196  0.00  0.00    +0.000 HD
BRANCH  19  22
ATOM     22  C   UNL     1      50.818   5.131  17.532  0.00  0.00    +0.000 A 
ATOM     23  C   UNL     1      51.955   5.726  18.062  0.00  0.00    +0.000 A 
ATOM     24  S   UNL     1      53.197   4.618  18.426  0.00  0.00    +0.000 S 
ATOM     25  C   UNL     1      52.245   3.299  17.930  0.00  0.00    +0.000 A 
ATOM     26  N   UNL     1      52.715   2.025  18.009  0.00  0.00    +0.000 NA
ATOM     27  C   UNL     1      51.872   1.122  17.637  0.00  0.00    +0.000 A 
ATOM     28  N   UNL     1      50.603   1.374  17.186  0.00  0.00    +0.000 N 
ATOM     29  C   UNL     1      50.109   2.645  17.026  0.00  0.00    +0.000 A 
ATOM     30  O   UNL     1      49.015   2.832  16.508  0.00  0.00    +0.000 OA
ATOM     31  C   UNL     1      51.003   3.700  17.472  0.00  0.00    +0.000 A 
ATOM     32  H   UNL     1      50.001   0.623  16.886  0.00  0.00    +0.000 HD
ENDBRANCH  19  22
ENDBRANCH   1  20
TORSDOF 6
ENDMDL
MODEL 6
REMARK VINA RESULT:    -6.955      3.314      8.932
REMARK INTER + INTRA:         -10.269
REMARK INTER:                  -9.283
REMARK INTRA:                  -0.986
REMARK UNBOUND:                -0.874
REMARK  Name = 
REMARK  6 active torsions:
REMARK  status: ('A' for Active; 'I' for Inactive)
REMARK    1  A    between atoms: C_2  and  C_20
REMARK    2  A    between atoms: N_3  and  C_4
REMARK    3  A    between atoms: C_4  and  C_5
REMARK    4  A    between atoms: C_8  and  C_9
REMARK    5  A    between atoms: C_9  and  N_10
REMARK    6  A    between atoms: C_11  and  C_13
REMARK                            x       y       z     vdW  Elec       q    Type
REMARK                         _______ _______ _______ _____ _____    ______ ____
ROOT
ATOM      1  C   UNL     1      47.348   8.001  11.740  0.00  0.00    +0.000 C 
ENDROOT
BRANCH   1   2
ATOM      2  C   UNL     1      48.766   7.803  12.304  0.00  0.00    +0.000 C 
ATOM      3  C   UNL     1      49.257   9.010  13.130  0.00  0.00    +0.000 C 
ATOM      4  C   UNL     1      48.616   9.111  14.515  0.00  0.00    +0.000 C 
ATOM      5  C   UNL     1      48.695   7.803  15.320  0.00  0.00    +0.000 C 
ATOM      6  C   UNL     1      48.133   6.641  14.485  0.00  0.00    +0.000 C 
ATOM      7  C   UNL     1      48.822   6.508  13.126  0.00  0.00    +0.000 C 
BRANCH   5   8
ATOM      8  C   UNL     1      50.120   7.472  15.811  0.00  0.00    +0.000 C 
BRANCH   8   9
ATOM      9  N   UNL     1      50.214   6.192  16.472  0.00  0.00    +0.000 N 
ATOM     10  C   UNL     1      49.836   5.981  17.780  0.00  0.00    +0.000 C 
ATOM     11  O   UNL     1      49.418   6.865  18.522  0.00  0.00    +0.000 OA
ATOM     12  H   UNL     1      50.519   5.370  15.957  0.00  0.00    +0.000 HD
BRANCH  10  13
ATOM     13  C   UNL     1      50.000   4.521  18.231  0.00  0.00    +0.000 C 
ATOM     14  C   UNL     1      51.199   3.874  17.555  0.00  0.00    +0.000 C 
ATOM     15  C   UNL     1      50.758   2.445  17.371  0.00  0.00    +0.000 C 
ATOM     16  C   UNL     1      49.275   2.592  17.133  0.00  0.00    +0.000 C 
ATOM     17  O   UNL     1      48.847   3.717  17.909  0.00  0.00    +0.000 OA
ENDBRANCH  10  13
ENDBRANCH   8   9
ENDBRANCH   5   8
ENDBRANCH   1   2
BRANCH   1  20
ATOM     18  O   UNL     1      44.541   7.647  11.559  0.00  0.00    +0.000 OA
ATOM     19  C   UNL     1      45.277   6.666  11.493  0.00  0.00    +0.000 C 
ATOM     20  N   UNL     1      46.639   6.756  11.599  0.00  0.00    +0.000 N 
ATOM     21  H   UNL     1      47.208   5.927  11.465  0.00  0.00    +0.000 HD
BRANCH  19  22
ATOM     22  C   UNL     1      44.741   5.310  11.341  0.00  0.00    +0.000 A 
ATOM     23  C   UNL     1      43.985   4.742  12.357  0.00  0.00    +0.000 A 
ATOM     24  S   UNL     1      43.471   3.153  12.017  0.00  0.00    +0.000 S 
ATOM     25  C   UNL     1      44.203   3.184  10.482  0.00  0.00    +0.000 A 
ATOM     26  N   UNL     1      44.116   2.117   9.642  0.00  0.00    +0.000 NA
ATOM     27  C   UNL     1      44.683   2.294   8.497  0.00  0.00    +0.000 A 
ATOM     28  N   UNL     1      45.336   3.435   8.114  0.00  0.00    +0.000 N 
ATOM     29  C   UNL     1      45.508   4.511   8.951  0.00  0.00    +0.000 A 
ATOM     30  O   UNL     1      46.200   5.464   8.614  0.00  0.00    +0.000 OA
ATOM     31  C   UNL     1      44.850   4.381  10.240  0.00  0.00    +0.000 A 
ATOM     32  H   UNL     1      45.780   3.500   7.211  0.00  0.00    +0.000 HD
ENDBRANCH  19  22
ENDBRANCH   1  20
TORSDOF 6
ENDMDL
MODEL 7
REMARK VINA RESULT:    -6.943      4.831      5.306
REMARK INTER + INTRA:         -10.253
REMARK INTER:                  -9.437
REMARK INTRA:                  -0.817
REMARK UNBOUND:                -0.874
REMARK  Name = 
REMARK  6 active torsions:
REMARK  status: ('A' for Active; 'I' for Inactive)
REMARK    1  A    between atoms: C_2  and  C_20
REMARK    2  A    between atoms: N_3  and  C_4
REMARK    3  A    between atoms: C_4  and  C_5
REMARK    4  A    between atoms: C_8  and  C_9
REMARK    5  A    between atoms: C_9  and  N_10
REMARK    6  A    between atoms: C_11  and  C_13
REMARK                            x       y       z     vdW  Elec       q    Type
REMARK                         _______ _______ _______ _____ _____    ______ ____
ROOT
ATOM      1  C   UNL     1      45.153   7.234  12.863  0.00  0.00    +0.000 C 
ENDROOT
BRANCH   1   2
ATOM      2  C   UNL     1      44.937   6.401  11.589  0.00  0.00    +0.000 C 
ATOM      3  C   UNL     1      45.840   5.152  11.528  0.00  0.00    +0.000 C 
ATOM      4  C   UNL     1      45.396   4.022  12.459  0.00  0.00    +0.000 C 
ATOM      5  C   UNL     1      43.911   3.655  12.305  0.00  0.00    +0.000 C 
ATOM      6  C   UNL     1      43.044   4.917  12.441  0.00  0.00    +0.000 C 
ATOM      7  C   UNL     1      43.455   6.020  11.464  0.00  0.00    +0.000 C 
BRANCH   5   8
ATOM      8  C   UNL     1      43.596   2.925  10.983  0.00  0.00    +0.000 C 
BRANCH   8   9
ATOM      9  N   UNL     1      44.770   2.648  10.190  0.00  0.00    +0.000 N 
ATOM     10  C   UNL     1      44.991   3.188   8.943  0.00  0.00    +0.000 C 
ATOM     11  O   UNL     1      44.199   3.928   8.367  0.00  0.00    +0.000 OA
ATOM     12  H   UNL     1      45.519   2.071  10.567  0.00  0.00    +0.000 HD
BRANCH  10  13
ATOM     13  C   UNL     1      46.334   2.764   8.327  0.00  0.00    +0.000 C 
ATOM     14  C   UNL     1      46.457   3.259   6.894  0.00  0.00    +0.000 C 
ATOM     15  C   UNL     1      47.239   2.162   6.219  0.00  0.00    +0.000 C 
ATOM     16  C   UNL     1      46.763   0.929   6.948  0.00  0.00    +0.000 C 
ATOM     17  O   UNL     1      46.492   1.330   8.295  0.00  0.00    +0.000 OA
ENDBRANCH  10  13
ENDBRANCH   8   9
ENDBRANCH   5   8
ENDBRANCH   1   2
BRANCH   1  20
ATOM     18  O   UNL     1      45.771   9.798  11.823  0.00  0.00    +0.000 OA
ATOM     19  C   UNL     1      46.652   9.144  12.374  0.00  0.00    +0.000 C 
ATOM     20  N   UNL     1      46.436   7.889  12.876  0.00  0.00    +0.000 N 
ATOM     21  H   UNL     1      47.174   7.419  13.388  0.00  0.00    +0.000 HD
BRANCH  19  22
ATOM     22  C   UNL     1      48.025   9.646  12.494  0.00  0.00    +0.000 A 
ATOM     23  C   UNL     1      48.264  10.885  13.072  0.00  0.00    +0.000 A 
ATOM     24  S   UNL     1      49.913  11.316  13.100  0.00  0.00    +0.000 S 
ATOM     25  C   UNL     1      50.369   9.845  12.380  0.00  0.00    +0.000 A 
ATOM     26  N   UNL     1      51.677   9.556  12.141  0.00  0.00    +0.000 NA
ATOM     27  C   UNL     1      51.880   8.390  11.628  0.00  0.00    +0.000 A 
ATOM     28  N   UNL     1      50.896   7.486  11.325  0.00  0.00    +0.000 N 
ATOM     29  C   UNL     1      49.560   7.758  11.486  0.00  0.00    +0.000 A 
ATOM     30  O   UNL     1      48.708   6.971  11.092  0.00  0.00    +0.000 OA
ATOM     31  C   UNL     1      49.277   9.044  12.102  0.00  0.00    +0.000 A 
ATOM     32  H   UNL     1      51.120   6.599  10.902  0.00  0.00    +0.000 HD
ENDBRANCH  19  22
ENDBRANCH   1  20
TORSDOF 6
ENDMDL
MODEL 8
REMARK VINA RESULT:    -6.708      3.447      8.759
REMARK INTER + INTRA:          -9.935
REMARK INTER:                  -8.928
REMARK INTRA:                  -1.007
REMARK UNBOUND:                -0.874
REMARK  Name = 
REMARK  6 active torsions:
REMARK  status: ('A' for Active; 'I' for Inactive)
REMARK    1  A    between atoms: C_2  and  C_20
REMARK    2  A    between atoms: N_3  and  C_4
REMARK    3  A    between atoms: C_4  and  C_5
REMARK    4  A    between atoms: C_8  and  C_9
REMARK    5  A    between atoms: C_9  and  N_10
REMARK    6  A    between atoms: C_11  and  C_13
REMARK                            x       y       z     vdW  Elec       q    Type
REMARK                         _______ _______ _______ _____ _____    ______ ____
ROOT
ATOM      1  C   UNL     1      45.440   8.076  11.526  0.00  0.00    +0.000 C 
ENDROOT
BRANCH   1   2
ATOM      2  C   UNL     1      46.171   8.327  12.855  0.00  0.00    +0.000 C 
ATOM      3  C   UNL     1      46.704   7.032  13.502  0.00  0.00    +0.000 C 
ATOM      4  C   UNL     1      47.947   6.466  12.814  0.00  0.00    +0.000 C 
ATOM      5  C   UNL     1      49.064   7.505  12.623  0.00  0.00    +0.000 C 
ATOM      6  C   UNL     1      48.504   8.749  11.915  0.00  0.00    +0.000 C 
ATOM      7  C   UNL     1      47.299   9.346  12.643  0.00  0.00    +0.000 C 
BRANCH   5   8
ATOM      8  C   UNL     1      49.760   7.904  13.940  0.00  0.00    +0.000 C 
BRANCH   8   9
ATOM      9  N   UNL     1      49.581   6.935  14.996  0.00  0.00    +0.000 N 
ATOM     10  C   UNL     1      49.129   7.258  16.257  0.00  0.00    +0.000 C 
ATOM     11  O   UNL     1      48.869   8.401  16.618  0.00  0.00    +0.000 OA
ATOM     12  H   UNL     1      49.735   5.946  14.817  0.00  0.00    +0.000 HD
BRANCH  10  13
ATOM     13  C   UNL     1      48.990   6.038  17.183  0.00  0.00    +0.000 C 
ATOM     14  C   UNL     1      48.182   4.937  16.514  0.00  0.00    +0.000 C 
ATOM     15  C   UNL     1      47.437   4.312  17.666  0.00  0.00    +0.000 C 
ATOM     16  C   UNL     1      47.196   5.493  18.575  0.00  0.00    +0.000 C 
ATOM     17  O   UNL     1      48.322   6.365  18.419  0.00  0.00    +0.000 OA
ENDBRANCH  10  13
ENDBRANCH   8   9
ENDBRANCH   5   8
ENDBRANCH   1   2
BRANCH   1  20
ATOM     18  O   UNL     1      42.975   6.694  11.301  0.00  0.00    +0.000 OA
ATOM     19  C   UNL     1      44.026   6.079  11.143  0.00  0.00    +0.000 C 
ATOM     20  N   UNL     1      45.253   6.673  11.262  0.00  0.00    +0.000 N 
ATOM     21  H   UNL     1      46.091   6.141  11.049  0.00  0.00    +0.000 HD
BRANCH  19  22
ATOM     22  C   UNL     1      44.042   4.641  10.857  0.00  0.00    +0.000 A 
ATOM     23  C   UNL     1      43.294   3.769  11.635  0.00  0.00    +0.000 A 
ATOM     24  S   UNL     1      43.457   2.135  11.175  0.00  0.00    +0.000 S 
ATOM     25  C   UNL     1      44.498   2.541   9.894  0.00  0.00    +0.000 A 
ATOM     26  N   UNL     1      44.997   1.584   9.065  0.00  0.00    +0.000 NA
ATOM     27  C   UNL     1      45.740   2.038   8.114  0.00  0.00    +0.000 A 
ATOM     28  N   UNL     1      46.040   3.360   7.916  0.00  0.00    +0.000 N 
ATOM     29  C   UNL     1      45.615   4.354   8.764  0.00  0.00    +0.000 A 
ATOM     30  O   UNL     1      46.002   5.507   8.622  0.00  0.00    +0.000 OA
ATOM     31  C   UNL     1      44.737   3.901   9.830  0.00  0.00    +0.000 A 
ATOM     32  H   UNL     1      46.649   3.647   7.166  0.00  0.00    +0.000 HD
ENDBRANCH  19  22
ENDBRANCH   1  20
TORSDOF 6
ENDMDL
MODEL 9
REMARK VINA RESULT:    -6.478      5.179      8.084
REMARK INTER + INTRA:          -9.625
REMARK INTER:                  -8.799
REMARK INTRA:                  -0.826
REMARK UNBOUND:                -0.874
REMARK  Name = 
REMARK  6 active torsions:
REMARK  status: ('A' for Active; 'I' for Inactive)
REMARK    1  A    between atoms: C_2  and  C_20
REMARK    2  A    between atoms: N_3  and  C_4
REMARK    3  A    between atoms: C_4  and  C_5
REMARK    4  A    between atoms: C_8  and  C_9
REMARK    5  A    between atoms: C_9  and  N_10
REMARK    6  A    between atoms: C_11  and  C_13
REMARK                            x       y       z     vdW  Elec       q    Type
REMARK                         _______ _______ _______ _____ _____    ______ ____
ROOT
ATOM      1  C   UNL     1      46.030   8.482  13.292  0.00  0.00    +0.000 C 
ENDROOT
BRANCH   1   2
ATOM      2  C   UNL     1      47.471   8.489  13.829  0.00  0.00    +0.000 C 
ATOM      3  C   UNL     1      48.191   7.138  13.637  0.00  0.00    +0.000 C 
ATOM      4  C   UNL     1      48.627   6.871  12.195  0.00  0.00    +0.000 C 
ATOM      5  C   UNL     1      49.424   8.031  11.575  0.00  0.00    +0.000 C 
ATOM      6  C   UNL     1      48.640   9.344  11.729  0.00  0.00    +0.000 C 
ATOM      7  C   UNL     1      48.261   9.635  13.181  0.00  0.00    +0.000 C 
BRANCH   5   8
ATOM      8  C   UNL     1      50.843   8.180  12.162  0.00  0.00    +0.000 C 
BRANCH   8   9
ATOM      9  N   UNL     1      51.882   7.736  11.263  0.00  0.00    +0.000 N 
ATOM     10  C   UNL     1      52.449   8.540  10.299  0.00  0.00    +0.000 C 
ATOM     11  O   UNL     1      52.105   9.698  10.085  0.00  0.00    +0.000 OA
ATOM     12  H   UNL     1      52.277   6.803  11.356  0.00  0.00    +0.000 HD
BRANCH  10  13
ATOM     13  C   UNL     1      53.560   7.839   9.501  0.00  0.00    +0.000 C 
ATOM     14  C   UNL     1      53.193   7.740   8.028  0.00  0.00    +0.000 C 
ATOM     15  C   UNL     1      53.802   6.426   7.611  0.00  0.00    +0.000 C 
ATOM     16  C   UNL     1      53.669   5.595   8.864  0.00  0.00    +0.000 C 
ATOM     17  O   UNL     1      53.805   6.496   9.968  0.00  0.00    +0.000 OA
ENDBRANCH  10  13
ENDBRANCH   8   9
ENDBRANCH   5   8
ENDBRANCH   1   2
BRANCH   1  20
ATOM     18  O   UNL     1      44.461   7.747  11.048  0.00  0.00    +0.000 OA
ATOM     19  C   UNL     1      44.847   6.877  11.823  0.00  0.00    +0.000 C 
ATOM     20  N   UNL     1      45.585   7.158  12.941  0.00  0.00    +0.000 N 
ATOM     21  H   UNL     1      45.943   6.399  13.511  0.00  0.00    +0.000 HD
BRANCH  19  22
ATOM     22  C   UNL     1      44.502   5.465  11.630  0.00  0.00    +0.000 A 
ATOM     23  C   UNL     1      43.753   4.794  12.587  0.00  0.00    +0.000 A 
ATOM     24  S   UNL     1      43.474   3.156  12.207  0.00  0.00    +0.000 S 
ATOM     25  C   UNL     1      44.307   3.296  10.732  0.00  0.00    +0.000 A 
ATOM     26  N   UNL     1      44.420   2.236   9.886  0.00  0.00    +0.000 NA
ATOM     27  C   UNL     1      45.041   2.496   8.786  0.00  0.00    +0.000 A 
ATOM     28  N   UNL     1      45.569   3.716   8.454  0.00  0.00    +0.000 N 
ATOM     29  C   UNL     1      45.539   4.796   9.303  0.00  0.00    +0.000 A 
ATOM     30  O   UNL     1      46.125   5.833   9.019  0.00  0.00    +0.000 OA
ATOM     31  C   UNL     1      44.810   4.569  10.539  0.00  0.00    +0.000 A 
ATOM     32  H   UNL     1      46.066   3.847   7.587  0.00  0.00    +0.000 HD
ENDBRANCH  19  22
ENDBRANCH   1  20
TORSDOF 6
ENDMDL
