MODEL 1
REMARK VINA RESULT:    -7.435      0.000      0.000
REMARK INTER + INTRA:         -11.260
REMARK INTER:                 -10.042
REMARK INTRA:                  -1.217
REMARK UNBOUND:                -1.217
REMARK  Name = 
REMARK  7 active torsions:
REMARK  status: ('A' for Active; 'I' for Inactive)
REMARK    1  A    between atoms: C_1  and  C_2
REMARK    2  A    between atoms: C_2  and  N_3
REMARK    3  A    between atoms: N_3  and  C_4
REMARK    4  A    between atoms: C_4  and  C_5
REMARK    5  A    between atoms: C_8  and  C_9
REMARK    6  A    between atoms: C_9  and  C_10
REMARK    7  A    between atoms: C_17  and  C_19
REMARK                            x       y       z     vdW  Elec       q    Type
REMARK                         _______ _______ _______ _____ _____    ______ ____
ROOT
ATOM      1  N   UNL     1      46.056   6.987  12.355  0.00  0.00    +0.000 N 
ATOM      2  C   UNL     1      44.835   6.610  11.758  0.00  0.00    +0.000 C 
ATOM      3  O   UNL     1      44.009   7.459  11.428  0.00  0.00    +0.000 OA
ENDROOT
BRANCH   2   4
ATOM      4  C   UNL     1      44.504   5.178  11.577  0.00  0.00    +0.000 A 
ATOM      5  C   UNL     1      43.751   4.406  12.450  0.00  0.00    +0.000 A 
ATOM      6  S   UNL     1      43.476   2.809  11.914  0.00  0.00    +0.000 S 
ATOM      7  C   UNL     1      44.196   3.144  10.413  0.00  0.00    +0.000 A 
ATOM      8  N   UNL     1      44.161   2.231   9.407  0.00  0.00    +0.000 NA
ATOM      9  C   UNL     1      44.676   2.650   8.301  0.00  0.00    +0.000 A 
ATOM     10  N   UNL     1      45.265   3.877   8.131  0.00  0.00    +0.000 N 
ATOM     11  C   UNL     1      45.454   4.770   9.156  0.00  0.00    +0.000 A 
ATOM     12  O   UNL     1      46.201   5.732   9.035  0.00  0.00    +0.000 OA
ATOM     13  C   UNL     1      44.756   4.407  10.380  0.00  0.00    +0.000 A 
ATOM     14  H   UNL     1      45.735   4.109   7.273  0.00  0.00    +0.000 HD
ENDBRANCH   2   4
BRANCH   1  16
ATOM     15  C   UNL     1      47.629   8.907  12.092  0.00  0.00    +0.000 C 
ATOM     16  C   UNL     1      46.283   8.413  12.604  0.00  0.00    +0.000 C 
ENDBRANCH   1  16
BRANCH   1  17
ATOM     17  C   UNL     1      47.073   6.007  12.731  0.00  0.00    +0.000 C 
BRANCH  17  18
ATOM     18  C   UNL     1      47.376   5.676  14.174  0.00  0.00    +0.000 A 
ATOM     19  C   UNL     1      46.837   4.514  14.730  0.00  0.00    +0.000 A 
ATOM     20  C   UNL     1      47.377   4.019  15.912  0.00  0.00    +0.000 A 
ATOM     21  C   UNL     1      48.434   4.694  16.523  0.00  0.00    +0.000 A 
ATOM     22  C   UNL     1      48.853   5.884  15.936  0.00  0.00    +0.000 A 
ATOM     23  N   UNL     1      48.350   6.389  14.787  0.00  0.00    +0.000 NA
BRANCH  21  24
ATOM     24  C   UNL     1      49.140   4.104  17.715  0.00  0.00    +0.000 C 
BRANCH  24  25
ATOM     25  C   UNL     1      50.478   3.432  17.392  0.00  0.00    +0.000 C 
ATOM     26  C   UNL     1      50.333   1.929  17.211  0.00  0.00    +0.000 C 
ATOM     27  C   UNL     1      51.758   1.436  17.375  0.00  0.00    +0.000 C 
ATOM     28  C   UNL     1      52.402   2.438  18.326  0.00  0.00    +0.000 C 
ATOM     29  N   UNL     1      51.435   3.521  18.501  0.00  0.00    +0.000 NA
ATOM     30  H   UNL     1      51.897   4.430  18.509  0.00  0.00    +0.000 HD
ENDBRANCH  24  25
ENDBRANCH  21  24
ENDBRANCH  17  18
ENDBRANCH   1  17
TORSDOF 6
ENDMDL
MODEL 2
REMARK VINA RESULT:    -7.029      1.331      2.044
REMARK INTER + INTRA:         -10.712
REMARK INTER:                  -9.713
REMARK INTRA:                  -0.999
REMARK UNBOUND:                -1.217
REMARK  Name = 
REMARK  7 active torsions:
REMARK  status: ('A' for Active; 'I' for Inactive)
REMARK    1  A    between atoms: C_1  and  C_2
REMARK    2  A    between atoms: C_2  and  N_3
REMARK    3  A    between atoms: N_3  and  C_4
REMARK    4  A    between atoms: C_4  and  C_5
REMARK    5  A    between atoms: C_8  and  C_9
REMARK    6  A    between atoms: C_9  and  C_10
REMARK    7  A    between atoms: C_17  and  C_19
REMARK                            x       y       z     vdW  Elec       q    Type
REMARK                         _______ _______ _______ _____ _____    ______ ____
ROOT
ATOM      1  N   UNL     1      46.358   7.203  12.498  0.00  0.00    +0.000 N 
ATOM      2  C   UNL     1      45.395   7.174  11.469  0.00  0.00    +0.000 C 
ATOM      3  O   UNL     1      44.747   8.181  11.188  0.00  0.00    +0.000 OA
ENDROOT
BRANCH   2   4
ATOM      4  C   UNL     1      45.106   5.911  10.752  0.00  0.00    +0.000 A 
ATOM      5  C   UNL     1      45.638   5.538   9.527  0.00  0.00    +0.000 A 
ATOM      6  S   UNL     1      45.174   3.980   9.007  0.00  0.00    +0.000 S 
ATOM      7  C   UNL     1      44.394   3.673  10.483  0.00  0.00    +0.000 A 
ATOM      8  N   UNL     1      43.897   2.440  10.762  0.00  0.00    +0.000 NA
ATOM      9  C   UNL     1      43.403   2.330  11.950  0.00  0.00    +0.000 A 
ATOM     10  N   UNL     1      43.318   3.357  12.856  0.00  0.00    +0.000 N 
ATOM     11  C   UNL     1      43.671   4.650  12.563  0.00  0.00    +0.000 A 
ATOM     12  O   UNL     1      43.347   5.579  13.292  0.00  0.00    +0.000 OA
ATOM     13  C   UNL     1      44.372   4.790  11.297  0.00  0.00    +0.000 A 
ATOM     14  H   UNL     1      42.835   3.235  13.729  0.00  0.00    +0.000 HD
ENDBRANCH   2   4
BRANCH   1  16
ATOM     15  C   UNL     1      47.727   9.271  12.785  0.00  0.00    +0.000 C 
ATOM     16  C   UNL     1      46.526   8.454  13.242  0.00  0.00    +0.000 C 
ENDBRANCH   1  16
BRANCH   1  17
ATOM     17  C   UNL     1      47.168   6.035  12.839  0.00  0.00    +0.000 C 
BRANCH  17  18
ATOM     18  C   UNL     1      47.451   5.641  14.269  0.00  0.00    +0.000 A 
ATOM     19  C   UNL     1      46.912   4.452  14.765  0.00  0.00    +0.000 A 
ATOM     20  C   UNL     1      47.437   3.908  15.932  0.00  0.00    +0.000 A 
ATOM     21  C   UNL     1      48.479   4.562  16.589  0.00  0.00    +0.000 A 
ATOM     22  C   UNL     1      48.899   5.779  16.062  0.00  0.00    +0.000 A 
ATOM     23  N   UNL     1      48.410   6.332  14.930  0.00  0.00    +0.000 NA
BRANCH  21  24
ATOM     24  C   UNL     1      49.171   3.924  17.764  0.00  0.00    +0.000 C 
BRANCH  24  25
ATOM     25  C   UNL     1      50.548   3.333  17.447  0.00  0.00    +0.000 C 
ATOM     26  C   UNL     1      50.496   1.824  17.271  0.00  0.00    +0.000 C 
ATOM     27  C   UNL     1      51.949   1.420  17.441  0.00  0.00    +0.000 C 
ATOM     28  C   UNL     1      52.527   2.463  18.389  0.00  0.00    +0.000 C 
ATOM     29  N   UNL     1      51.495   3.485  18.558  0.00  0.00    +0.000 NA
ATOM     30  H   UNL     1      51.900   4.421  18.563  0.00  0.00    +0.000 HD
ENDBRANCH  24  25
ENDBRANCH  21  24
ENDBRANCH  17  18
ENDBRANCH   1  17
TORSDOF 6
ENDMDL
MODEL 3
REMARK VINA RESULT:    -6.930      1.330      2.168
REMARK INTER + INTRA:         -10.578
REMARK INTER:                  -9.505
REMARK INTRA:                  -1.073
REMARK UNBOUND:                -1.217
REMARK  Name = 
REMARK  7 active torsions:
REMARK  status: ('A' for Active; 'I' for Inactive)
REMARK    1  A    between atoms: C_1  and  C_2
REMARK    2  A    between atoms: C_2  and  N_3
REMARK    3  A    between atoms: N_3  and  C_4
REMARK    4  A    between atoms: C_4  and  C_5
REMARK    5  A    between atoms: C_8  and  C_9
REMARK    6  A    between atoms: C_9  and  C_10
REMARK    7  A    between atoms: C_17  and  C_19
REMARK                            x       y       z     vdW  Elec       q    Type
REMARK                         _______ _______ _______ _____ _____    ______ ____
ROOT
ATOM      1  N   UNL     1      46.169   6.958  12.363  0.00  0.00    +0.000 N 
ATOM      2  C   UNL     1      44.956   6.604  11.738  0.00  0.00    +0.000 C 
ATOM      3  O   UNL     1      44.164   7.469  11.369  0.00  0.00    +0.000 OA
ENDROOT
BRANCH   2   4
ATOM      4  C   UNL     1      44.590   5.179  11.572  0.00  0.00    +0.000 A 
ATOM      5  C   UNL     1      43.839   4.428  12.465  0.00  0.00    +0.000 A 
ATOM      6  S   UNL     1      43.518   2.834  11.944  0.00  0.00    +0.000 S 
ATOM      7  C   UNL     1      44.214   3.145  10.427  0.00  0.00    +0.000 A 
ATOM      8  N   UNL     1      44.138   2.227   9.428  0.00  0.00    +0.000 NA
ATOM      9  C   UNL     1      44.639   2.629   8.308  0.00  0.00    +0.000 A 
ATOM     10  N   UNL     1      45.250   3.842   8.119  0.00  0.00    +0.000 N 
ATOM     11  C   UNL     1      45.480   4.736   9.134  0.00  0.00    +0.000 A 
ATOM     12  O   UNL     1      46.246   5.681   8.992  0.00  0.00    +0.000 OA
ATOM     13  C   UNL     1      44.800   4.396  10.375  0.00  0.00    +0.000 A 
ATOM     14  H   UNL     1      45.708   4.059   7.250  0.00  0.00    +0.000 HD
ENDBRANCH   2   4
BRANCH   1  16
ATOM     15  C   UNL     1      47.776   8.843  12.055  0.00  0.00    +0.000 C 
ATOM     16  C   UNL     1      46.429   8.381  12.593  0.00  0.00    +0.000 C 
ENDBRANCH   1  16
BRANCH   1  17
ATOM     17  C   UNL     1      47.148   5.958  12.785  0.00  0.00    +0.000 C 
BRANCH  17  18
ATOM     18  C   UNL     1      47.395   5.639  14.241  0.00  0.00    +0.000 A 
ATOM     19  C   UNL     1      46.818   4.494  14.793  0.00  0.00    +0.000 A 
ATOM     20  C   UNL     1      47.308   4.004  15.998  0.00  0.00    +0.000 A 
ATOM     21  C   UNL     1      48.355   4.669  16.637  0.00  0.00    +0.000 A 
ATOM     22  C   UNL     1      48.815   5.844  16.050  0.00  0.00    +0.000 A 
ATOM     23  N   UNL     1      48.360   6.343  14.879  0.00  0.00    +0.000 NA
BRANCH  21  24
ATOM     24  C   UNL     1      49.010   4.082  17.859  0.00  0.00    +0.000 C 
BRANCH  24  25
ATOM     25  C   UNL     1      48.683   4.810  19.166  0.00  0.00    +0.000 C 
ATOM     26  C   UNL     1      47.364   5.563  19.087  0.00  0.00    +0.000 C 
ATOM     27  C   UNL     1      47.472   6.544  20.239  0.00  0.00    +0.000 C 
ATOM     28  C   UNL     1      48.965   6.820  20.368  0.00  0.00    +0.000 C 
ATOM     29  N   UNL     1      49.637   5.884  19.467  0.00  0.00    +0.000 NA
ATOM     30  H   UNL     1      50.485   5.507  19.891  0.00  0.00    +0.000 HD
ENDBRANCH  24  25
ENDBRANCH  21  24
ENDBRANCH  17  18
ENDBRANCH   1  17
TORSDOF 6
ENDMDL
MODEL 4
REMARK VINA RESULT:    -6.792      3.727      7.767
REMARK INTER + INTRA:         -10.392
REMARK INTER:                 -10.182
REMARK INTRA:                  -0.209
REMARK UNBOUND:                -1.217
REMARK  Name = 
REMARK  7 active torsions:
REMARK  status: ('A' for Active; 'I' for Inactive)
REMARK    1  A    between atoms: C_1  and  C_2
REMARK    2  A    between atoms: C_2  and  N_3
REMARK    3  A    between atoms: N_3  and  C_4
REMARK    4  A    between atoms: C_4  and  C_5
REMARK    5  A    between atoms: C_8  and  C_9
REMARK    6  A    between atoms: C_9  and  C_10
REMARK    7  A    between atoms: C_17  and  C_19
REMARK                            x       y       z     vdW  Elec       q    Type
REMARK                         _______ _______ _______ _____ _____    ______ ____
ROOT
ATOM      1  N   UNL     1      46.501   5.877  13.658  0.00  0.00    +0.000 N 
ATOM      2  C   UNL     1      47.537   6.828  13.556  0.00  0.00    +0.000 C 
ATOM      3  O   UNL     1      48.630   6.624  14.082  0.00  0.00    +0.000 OA
ENDROOT
BRANCH   2   4
ATOM      4  C   UNL     1      47.302   8.116  12.864  0.00  0.00    +0.000 A 
ATOM      5  C   UNL     1      46.176   8.914  13.003  0.00  0.00    +0.000 A 
ATOM      6  S   UNL     1      46.246  10.382  12.134  0.00  0.00    +0.000 S 
ATOM      7  C   UNL     1      47.857  10.090  11.688  0.00  0.00    +0.000 A 
ATOM      8  N   UNL     1      48.582  11.041  11.043  0.00  0.00    +0.000 NA
ATOM      9  C   UNL     1      49.813  10.713  10.837  0.00  0.00    +0.000 A 
ATOM     10  N   UNL     1      50.363   9.502  11.174  0.00  0.00    +0.000 N 
ATOM     11  C   UNL     1      49.633   8.461  11.690  0.00  0.00    +0.000 A 
ATOM     12  O   UNL     1      50.088   7.325  11.737  0.00  0.00    +0.000 OA
ATOM     13  C   UNL     1      48.282   8.834  12.080  0.00  0.00    +0.000 A 
ATOM     14  H   UNL     1      51.302   9.268  10.900  0.00  0.00    +0.000 HD
ENDBRANCH   2   4
BRANCH   1  16
ATOM     15  C   UNL     1      46.843   3.405  13.596  0.00  0.00    +0.000 C 
ATOM     16  C   UNL     1      46.759   4.668  14.444  0.00  0.00    +0.000 C 
ENDBRANCH   1  16
BRANCH   1  17
ATOM     17  C   UNL     1      45.200   6.072  13.021  0.00  0.00    +0.000 C 
BRANCH  17  18
ATOM     18  C   UNL     1      44.909   5.585  11.621  0.00  0.00    +0.000 A 
ATOM     19  C   UNL     1      45.734   5.999  10.573  0.00  0.00    +0.000 A 
ATOM     20  C   UNL     1      45.701   5.300   9.371  0.00  0.00    +0.000 A 
ATOM     21  C   UNL     1      44.840   4.211   9.232  0.00  0.00    +0.000 A 
ATOM     22  C   UNL     1      44.002   3.921  10.303  0.00  0.00    +0.000 A 
ATOM     23  N   UNL     1      44.012   4.580  11.483  0.00  0.00    +0.000 NA
BRANCH  21  24
ATOM     24  C   UNL     1      44.890   3.341   8.003  0.00  0.00    +0.000 C 
BRANCH  24  25
ATOM     25  C   UNL     1      46.302   2.956   7.554  0.00  0.00    +0.000 C 
ATOM     26  C   UNL     1      46.486   3.109   6.052  0.00  0.00    +0.000 C 
ATOM     27  C   UNL     1      47.715   2.263   5.781  0.00  0.00    +0.000 C 
ATOM     28  C   UNL     1      47.672   1.172   6.844  0.00  0.00    +0.000 C 
ATOM     29  N   UNL     1      46.590   1.532   7.760  0.00  0.00    +0.000 NA
ATOM     30  H   UNL     1      46.851   1.352   8.729  0.00  0.00    +0.000 HD
ENDBRANCH  24  25
ENDBRANCH  21  24
ENDBRANCH  17  18
ENDBRANCH   1  17
TORSDOF 6
ENDMDL
MODEL 5
REMARK VINA RESULT:    -6.470      3.639      8.006
REMARK INTER + INTRA:          -9.956
REMARK INTER:                  -8.770
REMARK INTRA:                  -1.186
REMARK UNBOUND:                -1.217
REMARK  Name = 
REMARK  7 active torsions:
REMARK  status: ('A' for Active; 'I' for Inactive)
REMARK    1  A    between atoms: C_1  and  C_2
REMARK    2  A    between atoms: C_2  and  N_3
REMARK    3  A    between atoms: N_3  and  C_4
REMARK    4  A    between atoms: C_4  and  C_5
REMARK    5  A    between atoms: C_8  and  C_9
REMARK    6  A    between atoms: C_9  and  C_10
REMARK    7  A    between atoms: C_17  and  C_19
REMARK                            x       y       z     vdW  Elec       q    Type
REMARK                         _______ _______ _______ _____ _____    ______ ____
ROOT
ATOM      1  N   UNL     1      48.907   7.551  13.801  0.00  0.00    +0.000 N 
ATOM      2  C   UNL     1      49.785   7.662  14.898  0.00  0.00    +0.000 C 
ATOM      3  O   UNL     1      50.986   7.432  14.767  0.00  0.00    +0.000 OA
ENDROOT
BRANCH   2   4
ATOM      4  C   UNL     1      49.262   7.999  16.242  0.00  0.00    +0.000 A 
ATOM      5  C   UNL     1      49.151   9.277  16.769  0.00  0.00    +0.000 A 
ATOM      6  S   UNL     1      48.428   9.338  18.315  0.00  0.00    +0.000 S 
ATOM      7  C   UNL     1      48.070   7.680  18.259  0.00  0.00    +0.000 A 
ATOM      8  N   UNL     1      47.310   7.100  19.225  0.00  0.00    +0.000 NA
ATOM      9  C   UNL     1      47.052   5.854  19.012  0.00  0.00    +0.000 A 
ATOM     10  N   UNL     1      47.530   5.130  17.950  0.00  0.00    +0.000 N 
ATOM     11  C   UNL     1      48.419   5.634  17.034  0.00  0.00    +0.000 A 
ATOM     12  O   UNL     1      49.020   4.901  16.259  0.00  0.00    +0.000 OA
ATOM     13  C   UNL     1      48.616   7.071  17.144  0.00  0.00    +0.000 A 
ATOM     14  H   UNL     1      47.375   4.138  17.890  0.00  0.00    +0.000 HD
ENDBRANCH   2   4
BRANCH   1  16
ATOM     15  C   UNL     1      49.470   8.205  11.459  0.00  0.00    +0.000 C 
ATOM     16  C   UNL     1      49.466   7.113  12.520  0.00  0.00    +0.000 C 
ENDBRANCH   1  16
BRANCH   1  17
ATOM     17  C   UNL     1      47.480   7.846  13.914  0.00  0.00    +0.000 C 
BRANCH  17  18
ATOM     18  C   UNL     1      46.425   6.991  13.252  0.00  0.00    +0.000 A 
ATOM     19  C   UNL     1      45.697   7.517  12.183  0.00  0.00    +0.000 A 
ATOM     20  C   UNL     1      44.993   6.651  11.354  0.00  0.00    +0.000 A 
ATOM     21  C   UNL     1      45.019   5.280  11.610  0.00  0.00    +0.000 A 
ATOM     22  C   UNL     1      45.709   4.856  12.741  0.00  0.00    +0.000 A 
ATOM     23  N   UNL     1      46.403   5.674  13.565  0.00  0.00    +0.000 NA
BRANCH  21  24
ATOM     24  C   UNL     1      44.397   4.303  10.647  0.00  0.00    +0.000 C 
BRANCH  24  25
ATOM     25  C   UNL     1      45.402   3.530   9.788  0.00  0.00    +0.000 C 
ATOM     26  C   UNL     1      45.417   4.017   8.348  0.00  0.00    +0.000 C 
ATOM     27  C   UNL     1      46.079   2.866   7.616  0.00  0.00    +0.000 C 
ATOM     28  C   UNL     1      45.701   1.631   8.423  0.00  0.00    +0.000 C 
ATOM     29  N   UNL     1      45.042   2.116   9.635  0.00  0.00    +0.000 NA
ATOM     30  H   UNL     1      45.330   1.578  10.453  0.00  0.00    +0.000 HD
ENDBRANCH  24  25
ENDBRANCH  21  24
ENDBRANCH  17  18
ENDBRANCH   1  17
TORSDOF 6
ENDMDL
MODEL 6
REMARK VINA RESULT:    -6.448      3.350      8.200
REMARK INTER + INTRA:          -9.926
REMARK INTER:                  -8.971
REMARK INTRA:                  -0.956
REMARK UNBOUND:                -1.217
REMARK  Name = 
REMARK  7 active torsions:
REMARK  status: ('A' for Active; 'I' for Inactive)
REMARK    1  A    between atoms: C_1  and  C_2
REMARK    2  A    between atoms: C_2  and  N_3
REMARK    3  A    between atoms: N_3  and  C_4
REMARK    4  A    between atoms: C_4  and  C_5
REMARK    5  A    between atoms: C_8  and  C_9
REMARK    6  A    between atoms: C_9  and  C_10
REMARK    7  A    between atoms: C_17  and  C_19
REMARK                            x       y       z     vdW  Elec       q    Type
REMARK                         _______ _______ _______ _____ _____    ______ ____
ROOT
ATOM      1  N   UNL     1      48.881   7.212  14.220  0.00  0.00    +0.000 N 
ATOM      2  C   UNL     1      49.485   6.713  15.392  0.00  0.00    +0.000 C 
ATOM      3  O   UNL     1      50.707   6.746  15.532  0.00  0.00    +0.000 OA
ENDROOT
BRANCH   2   4
ATOM      4  C   UNL     1      48.659   6.084  16.448  0.00  0.00    +0.000 A 
ATOM      5  C   UNL     1      48.203   4.774  16.445  0.00  0.00    +0.000 A 
ATOM      6  S   UNL     1      47.343   4.328  17.850  0.00  0.00    +0.000 S 
ATOM      7  C   UNL     1      47.707   5.809  18.595  0.00  0.00    +0.000 A 
ATOM      8  N   UNL     1      47.387   6.029  19.897  0.00  0.00    +0.000 NA
ATOM      9  C   UNL     1      47.794   7.166  20.352  0.00  0.00    +0.000 A 
ATOM     10  N   UNL     1      48.442   8.117  19.606  0.00  0.00    +0.000 N 
ATOM     11  C   UNL     1      48.652   7.999  18.255  0.00  0.00    +0.000 A 
ATOM     12  O   UNL     1      48.995   8.959  17.577  0.00  0.00    +0.000 OA
ATOM     13  C   UNL     1      48.351   6.676  17.732  0.00  0.00    +0.000 A 
ATOM     14  H   UNL     1      48.647   9.023  19.990  0.00  0.00    +0.000 HD
ENDBRANCH   2   4
BRANCH   1  16
ATOM     15  C   UNL     1      49.294   9.059  12.593  0.00  0.00    +0.000 C 
ATOM     16  C   UNL     1      49.758   7.727  13.166  0.00  0.00    +0.000 C 
ENDBRANCH   1  16
BRANCH   1  17
ATOM     17  C   UNL     1      47.431   7.216  14.034  0.00  0.00    +0.000 C 
BRANCH  17  18
ATOM     18  C   UNL     1      46.759   6.437  12.927  0.00  0.00    +0.000 A 
ATOM     19  C   UNL     1      46.509   5.076  13.111  0.00  0.00    +0.000 A 
ATOM     20  C   UNL     1      45.598   4.438  12.276  0.00  0.00    +0.000 A 
ATOM     21  C   UNL     1      44.964   5.164  11.268  0.00  0.00    +0.000 A 
ATOM     22  C   UNL     1      45.334   6.496  11.112  0.00  0.00    +0.000 A 
ATOM     23  N   UNL     1      46.214   7.143  11.909  0.00  0.00    +0.000 NA
BRANCH  21  24
ATOM     24  C   UNL     1      43.863   4.545  10.448  0.00  0.00    +0.000 C 
BRANCH  24  25
ATOM     25  C   UNL     1      44.338   3.844   9.172  0.00  0.00    +0.000 C 
ATOM     26  C   UNL     1      45.090   2.557   9.472  0.00  0.00    +0.000 C 
ATOM     27  C   UNL     1      45.843   2.304   8.181  0.00  0.00    +0.000 C 
ATOM     28  C   UNL     1      46.094   3.692   7.605  0.00  0.00    +0.000 C 
ATOM     29  N   UNL     1      45.340   4.627   8.440  0.00  0.00    +0.000 NA
ATOM     30  H   UNL     1      44.894   5.349   7.875  0.00  0.00    +0.000 HD
ENDBRANCH  24  25
ENDBRANCH  21  24
ENDBRANCH  17  18
ENDBRANCH   1  17
TORSDOF 6
ENDMDL
MODEL 7
REMARK VINA RESULT:    -6.277      2.893      7.928
REMARK INTER + INTRA:          -9.696
REMARK INTER:                  -9.358
REMARK INTRA:                  -0.338
REMARK UNBOUND:                -1.217
REMARK  Name = 
REMARK  7 active torsions:
REMARK  status: ('A' for Active; 'I' for Inactive)
REMARK    1  A    between atoms: C_1  and  C_2
REMARK    2  A    between atoms: C_2  and  N_3
REMARK    3  A    between atoms: N_3  and  C_4
REMARK    4  A    between atoms: C_4  and  C_5
REMARK    5  A    between atoms: C_8  and  C_9
REMARK    6  A    between atoms: C_9  and  C_10
REMARK    7  A    between atoms: C_17  and  C_19
REMARK                            x       y       z     vdW  Elec       q    Type
REMARK                         _______ _______ _______ _____ _____    ______ ____
ROOT
ATOM      1  N   UNL     1      48.502   7.205  14.434  0.00  0.00    +0.000 N 
ATOM      2  C   UNL     1      48.627   7.083  15.833  0.00  0.00    +0.000 C 
ATOM      3  O   UNL     1      48.814   8.076  16.535  0.00  0.00    +0.000 OA
ENDROOT
BRANCH   2   4
ATOM      4  C   UNL     1      48.597   5.748  16.471  0.00  0.00    +0.000 A 
ATOM      5  C   UNL     1      47.503   4.895  16.510  0.00  0.00    +0.000 A 
ATOM      6  S   UNL     1      47.815   3.388  17.249  0.00  0.00    +0.000 S 
ATOM      7  C   UNL     1      49.469   3.746  17.379  0.00  0.00    +0.000 A 
ATOM      8  N   UNL     1      50.353   2.804  17.800  0.00  0.00    +0.000 NA
ATOM      9  C   UNL     1      51.584   3.190  17.774  0.00  0.00    +0.000 A 
ATOM     10  N   UNL     1      51.998   4.447  17.414  0.00  0.00    +0.000 N 
ATOM     11  C   UNL     1      51.132   5.472  17.126  0.00  0.00    +0.000 A 
ATOM     12  O   UNL     1      51.516   6.633  17.063  0.00  0.00    +0.000 OA
ATOM     13  C   UNL     1      49.748   5.044  16.993  0.00  0.00    +0.000 A 
ATOM     14  H   UNL     1      52.962   4.719  17.507  0.00  0.00    +0.000 HD
ENDBRANCH   2   4
BRANCH   1  16
ATOM     15  C   UNL     1      49.697   8.609  12.751  0.00  0.00    +0.000 C 
ATOM     16  C   UNL     1      48.644   8.541  13.849  0.00  0.00    +0.000 C 
ENDBRANCH   1  16
BRANCH   1  17
ATOM     17  C   UNL     1      48.248   6.052  13.572  0.00  0.00    +0.000 C 
BRANCH  17  18
ATOM     18  C   UNL     1      46.916   5.830  12.895  0.00  0.00    +0.000 A 
ATOM     19  C   UNL     1      46.538   6.674  11.850  0.00  0.00    +0.000 A 
ATOM     20  C   UNL     1      45.508   6.280  11.002  0.00  0.00    +0.000 A 
ATOM     21  C   UNL     1      44.869   5.059  11.218  0.00  0.00    +0.000 A 
ATOM     22  C   UNL     1      45.263   4.321  12.329  0.00  0.00    +0.000 A 
ATOM     23  N   UNL     1      46.260   4.678  13.169  0.00  0.00    +0.000 NA
BRANCH  21  24
ATOM     24  C   UNL     1      43.859   4.533  10.232  0.00  0.00    +0.000 C 
BRANCH  24  25
ATOM     25  C   UNL     1      44.466   3.924   8.964  0.00  0.00    +0.000 C 
ATOM     26  C   UNL     1      45.168   2.604   9.243  0.00  0.00    +0.000 C 
ATOM     27  C   UNL     1      46.056   2.438   8.026  0.00  0.00    +0.000 C 
ATOM     28  C   UNL     1      46.384   3.862   7.593  0.00  0.00    +0.000 C 
ATOM     29  N   UNL     1      45.551   4.743   8.411  0.00  0.00    +0.000 NA
ATOM     30  H   UNL     1      45.177   5.515   7.859  0.00  0.00    +0.000 HD
ENDBRANCH  24  25
ENDBRANCH  21  24
ENDBRANCH  17  18
ENDBRANCH   1  17
TORSDOF 6
ENDMDL
MODEL 8
REMARK VINA RESULT:    -6.167      3.595      8.271
REMARK INTER + INTRA:          -9.547
REMARK INTER:                  -8.750
REMARK INTRA:                  -0.797
REMARK UNBOUND:                -1.217
REMARK  Name = 
REMARK  7 active torsions:
REMARK  status: ('A' for Active; 'I' for Inactive)
REMARK    1  A    between atoms: C_1  and  C_2
REMARK    2  A    between atoms: C_2  and  N_3
REMARK    3  A    between atoms: N_3  and  C_4
REMARK    4  A    between atoms: C_4  and  C_5
REMARK    5  A    between atoms: C_8  and  C_9
REMARK    6  A    between atoms: C_9  and  C_10
REMARK    7  A    between atoms: C_17  and  C_19
REMARK                            x       y       z     vdW  Elec       q    Type
REMARK                         _______ _______ _______ _____ _____    ______ ____
ROOT
ATOM      1  N   UNL     1      47.813   5.155  15.998  0.00  0.00    +0.000 N 
ATOM      2  C   UNL     1      48.488   6.286  16.502  0.00  0.00    +0.000 C 
ATOM      3  O   UNL     1      48.504   6.521  17.709  0.00  0.00    +0.000 OA
ENDROOT
BRANCH   2   4
ATOM      4  C   UNL     1      49.137   7.241  15.575  0.00  0.00    +0.000 A 
ATOM      5  C   UNL     1      48.489   8.232  14.852  0.00  0.00    +0.000 A 
ATOM      6  S   UNL     1      49.532   9.226  13.936  0.00  0.00    +0.000 S 
ATOM      7  C   UNL     1      50.901   8.489  14.615  0.00  0.00    +0.000 A 
ATOM      8  N   UNL     1      52.146   8.974  14.368  0.00  0.00    +0.000 NA
ATOM      9  C   UNL     1      53.084   8.365  15.012  0.00  0.00    +0.000 A 
ATOM     10  N   UNL     1      52.889   7.287  15.838  0.00  0.00    +0.000 N 
ATOM     11  C   UNL     1      51.672   6.673  16.000  0.00  0.00    +0.000 A 
ATOM     12  O   UNL     1      51.578   5.574  16.530  0.00  0.00    +0.000 OA
ATOM     13  C   UNL     1      50.564   7.414  15.418  0.00  0.00    +0.000 A 
ATOM     14  H   UNL     1      53.670   6.794  16.236  0.00  0.00    +0.000 HD
ENDBRANCH   2   4
BRANCH   1  16
ATOM     15  C   UNL     1      47.704   2.911  17.086  0.00  0.00    +0.000 C 
ATOM     16  C   UNL     1      47.101   4.303  16.954  0.00  0.00    +0.000 C 
ENDBRANCH   1  16
BRANCH   1  17
ATOM     17  C   UNL     1      47.799   4.828  14.574  0.00  0.00    +0.000 C 
BRANCH  17  18
ATOM     18  C   UNL     1      46.616   5.141  13.687  0.00  0.00    +0.000 A 
ATOM     19  C   UNL     1      46.803   5.958  12.571  0.00  0.00    +0.000 A 
ATOM     20  C   UNL     1      45.835   5.968  11.572  0.00  0.00    +0.000 A 
ATOM     21  C   UNL     1      44.696   5.174  11.710  0.00  0.00    +0.000 A 
ATOM     22  C   UNL     1      44.562   4.452  12.891  0.00  0.00    +0.000 A 
ATOM     23  N   UNL     1      45.485   4.421  13.878  0.00  0.00    +0.000 NA
BRANCH  21  24
ATOM     24  C   UNL     1      43.706   5.043  10.582  0.00  0.00    +0.000 C 
BRANCH  24  25
ATOM     25  C   UNL     1      44.151   4.112   9.451  0.00  0.00    +0.000 C 
ATOM     26  C   UNL     1      44.875   2.882   9.975  0.00  0.00    +0.000 C 
ATOM     27  C   UNL     1      45.608   2.380   8.745  0.00  0.00    +0.000 C 
ATOM     28  C   UNL     1      45.886   3.634   7.926  0.00  0.00    +0.000 C 
ATOM     29  N   UNL     1      45.163   4.723   8.583  0.00  0.00    +0.000 NA
ATOM     30  H   UNL     1      44.728   5.343   7.899  0.00  0.00    +0.000 HD
ENDBRANCH  24  25
ENDBRANCH  21  24
ENDBRANCH  17  18
ENDBRANCH   1  17
TORSDOF 6
ENDMDL
MODEL 9
REMARK VINA RESULT:    -6.148      3.618      7.758
REMARK INTER + INTRA:          -9.522
REMARK INTER:                  -7.999
REMARK INTRA:                  -1.523
REMARK UNBOUND:                -1.217
REMARK  Name = 
REMARK  7 active torsions:
REMARK  status: ('A' for Active; 'I' for Inactive)
REMARK    1  A    between atoms: C_1  and  C_2
REMARK    2  A    between atoms: C_2  and  N_3
REMARK    3  A    between atoms: N_3  and  C_4
REMARK    4  A    between atoms: C_4  and  C_5
REMARK    5  A    between atoms: C_8  and  C_9
REMARK    6  A    between atoms: C_9  and  C_10
REMARK    7  A    between atoms: C_17  and  C_19
REMARK                            x       y       z     vdW  Elec       q    Type
REMARK                         _______ _______ _______ _____ _____    ______ ____
ROOT
ATOM      1  N   UNL     1      48.518   8.100  17.657  0.00  0.00    +0.000 N 
ATOM      2  C   UNL     1      48.662   6.942  18.449  0.00  0.00    +0.000 C 
ATOM      3  O   UNL     1      47.993   6.792  19.470  0.00  0.00    +0.000 OA
ENDROOT
BRANCH   2   4
ATOM      4  C   UNL     1      49.671   5.917  18.096  0.00  0.00    +0.000 A 
ATOM      5  C   UNL     1      51.009   5.940  18.460  0.00  0.00    +0.000 A 
ATOM      6  S   UNL     1      51.893   4.566  17.967  0.00  0.00    +0.000 S 
ATOM      7  C   UNL     1      50.482   3.805  17.409  0.00  0.00    +0.000 A 
ATOM      8  N   UNL     1      50.509   2.514  16.988  0.00  0.00    +0.000 NA
ATOM      9  C   UNL     1      49.351   2.042  16.668  0.00  0.00    +0.000 A 
ATOM     10  N   UNL     1      48.185   2.763  16.685  0.00  0.00    +0.000 N 
ATOM     11  C   UNL     1      48.134   4.106  16.960  0.00  0.00    +0.000 A 
ATOM     12  O   UNL     1      47.133   4.769  16.718  0.00  0.00    +0.000 OA
ATOM     13  C   UNL     1      49.384   4.643  17.474  0.00  0.00    +0.000 A 
ATOM     14  H   UNL     1      47.329   2.368  16.332  0.00  0.00    +0.000 HD
ENDBRANCH   2   4
BRANCH   1  16
ATOM     15  C   UNL     1      48.040  10.545  17.805  0.00  0.00    +0.000 C 
ATOM     16  C   UNL     1      47.579   9.127  18.114  0.00  0.00    +0.000 C 
ENDBRANCH   1  16
BRANCH   1  17
ATOM     17  C   UNL     1      49.275   8.297  16.422  0.00  0.00    +0.000 C 
BRANCH  17  18
ATOM     18  C   UNL     1      48.682   8.019  15.061  0.00  0.00    +0.000 A 
ATOM     19  C   UNL     1      48.918   6.782  14.457  0.00  0.00    +0.000 A 
ATOM     20  C   UNL     1      48.112   6.383  13.397  0.00  0.00    +0.000 A 
ATOM     21  C   UNL     1      47.094   7.226  12.952  0.00  0.00    +0.000 A 
ATOM     22  C   UNL     1      46.983   8.470  13.564  0.00  0.00    +0.000 A 
ATOM     23  N   UNL     1      47.750   8.885  14.597  0.00  0.00    +0.000 NA
BRANCH  21  24
ATOM     24  C   UNL     1      46.108   6.761  11.912  0.00  0.00    +0.000 C 
BRANCH  24  25
ATOM     25  C   UNL     1      45.188   5.627  12.371  0.00  0.00    +0.000 C 
ATOM     26  C   UNL     1      44.567   4.884  11.198  0.00  0.00    +0.000 C 
ATOM     27  C   UNL     1      43.392   4.172  11.841  0.00  0.00    +0.000 C 
ATOM     28  C   UNL     1      42.981   5.077  12.995  0.00  0.00    +0.000 C 
ATOM     29  N   UNL     1      44.006   6.116  13.091  0.00  0.00    +0.000 NA
ATOM     30  H   UNL     1      44.234   6.322  14.063  0.00  0.00    +0.000 HD
ENDBRANCH  24  25
ENDBRANCH  21  24
ENDBRANCH  17  18
ENDBRANCH   1  17
TORSDOF 6
ENDMDL
