MODEL 1
REMARK VINA RESULT:    -7.985      0.000      0.000
REMARK INTER + INTRA:         -12.533
REMARK INTER:                 -11.720
REMARK INTRA:                  -0.813
REMARK UNBOUND:                -0.813
REMARK  Name = 
REMARK  9 active torsions:
REMARK  status: ('A' for Active; 'I' for Inactive)
REMARK    1  A    between atoms: C_1  and  C_2
REMARK    2  A    between atoms: C_2  and  C_3
REMARK    3  A    between atoms: C_3  and  N_4
REMARK    4  A    between atoms: C_3  and  C_17
REMARK    5  A    between atoms: C_5  and  C_7
REMARK    6  A    between atoms: C_20  and  C_21
REMARK    7  A    between atoms: C_21  and  N_22
REMARK    8  A    between atoms: N_22  and  C_23
REMARK    9  A    between atoms: C_23  and  C_24
REMARK                            x       y       z     vdW  Elec       q    Type
REMARK                         _______ _______ _______ _____ _____    ______ ____
ROOT
ATOM      1  C   UNL     1      46.937   8.313  13.067  0.00  0.00    +0.000 C 
ENDROOT
BRANCH   1   2
ATOM      2  C   UNL     1      46.181   7.179  12.391  0.00  0.00    +0.000 A 
ATOM      3  C   UNL     1      46.611   6.786  11.112  0.00  0.00    +0.000 A 
ATOM      4  C   UNL     1      45.966   5.769  10.407  0.00  0.00    +0.000 A 
ATOM      5  C   UNL     1      44.863   5.106  10.956  0.00  0.00    +0.000 A 
ATOM      6  C   UNL     1      44.405   5.513  12.217  0.00  0.00    +0.000 A 
ATOM      7  C   UNL     1      45.053   6.544  12.926  0.00  0.00    +0.000 A 
BRANCH   5   8
ATOM      8  C   UNL     1      44.192   3.997  10.173  0.00  0.00    +0.000 C 
BRANCH   8   9
ATOM      9  N   UNL     1      44.100   4.345   8.752  0.00  0.00    +0.000 NA
ATOM     10  H   UNL     1      44.606   5.217   8.595  0.00  0.00    +0.000 HD
BRANCH   9  11
ATOM     11  C   UNL     1      44.654   3.294   7.889  0.00  0.00    +0.000 C 
BRANCH  11  12
ATOM     12  C   UNL     1      46.206   3.282   7.968  0.00  0.00    +0.000 C 
ATOM     13  C   UNL     1      46.807   1.899   7.775  0.00  0.00    +0.000 C 
ATOM     14  C   UNL     1      46.838   1.727   6.267  0.00  0.00    +0.000 C 
ATOM     15  C   UNL     1      46.884   3.147   5.715  0.00  0.00    +0.000 C 
ATOM     16  N   UNL     1      46.836   4.043   6.874  0.00  0.00    +0.000 NA
ATOM     17  H   UNL     1      46.253   4.859   6.671  0.00  0.00    +0.000 HD
ENDBRANCH  11  12
ENDBRANCH   9  11
ENDBRANCH   8   9
ENDBRANCH   5   8
ENDBRANCH   1   2
BRANCH   1  18
ATOM     18  N   UNL     1      47.430   7.858  14.356  0.00  0.00    +0.000 N 
ATOM     19  C   UNL     1      48.387   6.877  14.452  0.00  0.00    +0.000 C 
ATOM     20  O   UNL     1      49.004   6.459  13.476  0.00  0.00    +0.000 OA
ATOM     21  H   UNL     1      46.846   8.063  15.159  0.00  0.00    +0.000 HD
BRANCH  19  22
ATOM     22  C   UNL     1      48.654   6.353  15.791  0.00  0.00    +0.000 A 
ATOM     23  C   UNL     1      49.491   7.046  16.657  0.00  0.00    +0.000 A 
ATOM     24  S   UNL     1      49.719   6.260  18.154  0.00  0.00    +0.000 S 
ATOM     25  C   UNL     1      48.757   4.942  17.671  0.00  0.00    +0.000 A 
ATOM     26  N   UNL     1      48.596   3.858  18.475  0.00  0.00    +0.000 NA
ATOM     27  C   UNL     1      47.891   2.907  17.956  0.00  0.00    +0.000 A 
ATOM     28  N   UNL     1      47.308   2.957  16.718  0.00  0.00    +0.000 N 
ATOM     29  C   UNL     1      47.375   4.061  15.905  0.00  0.00    +0.000 A 
ATOM     30  O   UNL     1      46.736   4.123  14.857  0.00  0.00    +0.000 OA
ATOM     31  C   UNL     1      48.217   5.129  16.411  0.00  0.00    +0.000 A 
ATOM     32  H   UNL     1      46.736   2.194  16.387  0.00  0.00    +0.000 HD
ENDBRANCH  19  22
ENDBRANCH   1  18
BRANCH   1  34
ATOM     33  C   UNL     1      47.766  10.394  11.823  0.00  0.00    +0.000 C 
ATOM     34  C   UNL     1      48.085   8.977  12.280  0.00  0.00    +0.000 C 
ENDBRANCH   1  34
TORSDOF 8
ENDMDL
MODEL 2
REMARK VINA RESULT:    -7.211      4.389      8.950
REMARK INTER + INTRA:         -11.397
REMARK INTER:                 -10.148
REMARK INTRA:                  -1.249
REMARK UNBOUND:                -0.813
REMARK  Name = 
REMARK  9 active torsions:
REMARK  status: ('A' for Active; 'I' for Inactive)
REMARK    1  A    between atoms: C_1  and  C_2
REMARK    2  A    between atoms: C_2  and  C_3
REMARK    3  A    between atoms: C_3  and  N_4
REMARK    4  A    between atoms: C_3  and  C_17
REMARK    5  A    between atoms: C_5  and  C_7
REMARK    6  A    between atoms: C_20  and  C_21
REMARK    7  A    between atoms: C_21  and  N_22
REMARK    8  A    between atoms: N_22  and  C_23
REMARK    9  A    between atoms: C_23  and  C_24
REMARK                            x       y       z     vdW  Elec       q    Type
REMARK                         _______ _______ _______ _____ _____    ______ ____
ROOT
ATOM      1  C   UNL     1      48.791   6.281  16.988  0.00  0.00    +0.000 C 
ENDROOT
BRANCH   1   2
ATOM      2  C   UNL     1      49.716   5.087  17.167  0.00  0.00    +0.000 A 
ATOM      3  C   UNL     1      49.128   3.812  17.210  0.00  0.00    +0.000 A 
ATOM      4  C   UNL     1      49.895   2.661  17.391  0.00  0.00    +0.000 A 
ATOM      5  C   UNL     1      51.284   2.742  17.538  0.00  0.00    +0.000 A 
ATOM      6  C   UNL     1      51.879   4.013  17.530  0.00  0.00    +0.000 A 
ATOM      7  C   UNL     1      51.102   5.175  17.353  0.00  0.00    +0.000 A 
BRANCH   5   8
ATOM      8  C   UNL     1      52.092   1.474  17.719  0.00  0.00    +0.000 C 
BRANCH   8   9
ATOM      9  N   UNL     1      53.143   1.666  18.722  0.00  0.00    +0.000 NA
ATOM     10  H   UNL     1      52.758   1.462  19.644  0.00  0.00    +0.000 HD
BRANCH   9  11
ATOM     11  C   UNL     1      54.307   0.804  18.474  0.00  0.00    +0.000 C 
BRANCH  11  12
ATOM     12  C   UNL     1      53.859  -0.560  17.879  0.00  0.00    +0.000 C 
ATOM     13  C   UNL     1      54.992  -1.325  17.214  0.00  0.00    +0.000 C 
ATOM     14  C   UNL     1      55.694  -2.010  18.374  0.00  0.00    +0.000 C 
ATOM     15  C   UNL     1      54.623  -2.139  19.452  0.00  0.00    +0.000 C 
ATOM     16  N   UNL     1      53.414  -1.511  18.912  0.00  0.00    +0.000 NA
ATOM     17  H   UNL     1      52.926  -0.989  19.643  0.00  0.00    +0.000 HD
ENDBRANCH  11  12
ENDBRANCH   9  11
ENDBRANCH   8   9
ENDBRANCH   5   8
ENDBRANCH   1   2
BRANCH   1  18
ATOM     18  N   UNL     1      47.898   6.031  15.869  0.00  0.00    +0.000 N 
ATOM     19  C   UNL     1      48.242   6.380  14.586  0.00  0.00    +0.000 C 
ATOM     20  O   UNL     1      49.372   6.751  14.283  0.00  0.00    +0.000 OA
ATOM     21  H   UNL     1      46.922   5.875  16.098  0.00  0.00    +0.000 HD
BRANCH  19  22
ATOM     22  C   UNL     1      47.189   6.275  13.576  0.00  0.00    +0.000 A 
ATOM     23  C   UNL     1      46.686   7.422  12.972  0.00  0.00    +0.000 A 
ATOM     24  S   UNL     1      45.435   7.109  11.856  0.00  0.00    +0.000 S 
ATOM     25  C   UNL     1      45.483   5.439  12.188  0.00  0.00    +0.000 A 
ATOM     26  N   UNL     1      44.600   4.583  11.610  0.00  0.00    +0.000 NA
ATOM     27  C   UNL     1      44.712   3.356  12.000  0.00  0.00    +0.000 A 
ATOM     28  N   UNL     1      45.649   2.905  12.892  0.00  0.00    +0.000 N 
ATOM     29  C   UNL     1      46.611   3.717  13.438  0.00  0.00    +0.000 A 
ATOM     30  O   UNL     1      47.514   3.258  14.134  0.00  0.00    +0.000 OA
ATOM     31  C   UNL     1      46.483   5.119  13.089  0.00  0.00    +0.000 A 
ATOM     32  H   UNL     1      45.708   1.925  13.125  0.00  0.00    +0.000 HD
ENDBRANCH  19  22
ENDBRANCH   1  18
BRANCH   1  34
ATOM     33  C   UNL     1      48.532   7.985  18.884  0.00  0.00    +0.000 C 
ATOM     34  C   UNL     1      47.971   6.741  18.210  0.00  0.00    +0.000 C 
ENDBRANCH   1  34
TORSDOF 8
ENDMDL
MODEL 3
REMARK VINA RESULT:    -7.184      1.887      2.608
REMARK INTER + INTRA:         -11.357
REMARK INTER:                 -10.251
REMARK INTRA:                  -1.106
REMARK UNBOUND:                -0.813
REMARK  Name = 
REMARK  9 active torsions:
REMARK  status: ('A' for Active; 'I' for Inactive)
REMARK    1  A    between atoms: C_1  and  C_2
REMARK    2  A    between atoms: C_2  and  C_3
REMARK    3  A    between atoms: C_3  and  N_4
REMARK    4  A    between atoms: C_3  and  C_17
REMARK    5  A    between atoms: C_5  and  C_7
REMARK    6  A    between atoms: C_20  and  C_21
REMARK    7  A    between atoms: C_21  and  N_22
REMARK    8  A    between atoms: N_22  and  C_23
REMARK    9  A    between atoms: C_23  and  C_24
REMARK                            x       y       z     vdW  Elec       q    Type
REMARK                         _______ _______ _______ _____ _____    ______ ____
ROOT
ATOM      1  C   UNL     1      47.893   7.008  13.555  0.00  0.00    +0.000 C 
ENDROOT
BRANCH   1   2
ATOM      2  C   UNL     1      46.922   6.274  12.644  0.00  0.00    +0.000 A 
ATOM      3  C   UNL     1      46.325   5.103  13.142  0.00  0.00    +0.000 A 
ATOM      4  C   UNL     1      45.437   4.353  12.371  0.00  0.00    +0.000 A 
ATOM      5  C   UNL     1      45.112   4.746  11.067  0.00  0.00    +0.000 A 
ATOM      6  C   UNL     1      45.728   5.894  10.548  0.00  0.00    +0.000 A 
ATOM      7  C   UNL     1      46.629   6.648  11.326  0.00  0.00    +0.000 A 
BRANCH   5   8
ATOM      8  C   UNL     1      44.134   3.919  10.259  0.00  0.00    +0.000 C 
BRANCH   8   9
ATOM      9  N   UNL     1      44.169   4.305   8.846  0.00  0.00    +0.000 NA
ATOM     10  H   UNL     1      44.754   5.135   8.747  0.00  0.00    +0.000 HD
BRANCH   9  11
ATOM     11  C   UNL     1      44.693   3.231   7.993  0.00  0.00    +0.000 C 
BRANCH  11  12
ATOM     12  C   UNL     1      46.248   3.232   8.005  0.00  0.00    +0.000 C 
ATOM     13  C   UNL     1      46.852   1.878   7.670  0.00  0.00    +0.000 C 
ATOM     14  C   UNL     1      46.819   1.834   6.152  0.00  0.00    +0.000 C 
ATOM     15  C   UNL     1      46.829   3.297   5.722  0.00  0.00    +0.000 C 
ATOM     16  N   UNL     1      46.823   4.090   6.955  0.00  0.00    +0.000 NA
ATOM     17  H   UNL     1      46.225   4.913   6.847  0.00  0.00    +0.000 HD
ENDBRANCH  11  12
ENDBRANCH   9  11
ENDBRANCH   8   9
ENDBRANCH   5   8
ENDBRANCH   1   2
BRANCH   1  18
ATOM     18  N   UNL     1      48.172   6.185  14.721  0.00  0.00    +0.000 N 
ATOM     19  C   UNL     1      48.608   6.737  15.900  0.00  0.00    +0.000 C 
ATOM     20  O   UNL     1      48.619   7.949  16.098  0.00  0.00    +0.000 OA
ATOM     21  H   UNL     1      48.321   5.196  14.548  0.00  0.00    +0.000 HD
BRANCH  19  22
ATOM     22  C   UNL     1      49.056   5.803  16.933  0.00  0.00    +0.000 A 
ATOM     23  C   UNL     1      48.125   5.103  17.690  0.00  0.00    +0.000 A 
ATOM     24  S   UNL     1      48.831   4.097  18.873  0.00  0.00    +0.000 S 
ATOM     25  C   UNL     1      50.399   4.610  18.453  0.00  0.00    +0.000 A 
ATOM     26  N   UNL     1      51.487   4.179  19.143  0.00  0.00    +0.000 NA
ATOM     27  C   UNL     1      52.605   4.697  18.755  0.00  0.00    +0.000 A 
ATOM     28  N   UNL     1      52.735   5.582  17.717  0.00  0.00    +0.000 N 
ATOM     29  C   UNL     1      51.677   5.982  16.940  0.00  0.00    +0.000 A 
ATOM     30  O   UNL     1      51.844   6.676  15.940  0.00  0.00    +0.000 OA
ATOM     31  C   UNL     1      50.387   5.486  17.382  0.00  0.00    +0.000 A 
ATOM     32  H   UNL     1      53.645   5.920  17.439  0.00  0.00    +0.000 HD
ENDBRANCH  19  22
ENDBRANCH   1  18
BRANCH   1  34
ATOM     33  C   UNL     1      49.202   8.971  12.557  0.00  0.00    +0.000 C 
ATOM     34  C   UNL     1      49.220   7.498  12.941  0.00  0.00    +0.000 C 
ENDBRANCH   1  34
TORSDOF 8
ENDMDL
MODEL 4
REMARK VINA RESULT:    -7.092      2.318      3.037
REMARK INTER + INTRA:         -11.221
REMARK INTER:                 -10.026
REMARK INTRA:                  -1.195
REMARK UNBOUND:                -0.813
REMARK  Name = 
REMARK  9 active torsions:
REMARK  status: ('A' for Active; 'I' for Inactive)
REMARK    1  A    between atoms: C_1  and  C_2
REMARK    2  A    between atoms: C_2  and  C_3
REMARK    3  A    between atoms: C_3  and  N_4
REMARK    4  A    between atoms: C_3  and  C_17
REMARK    5  A    between atoms: C_5  and  C_7
REMARK    6  A    between atoms: C_20  and  C_21
REMARK    7  A    between atoms: C_21  and  N_22
REMARK    8  A    between atoms: N_22  and  C_23
REMARK    9  A    between atoms: C_23  and  C_24
REMARK                            x       y       z     vdW  Elec       q    Type
REMARK                         _______ _______ _______ _____ _____    ______ ____
ROOT
ATOM      1  C   UNL     1      48.745   7.665  12.784  0.00  0.00    +0.000 C 
ENDROOT
BRANCH   1   2
ATOM      2  C   UNL     1      47.452   6.865  12.770  0.00  0.00    +0.000 A 
ATOM      3  C   UNL     1      47.358   5.770  13.646  0.00  0.00    +0.000 A 
ATOM      4  C   UNL     1      46.218   4.967  13.688  0.00  0.00    +0.000 A 
ATOM      5  C   UNL     1      45.127   5.228  12.852  0.00  0.00    +0.000 A 
ATOM      6  C   UNL     1      45.223   6.298  11.951  0.00  0.00    +0.000 A 
ATOM      7  C   UNL     1      46.377   7.106  11.905  0.00  0.00    +0.000 A 
BRANCH   5   8
ATOM      8  C   UNL     1      43.898   4.346  12.931  0.00  0.00    +0.000 C 
BRANCH   8   9
ATOM      9  N   UNL     1      44.217   2.973  12.533  0.00  0.00    +0.000 NA
ATOM     10  H   UNL     1      43.346   2.472  12.356  0.00  0.00    +0.000 HD
BRANCH   9  11
ATOM     11  C   UNL     1      45.062   2.927  11.333  0.00  0.00    +0.000 C 
BRANCH  11  12
ATOM     12  C   UNL     1      44.188   2.803  10.054  0.00  0.00    +0.000 C 
ATOM     13  C   UNL     1      44.309   4.001   9.126  0.00  0.00    +0.000 C 
ATOM     14  C   UNL     1      45.578   3.723   8.341  0.00  0.00    +0.000 C 
ATOM     15  C   UNL     1      45.730   2.206   8.374  0.00  0.00    +0.000 C 
ATOM     16  N   UNL     1      44.616   1.697   9.179  0.00  0.00    +0.000 NA
ATOM     17  H   UNL     1      44.928   0.921   9.769  0.00  0.00    +0.000 HD
ENDBRANCH  11  12
ENDBRANCH   9  11
ENDBRANCH   8   9
ENDBRANCH   5   8
ENDBRANCH   1   2
BRANCH   1  18
ATOM     18  N   UNL     1      49.667   7.069  13.738  0.00  0.00    +0.000 N 
ATOM     19  C   UNL     1      49.957   7.682  14.932  0.00  0.00    +0.000 C 
ATOM     20  O   UNL     1      49.335   8.658  15.342  0.00  0.00    +0.000 OA
ATOM     21  H   UNL     1      50.299   6.365  13.373  0.00  0.00    +0.000 HD
BRANCH  19  22
ATOM     22  C   UNL     1      51.049   7.103  15.715  0.00  0.00    +0.000 A 
ATOM     23  C   UNL     1      52.356   7.524  15.504  0.00  0.00    +0.000 A 
ATOM     24  S   UNL     1      53.497   6.707  16.473  0.00  0.00    +0.000 S 
ATOM     25  C   UNL     1      52.291   5.723  17.161  0.00  0.00    +0.000 A 
ATOM     26  N   UNL     1      52.606   4.733  18.036  0.00  0.00    +0.000 NA
ATOM     27  C   UNL     1      51.598   4.026  18.430  0.00  0.00    +0.000 A 
ATOM     28  N   UNL     1      50.299   4.243  18.050  0.00  0.00    +0.000 N 
ATOM     29  C   UNL     1      49.923   5.279  17.233  0.00  0.00    +0.000 A 
ATOM     30  O   UNL     1      48.739   5.523  17.014  0.00  0.00    +0.000 OA
ATOM     31  C   UNL     1      51.027   6.058  16.705  0.00  0.00    +0.000 A 
ATOM     32  H   UNL     1      49.552   3.678  18.425  0.00  0.00    +0.000 HD
ENDBRANCH  19  22
ENDBRANCH   1  18
BRANCH   1  34
ATOM     33  C   UNL     1      50.431   9.063  11.453  0.00  0.00    +0.000 C 
ATOM     34  C   UNL     1      49.466   7.885  11.439  0.00  0.00    +0.000 C 
ENDBRANCH   1  34
TORSDOF 8
ENDMDL
MODEL 5
REMARK VINA RESULT:    -7.054      2.406      3.653
REMARK INTER + INTRA:         -11.166
REMARK INTER:                  -9.729
REMARK INTRA:                  -1.437
REMARK UNBOUND:                -0.813
REMARK  Name = 
REMARK  9 active torsions:
REMARK  status: ('A' for Active; 'I' for Inactive)
REMARK    1  A    between atoms: C_1  and  C_2
REMARK    2  A    between atoms: C_2  and  C_3
REMARK    3  A    between atoms: C_3  and  N_4
REMARK    4  A    between atoms: C_3  and  C_17
REMARK    5  A    between atoms: C_5  and  C_7
REMARK    6  A    between atoms: C_20  and  C_21
REMARK    7  A    between atoms: C_21  and  N_22
REMARK    8  A    between atoms: N_22  and  C_23
REMARK    9  A    between atoms: C_23  and  C_24
REMARK                            x       y       z     vdW  Elec       q    Type
REMARK                         _______ _______ _______ _____ _____    ______ ____
ROOT
ATOM      1  C   UNL     1      47.538   4.689  14.962  0.00  0.00    +0.000 C 
ENDROOT
BRANCH   1   2
ATOM      2  C   UNL     1      46.703   4.749  13.692  0.00  0.00    +0.000 A 
ATOM      3  C   UNL     1      46.108   3.555  13.252  0.00  0.00    +0.000 A 
ATOM      4  C   UNL     1      45.342   3.509  12.087  0.00  0.00    +0.000 A 
ATOM      5  C   UNL     1      45.143   4.659  11.315  0.00  0.00    +0.000 A 
ATOM      6  C   UNL     1      45.760   5.849  11.727  0.00  0.00    +0.000 A 
ATOM      7  C   UNL     1      46.539   5.893  12.901  0.00  0.00    +0.000 A 
BRANCH   5   8
ATOM      8  C   UNL     1      44.295   4.581  10.063  0.00  0.00    +0.000 C 
BRANCH   8   9
ATOM      9  N   UNL     1      44.334   3.233   9.491  0.00  0.00    +0.000 NA
ATOM     10  H   UNL     1      43.401   2.825   9.549  0.00  0.00    +0.000 HD
BRANCH   9  11
ATOM     11  C   UNL     1      44.782   3.239   8.092  0.00  0.00    +0.000 C 
BRANCH  11  12
ATOM     12  C   UNL     1      46.334   3.238   8.015  0.00  0.00    +0.000 C 
ATOM     13  C   UNL     1      46.915   1.886   7.632  0.00  0.00    +0.000 C 
ATOM     14  C   UNL     1      46.795   1.858   6.119  0.00  0.00    +0.000 C 
ATOM     15  C   UNL     1      46.784   3.325   5.703  0.00  0.00    +0.000 C 
ATOM     16  N   UNL     1      46.850   4.106   6.942  0.00  0.00    +0.000 NA
ATOM     17  H   UNL     1      46.248   4.931   6.877  0.00  0.00    +0.000 HD
ENDBRANCH  11  12
ENDBRANCH   9  11
ENDBRANCH   8   9
ENDBRANCH   5   8
ENDBRANCH   1   2
BRANCH   1  18
ATOM     18  N   UNL     1      47.584   6.011  15.567  0.00  0.00    +0.000 N 
ATOM     19  C   UNL     1      48.778   6.641  15.821  0.00  0.00    +0.000 C 
ATOM     20  O   UNL     1      49.851   6.219  15.399  0.00  0.00    +0.000 OA
ATOM     21  H   UNL     1      46.748   6.310  16.058  0.00  0.00    +0.000 HD
BRANCH  19  22
ATOM     22  C   UNL     1      48.713   7.865  16.619  0.00  0.00    +0.000 A 
ATOM     23  C   UNL     1      49.137   9.073  16.077  0.00  0.00    +0.000 A 
ATOM     24  S   UNL     1      49.030  10.380  17.168  0.00  0.00    +0.000 S 
ATOM     25  C   UNL     1      48.473   9.365  18.416  0.00  0.00    +0.000 A 
ATOM     26  N   UNL     1      48.252   9.847  19.667  0.00  0.00    +0.000 NA
ATOM     27  C   UNL     1      47.890   8.953  20.528  0.00  0.00    +0.000 A 
ATOM     28  N   UNL     1      47.700   7.627  20.240  0.00  0.00    +0.000 N 
ATOM     29  C   UNL     1      47.833   7.111  18.976  0.00  0.00    +0.000 A 
ATOM     30  O   UNL     1      47.533   5.946  18.727  0.00  0.00    +0.000 OA
ATOM     31  C   UNL     1      48.309   8.059  17.987  0.00  0.00    +0.000 A 
ATOM     32  H   UNL     1      47.379   6.987  20.952  0.00  0.00    +0.000 HD
ENDBRANCH  19  22
ENDBRANCH   1  18
BRANCH   1  34
ATOM     33  C   UNL     1      48.339   2.927  16.641  0.00  0.00    +0.000 C 
ATOM     34  C   UNL     1      47.146   3.647  16.029  0.00  0.00    +0.000 C 
ENDBRANCH   1  34
TORSDOF 8
ENDMDL
MODEL 6
REMARK VINA RESULT:    -6.988      2.145      2.683
REMARK INTER + INTRA:         -11.069
REMARK INTER:                 -10.056
REMARK INTRA:                  -1.013
REMARK UNBOUND:                -0.813
REMARK  Name = 
REMARK  9 active torsions:
REMARK  status: ('A' for Active; 'I' for Inactive)
REMARK    1  A    between atoms: C_1  and  C_2
REMARK    2  A    between atoms: C_2  and  C_3
REMARK    3  A    between atoms: C_3  and  N_4
REMARK    4  A    between atoms: C_3  and  C_17
REMARK    5  A    between atoms: C_5  and  C_7
REMARK    6  A    between atoms: C_20  and  C_21
REMARK    7  A    between atoms: C_21  and  N_22
REMARK    8  A    between atoms: N_22  and  C_23
REMARK    9  A    between atoms: C_23  and  C_24
REMARK                            x       y       z     vdW  Elec       q    Type
REMARK                         _______ _______ _______ _____ _____    ______ ____
ROOT
ATOM      1  C   UNL     1      47.865   7.488  13.493  0.00  0.00    +0.000 C 
ENDROOT
BRANCH   1   2
ATOM      2  C   UNL     1      46.696   6.632  13.030  0.00  0.00    +0.000 A 
ATOM      3  C   UNL     1      46.569   5.350  13.591  0.00  0.00    +0.000 A 
ATOM      4  C   UNL     1      45.540   4.487  13.212  0.00  0.00    +0.000 A 
ATOM      5  C   UNL     1      44.596   4.875  12.255  0.00  0.00    +0.000 A 
ATOM      6  C   UNL     1      44.732   6.140  11.664  0.00  0.00    +0.000 A 
ATOM      7  C   UNL     1      45.776   7.009  12.043  0.00  0.00    +0.000 A 
BRANCH   5   8
ATOM      8  C   UNL     1      43.483   3.922  11.874  0.00  0.00    +0.000 C 
BRANCH   8   9
ATOM      9  N   UNL     1      44.028   2.646  11.404  0.00  0.00    +0.000 NA
ATOM     10  H   UNL     1      43.270   2.094  11.001  0.00  0.00    +0.000 HD
BRANCH   9  11
ATOM     11  C   UNL     1      45.086   2.833  10.403  0.00  0.00    +0.000 C 
BRANCH  11  12
ATOM     12  C   UNL     1      44.625   2.305   9.016  0.00  0.00    +0.000 C 
ATOM     13  C   UNL     1      44.797   3.323   7.900  0.00  0.00    +0.000 C 
ATOM     14  C   UNL     1      46.260   3.192   7.514  0.00  0.00    +0.000 C 
ATOM     15  C   UNL     1      46.641   1.772   7.917  0.00  0.00    +0.000 C 
ATOM     16  N   UNL     1      45.448   1.183   8.533  0.00  0.00    +0.000 NA
ATOM     17  H   UNL     1      45.709   0.605   9.336  0.00  0.00    +0.000 HD
ENDBRANCH  11  12
ENDBRANCH   9  11
ENDBRANCH   8   9
ENDBRANCH   5   8
ENDBRANCH   1   2
BRANCH   1  18
ATOM     18  N   UNL     1      47.886   7.524  14.946  0.00  0.00    +0.000 N 
ATOM     19  C   UNL     1      48.506   8.542  15.628  0.00  0.00    +0.000 C 
ATOM     20  O   UNL     1      48.916   9.557  15.071  0.00  0.00    +0.000 OA
ATOM     21  H   UNL     1      47.701   6.647  15.420  0.00  0.00    +0.000 HD
BRANCH  19  22
ATOM     22  C   UNL     1      48.649   8.368  17.073  0.00  0.00    +0.000 A 
ATOM     23  C   UNL     1      48.374   9.425  17.933  0.00  0.00    +0.000 A 
ATOM     24  S   UNL     1      48.638   9.050  19.575  0.00  0.00    +0.000 S 
ATOM     25  C   UNL     1      49.187   7.486  19.187  0.00  0.00    +0.000 A 
ATOM     26  N   UNL     1      49.650   6.645  20.149  0.00  0.00    +0.000 NA
ATOM     27  C   UNL     1      50.090   5.515  19.704  0.00  0.00    +0.000 A 
ATOM     28  N   UNL     1      50.079   5.139  18.386  0.00  0.00    +0.000 N 
ATOM     29  C   UNL     1      49.548   5.921  17.392  0.00  0.00    +0.000 A 
ATOM     30  O   UNL     1      49.438   5.503  16.241  0.00  0.00    +0.000 OA
ATOM     31  C   UNL     1      49.107   7.231  17.829  0.00  0.00    +0.000 A 
ATOM     32  H   UNL     1      50.404   4.225  18.109  0.00  0.00    +0.000 HD
ENDBRANCH  19  22
ENDBRANCH   1  18
BRANCH   1  34
ATOM     33  C   UNL     1      49.626   7.834  11.663  0.00  0.00    +0.000 C 
ATOM     34  C   UNL     1      49.268   7.128  12.965  0.00  0.00    +0.000 C 
ENDBRANCH   1  34
TORSDOF 8
ENDMDL
MODEL 7
REMARK VINA RESULT:    -6.849      2.093      2.529
REMARK INTER + INTRA:         -10.864
REMARK INTER:                 -10.056
REMARK INTRA:                  -0.808
REMARK UNBOUND:                -0.813
REMARK  Name = 
REMARK  9 active torsions:
REMARK  status: ('A' for Active; 'I' for Inactive)
REMARK    1  A    between atoms: C_1  and  C_2
REMARK    2  A    between atoms: C_2  and  C_3
REMARK    3  A    between atoms: C_3  and  N_4
REMARK    4  A    between atoms: C_3  and  C_17
REMARK    5  A    between atoms: C_5  and  C_7
REMARK    6  A    between atoms: C_20  and  C_21
REMARK    7  A    between atoms: C_21  and  N_22
REMARK    8  A    between atoms: N_22  and  C_23
REMARK    9  A    between atoms: C_23  and  C_24
REMARK                            x       y       z     vdW  Elec       q    Type
REMARK                         _______ _______ _______ _____ _____    ______ ____
ROOT
ATOM      1  C   UNL     1      47.832   6.789  13.388  0.00  0.00    +0.000 C 
ENDROOT
BRANCH   1   2
ATOM      2  C   UNL     1      46.830   5.896  12.673  0.00  0.00    +0.000 A 
ATOM      3  C   UNL     1      46.408   6.293  11.393  0.00  0.00    +0.000 A 
ATOM      4  C   UNL     1      45.477   5.547  10.669  0.00  0.00    +0.000 A 
ATOM      5  C   UNL     1      44.930   4.374  11.201  0.00  0.00    +0.000 A 
ATOM      6  C   UNL     1      45.320   3.987  12.492  0.00  0.00    +0.000 A 
ATOM      7  C   UNL     1      46.256   4.744  13.224  0.00  0.00    +0.000 A 
BRANCH   5   8
ATOM      8  C   UNL     1      43.932   3.578  10.387  0.00  0.00    +0.000 C 
BRANCH   8   9
ATOM      9  N   UNL     1      44.525   2.324   9.917  0.00  0.00    +0.000 NA
ATOM     10  H   UNL     1      43.864   1.565  10.084  0.00  0.00    +0.000 HD
BRANCH   9  11
ATOM     11  C   UNL     1      44.866   2.374   8.489  0.00  0.00    +0.000 C 
BRANCH  11  12
ATOM     12  C   UNL     1      46.374   2.701   8.298  0.00  0.00    +0.000 C 
ATOM     13  C   UNL     1      47.118   1.651   7.489  0.00  0.00    +0.000 C 
ATOM     14  C   UNL     1      46.809   2.020   6.049  0.00  0.00    +0.000 C 
ATOM     15  C   UNL     1      46.499   3.513   6.089  0.00  0.00    +0.000 C 
ATOM     16  N   UNL     1      46.594   3.916   7.495  0.00  0.00    +0.000 NA
ATOM     17  H   UNL     1      45.859   4.592   7.723  0.00  0.00    +0.000 HD
ENDBRANCH  11  12
ENDBRANCH   9  11
ENDBRANCH   8   9
ENDBRANCH   5   8
ENDBRANCH   1   2
BRANCH   1  18
ATOM     18  N   UNL     1      48.011   6.313  14.750  0.00  0.00    +0.000 N 
ATOM     19  C   UNL     1      48.663   7.069  15.694  0.00  0.00    +0.000 C 
ATOM     20  O   UNL     1      48.970   8.243  15.503  0.00  0.00    +0.000 OA
ATOM     21  H   UNL     1      47.913   5.314  14.894  0.00  0.00    +0.000 HD
BRANCH  19  22
ATOM     22  C   UNL     1      48.969   6.408  16.962  0.00  0.00    +0.000 A 
ATOM     23  C   UNL     1      49.663   5.205  16.971  0.00  0.00    +0.000 A 
ATOM     24  S   UNL     1      49.888   4.563  18.535  0.00  0.00    +0.000 S 
ATOM     25  C   UNL     1      49.013   5.839  19.245  0.00  0.00    +0.000 A 
ATOM     26  N   UNL     1      48.763   5.862  20.580  0.00  0.00    +0.000 NA
ATOM     27  C   UNL     1      48.036   6.857  20.971  0.00  0.00    +0.000 A 
ATOM     28  N   UNL     1      47.565   7.847  20.149  0.00  0.00    +0.000 N 
ATOM     29  C   UNL     1      47.859   7.909  18.811  0.00  0.00    +0.000 A 
ATOM     30  O   UNL     1      47.529   8.876  18.128  0.00  0.00    +0.000 OA
ATOM     31  C   UNL     1      48.612   6.776  18.308  0.00  0.00    +0.000 A 
ATOM     32  H   UNL     1      47.034   8.619  20.525  0.00  0.00    +0.000 HD
ENDBRANCH  19  22
ENDBRANCH   1  18
BRANCH   1  34
ATOM     33  C   UNL     1      49.335   8.313  11.979  0.00  0.00    +0.000 C 
ATOM     34  C   UNL     1      49.210   6.993  12.727  0.00  0.00    +0.000 C 
ENDBRANCH   1  34
TORSDOF 8
ENDMDL
MODEL 8
REMARK VINA RESULT:    -6.561      3.466      8.284
REMARK INTER + INTRA:         -10.442
REMARK INTER:                  -8.293
REMARK INTRA:                  -2.149
REMARK UNBOUND:                -0.813
REMARK  Name = 
REMARK  9 active torsions:
REMARK  status: ('A' for Active; 'I' for Inactive)
REMARK    1  A    between atoms: C_1  and  C_2
REMARK    2  A    between atoms: C_2  and  C_3
REMARK    3  A    between atoms: C_3  and  N_4
REMARK    4  A    between atoms: C_3  and  C_17
REMARK    5  A    between atoms: C_5  and  C_7
REMARK    6  A    between atoms: C_20  and  C_21
REMARK    7  A    between atoms: C_21  and  N_22
REMARK    8  A    between atoms: N_22  and  C_23
REMARK    9  A    between atoms: C_23  and  C_24
REMARK                            x       y       z     vdW  Elec       q    Type
REMARK                         _______ _______ _______ _____ _____    ______ ____
ROOT
ATOM      1  C   UNL     1      48.569   8.340  14.199  0.00  0.00    +0.000 C 
ENDROOT
BRANCH   1   2
ATOM      2  C   UNL     1      49.139   8.184  15.600  0.00  0.00    +0.000 A 
ATOM      3  C   UNL     1      50.277   7.373  15.750  0.00  0.00    +0.000 A 
ATOM      4  C   UNL     1      50.857   7.156  17.000  0.00  0.00    +0.000 A 
ATOM      5  C   UNL     1      50.319   7.742  18.151  0.00  0.00    +0.000 A 
ATOM      6  C   UNL     1      49.164   8.527  18.017  0.00  0.00    +0.000 A 
ATOM      7  C   UNL     1      48.575   8.741  16.755  0.00  0.00    +0.000 A 
BRANCH   5   8
ATOM      8  C   UNL     1      50.979   7.500  19.492  0.00  0.00    +0.000 C 
BRANCH   8   9
ATOM      9  N   UNL     1      50.091   6.745  20.380  0.00  0.00    +0.000 NA
ATOM     10  H   UNL     1      49.157   7.152  20.334  0.00  0.00    +0.000 HD
BRANCH   9  11
ATOM     11  C   UNL     1      50.025   5.323  20.017  0.00  0.00    +0.000 C 
BRANCH  11  12
ATOM     12  C   UNL     1      48.566   4.798  20.127  0.00  0.00    +0.000 C 
ATOM     13  C   UNL     1      47.602   5.503  19.185  0.00  0.00    +0.000 C 
ATOM     14  C   UNL     1      47.807   4.790  17.860  0.00  0.00    +0.000 C 
ATOM     15  C   UNL     1      48.324   3.407  18.241  0.00  0.00    +0.000 C 
ATOM     16  N   UNL     1      48.434   3.394  19.702  0.00  0.00    +0.000 NA
ATOM     17  H   UNL     1      49.275   2.888  19.992  0.00  0.00    +0.000 HD
ENDBRANCH  11  12
ENDBRANCH   9  11
ENDBRANCH   8   9
ENDBRANCH   5   8
ENDBRANCH   1   2
BRANCH   1  18
ATOM     18  N   UNL     1      47.483   7.391  14.015  0.00  0.00    +0.000 N 
ATOM     19  C   UNL     1      47.650   6.244  13.277  0.00  0.00    +0.000 C 
ATOM     20  O   UNL     1      48.750   5.865  12.885  0.00  0.00    +0.000 OA
ATOM     21  H   UNL     1      46.547   7.741  14.187  0.00  0.00    +0.000 HD
BRANCH  19  22
ATOM     22  C   UNL     1      46.441   5.474  12.985  0.00  0.00    +0.000 A 
ATOM     23  C   UNL     1      46.419   4.102  13.205  0.00  0.00    +0.000 A 
ATOM     24  S   UNL     1      44.944   3.368  12.764  0.00  0.00    +0.000 S 
ATOM     25  C   UNL     1      44.310   4.847  12.209  0.00  0.00    +0.000 A 
ATOM     26  N   UNL     1      43.085   4.912  11.625  0.00  0.00    +0.000 NA
ATOM     27  C   UNL     1      42.758   6.086  11.196  0.00  0.00    +0.000 A 
ATOM     28  N   UNL     1      43.535   7.207  11.328  0.00  0.00    +0.000 N 
ATOM     29  C   UNL     1      44.741   7.207  11.981  0.00  0.00    +0.000 A 
ATOM     30  O   UNL     1      45.353   8.251  12.194  0.00  0.00    +0.000 OA
ATOM     31  C   UNL     1      45.187   5.897  12.417  0.00  0.00    +0.000 A 
ATOM     32  H   UNL     1      43.203   8.104  11.005  0.00  0.00    +0.000 HD
ENDBRANCH  19  22
ENDBRANCH   1  18
BRANCH   1  34
ATOM     33  C   UNL     1      49.218  10.784  13.784  0.00  0.00    +0.000 C 
ATOM     34  C   UNL     1      48.105   9.745  13.766  0.00  0.00    +0.000 C 
ENDBRANCH   1  34
TORSDOF 8
ENDMDL
MODEL 9
REMARK VINA RESULT:    -6.470      2.619      3.843
REMARK INTER + INTRA:         -10.309
REMARK INTER:                  -9.109
REMARK INTRA:                  -1.201
REMARK UNBOUND:                -0.813
REMARK  Name = 
REMARK  9 active torsions:
REMARK  status: ('A' for Active; 'I' for Inactive)
REMARK    1  A    between atoms: C_1  and  C_2
REMARK    2  A    between atoms: C_2  and  C_3
REMARK    3  A    between atoms: C_3  and  N_4
REMARK    4  A    between atoms: C_3  and  C_17
REMARK    5  A    between atoms: C_5  and  C_7
REMARK    6  A    between atoms: C_20  and  C_21
REMARK    7  A    between atoms: C_21  and  N_22
REMARK    8  A    between atoms: N_22  and  C_23
REMARK    9  A    between atoms: C_23  and  C_24
REMARK                            x       y       z     vdW  Elec       q    Type
REMARK                         _______ _______ _______ _____ _____    ______ ____
ROOT
ATOM      1  C   UNL     1      46.655   7.853  13.216  0.00  0.00    +0.000 C 
ENDROOT
BRANCH   1   2
ATOM      2  C   UNL     1      46.086   6.645  12.488  0.00  0.00    +0.000 A 
ATOM      3  C   UNL     1      46.132   6.653  11.084  0.00  0.00    +0.000 A 
ATOM      4  C   UNL     1      45.616   5.598  10.331  0.00  0.00    +0.000 A 
ATOM      5  C   UNL     1      45.029   4.492  10.957  0.00  0.00    +0.000 A 
ATOM      6  C   UNL     1      44.947   4.489  12.357  0.00  0.00    +0.000 A 
ATOM      7  C   UNL     1      45.465   5.558  13.116  0.00  0.00    +0.000 A 
BRANCH   5   8
ATOM      8  C   UNL     1      44.490   3.356  10.114  0.00  0.00    +0.000 C 
BRANCH   8   9
ATOM      9  N   UNL     1      44.092   3.835   8.788  0.00  0.00    +0.000 NA
ATOM     10  H   UNL     1      44.337   4.822   8.708  0.00  0.00    +0.000 HD
BRANCH   9  11
ATOM     11  C   UNL     1      44.742   3.079   7.709  0.00  0.00    +0.000 C 
BRANCH  11  12
ATOM     12  C   UNL     1      46.289   3.158   7.842  0.00  0.00    +0.000 C 
ATOM     13  C   UNL     1      46.980   1.825   7.605  0.00  0.00    +0.000 C 
ATOM     14  C   UNL     1      47.070   1.730   6.092  0.00  0.00    +0.000 C 
ATOM     15  C   UNL     1      47.046   3.177   5.611  0.00  0.00    +0.000 C 
ATOM     16  N   UNL     1      46.905   4.008   6.809  0.00  0.00    +0.000 NA
ATOM     17  H   UNL     1      46.280   4.797   6.625  0.00  0.00    +0.000 HD
ENDBRANCH  11  12
ENDBRANCH   9  11
ENDBRANCH   8   9
ENDBRANCH   5   8
ENDBRANCH   1   2
BRANCH   1  18
ATOM     18  N   UNL     1      48.027   7.573  13.607  0.00  0.00    +0.000 N 
ATOM     19  C   UNL     1      48.614   8.214  14.671  0.00  0.00    +0.000 C 
ATOM     20  O   UNL     1      47.977   8.914  15.454  0.00  0.00    +0.000 OA
ATOM     21  H   UNL     1      48.613   7.132  12.907  0.00  0.00    +0.000 HD
BRANCH  19  22
ATOM     22  C   UNL     1      50.052   8.012  14.843  0.00  0.00    +0.000 A 
ATOM     23  C   UNL     1      50.548   7.512  16.041  0.00  0.00    +0.000 A 
ATOM     24  S   UNL     1      52.249   7.388  16.073  0.00  0.00    +0.000 S 
ATOM     25  C   UNL     1      52.382   8.055  14.512  0.00  0.00    +0.000 A 
ATOM     26  N   UNL     1      53.596   8.299  13.954  0.00  0.00    +0.000 NA
ATOM     27  C   UNL     1      53.547   8.863  12.792  0.00  0.00    +0.000 A 
ATOM     28  N   UNL     1      52.390   9.177  12.127  0.00  0.00    +0.000 N 
ATOM     29  C   UNL     1      51.144   8.877  12.615  0.00  0.00    +0.000 A 
ATOM     30  O   UNL     1      50.133   9.055  11.940  0.00  0.00    +0.000 OA
ATOM     31  C   UNL     1      51.142   8.308  13.950  0.00  0.00    +0.000 A 
ATOM     32  H   UNL     1      52.421   9.583  11.204  0.00  0.00    +0.000 HD
ENDBRANCH  19  22
ENDBRANCH   1  18
BRANCH   1  34
ATOM     33  C   UNL     1      45.179   9.775  12.382  0.00  0.00    +0.000 C 
ATOM     34  C   UNL     1      46.591   9.217  12.499  0.00  0.00    +0.000 C 
ENDBRANCH   1  34
TORSDOF 8
ENDMDL
