MODEL 1
REMARK VINA RESULT:    -7.441      0.000      0.000
REMARK INTER + INTRA:         -10.378
REMARK INTER:                 -10.051
REMARK INTRA:                  -0.327
REMARK UNBOUND:                -0.327
REMARK  Name = 
REMARK  8 active torsions:
REMARK  status: ('A' for Active; 'I' for Inactive)
REMARK    1  A    between atoms: C_1  and  C_2
REMARK    2  A    between atoms: C_3  and  C_4
REMARK    3  A    between atoms: C_7  and  O_8
REMARK    4  A    between atoms: O_8  and  C_9
REMARK    5  A    between atoms: C_16  and  C_17
REMARK    6  A    between atoms: C_16  and  N_18
REMARK    7  A    between atoms: N_18  and  C_19
REMARK    8  A    between atoms: C_22  and  C_23
REMARK                            x       y       z     vdW  Elec       q    Type
REMARK                         _______ _______ _______ _____ _____    ______ ____
ROOT
ATOM      1  C   UNL     1      43.428   4.548  13.212  0.00  0.00    +0.000 C 
ATOM      2  C   UNL     1      44.806   5.198  13.151  0.00  0.00    +0.000 C 
ATOM      3  C   UNL     1      45.953   4.263  13.678  0.00  0.00    +0.000 C 
ATOM      4  C   UNL     1      46.389   4.071  12.204  0.00  0.00    +0.000 C 
ATOM      5  C   UNL     1      45.615   5.354  11.817  0.00  0.00    +0.000 C 
ATOM      6  C   UNL     1      46.408   6.655  11.734  0.00  0.00    +0.000 C 
ENDROOT
BRANCH   3   7
ATOM      7  C   UNL     1      46.952   4.878  14.756  0.00  0.00    +0.000 A 
ATOM      8  C   UNL     1      47.080   4.288  16.028  0.00  0.00    +0.000 A 
ATOM      9  C   UNL     1      47.955   4.784  17.003  0.00  0.00    +0.000 A 
ATOM     10  C   UNL     1      48.765   5.872  16.718  0.00  0.00    +0.000 A 
ATOM     11  C   UNL     1      48.638   6.501  15.481  0.00  0.00    +0.000 A 
ATOM     12  C   UNL     1      47.754   6.007  14.518  0.00  0.00    +0.000 A 
BRANCH  10  13
ATOM     13  O   UNL     1      49.672   6.442  17.556  0.00  0.00    +0.000 OA
BRANCH  13  14
ATOM     14  C   UNL     1      50.824   5.706  17.939  0.00  0.00    +0.000 C 
ATOM     15  F   UNL     1      51.275   4.846  17.003  0.00  0.00    +0.000 F 
ATOM     16  F   UNL     1      51.820   6.582  18.205  0.00  0.00    +0.000 F 
ATOM     17  F   UNL     1      50.558   5.018  19.071  0.00  0.00    +0.000 F 
ENDBRANCH  13  14
ENDBRANCH  10  13
ENDBRANCH   3   7
BRANCH   5  18
ATOM     18  N   UNL     1      44.795   5.163  10.642  0.00  0.00    +0.000 N 
ATOM     19  H   UNL     1      44.316   6.010  10.348  0.00  0.00    +0.000 HD
BRANCH  18  20
ATOM     20  C   UNL     1      45.228   4.448   9.498  0.00  0.00    +0.000 A 
ATOM     21  N   UNL     1      46.035   5.054   8.597  0.00  0.00    +0.000 NA
ATOM     22  C   UNL     1      46.527   4.305   7.576  0.00  0.00    +0.000 A 
ATOM     23  C   UNL     1      46.275   2.950   7.404  0.00  0.00    +0.000 A 
ATOM     24  C   UNL     1      45.419   2.336   8.320  0.00  0.00    +0.000 A 
ATOM     25  C   UNL     1      44.902   3.096   9.367  0.00  0.00    +0.000 A 
ATOM     26  F   UNL     1      44.089   2.504  10.258  0.00  0.00    +0.000 F 
BRANCH  23  27
ATOM     27  C   UNL     1      46.949   2.252   6.290  0.00  0.00    +0.000 C 
ATOM     28  N   UNL     1      47.218   2.949   5.142  0.00  0.00    +0.000 N 
ATOM     29  O   UNL     1      47.252   1.064   6.370  0.00  0.00    +0.000 OA
ATOM     30  H   UNL     1      46.973   3.910   4.966  0.00  0.00    +0.000 HD
ATOM     31  H   UNL     1      47.641   2.428   4.384  0.00  0.00    +0.000 HD
ENDBRANCH  23  27
ENDBRANCH  18  20
ENDBRANCH   5  18
TORSDOF 6
ENDMDL
MODEL 2
REMARK VINA RESULT:    -7.390      3.801      8.956
REMARK INTER + INTRA:         -10.310
REMARK INTER:                  -9.543
REMARK INTRA:                  -0.767
REMARK UNBOUND:                -0.327
REMARK  Name = 
REMARK  8 active torsions:
REMARK  status: ('A' for Active; 'I' for Inactive)
REMARK    1  A    between atoms: C_1  and  C_2
REMARK    2  A    between atoms: C_3  and  C_4
REMARK    3  A    between atoms: C_7  and  O_8
REMARK    4  A    between atoms: O_8  and  C_9
REMARK    5  A    between atoms: C_16  and  C_17
REMARK    6  A    between atoms: C_16  and  N_18
REMARK    7  A    between atoms: N_18  and  C_19
REMARK    8  A    between atoms: C_22  and  C_23
REMARK                            x       y       z     vdW  Elec       q    Type
REMARK                         _______ _______ _______ _____ _____    ______ ____
ROOT
ATOM      1  C   UNL     1      46.406   4.499  14.524  0.00  0.00    +0.000 C 
ATOM      2  C   UNL     1      46.598   5.094  13.133  0.00  0.00    +0.000 C 
ATOM      3  C   UNL     1      45.267   5.150  12.299  0.00  0.00    +0.000 C 
ATOM      4  C   UNL     1      45.253   6.680  12.543  0.00  0.00    +0.000 C 
ATOM      5  C   UNL     1      46.763   6.632  12.880  0.00  0.00    +0.000 C 
ATOM      6  C   UNL     1      47.743   6.963  11.759  0.00  0.00    +0.000 C 
ENDROOT
BRANCH   3   7
ATOM      7  C   UNL     1      45.312   4.556  10.821  0.00  0.00    +0.000 A 
ATOM      8  C   UNL     1      45.713   5.363   9.740  0.00  0.00    +0.000 A 
ATOM      9  C   UNL     1      45.782   4.882   8.426  0.00  0.00    +0.000 A 
ATOM     10  C   UNL     1      45.487   3.555   8.159  0.00  0.00    +0.000 A 
ATOM     11  C   UNL     1      45.052   2.738   9.200  0.00  0.00    +0.000 A 
ATOM     12  C   UNL     1      44.975   3.229  10.506  0.00  0.00    +0.000 A 
BRANCH  10  13
ATOM     13  O   UNL     1      45.533   2.949   6.941  0.00  0.00    +0.000 OA
BRANCH  13  14
ATOM     14  C   UNL     1      46.788   2.558   6.407  0.00  0.00    +0.000 C 
ATOM     15  F   UNL     1      47.854   2.967   7.124  0.00  0.00    +0.000 F 
ATOM     16  F   UNL     1      46.826   1.206   6.354  0.00  0.00    +0.000 F 
ATOM     17  F   UNL     1      46.903   3.028   5.146  0.00  0.00    +0.000 F 
ENDBRANCH  13  14
ENDBRANCH  10  13
ENDBRANCH   3   7
BRANCH   5  18
ATOM     18  N   UNL     1      47.076   7.365  14.086  0.00  0.00    +0.000 N 
ATOM     19  H   UNL     1      46.528   7.065  14.889  0.00  0.00    +0.000 HD
BRANCH  18  20
ATOM     20  C   UNL     1      48.400   7.649  14.503  0.00  0.00    +0.000 A 
ATOM     21  N   UNL     1      49.113   6.703  15.154  0.00  0.00    +0.000 NA
ATOM     22  C   UNL     1      50.417   6.967  15.433  0.00  0.00    +0.000 A 
ATOM     23  C   UNL     1      51.075   8.137  15.076  0.00  0.00    +0.000 A 
ATOM     24  C   UNL     1      50.326   9.121  14.430  0.00  0.00    +0.000 A 
ATOM     25  C   UNL     1      48.987   8.866  14.145  0.00  0.00    +0.000 A 
ATOM     26  F   UNL     1      48.267   9.807  13.511  0.00  0.00    +0.000 F 
BRANCH  23  27
ATOM     27  C   UNL     1      52.518   8.243  15.377  0.00  0.00    +0.000 C 
ATOM     28  N   UNL     1      53.400   7.485  14.655  0.00  0.00    +0.000 N 
ATOM     29  O   UNL     1      52.931   8.981  16.268  0.00  0.00    +0.000 OA
ATOM     30  H   UNL     1      53.155   6.823  13.935  0.00  0.00    +0.000 HD
ATOM     31  H   UNL     1      54.375   7.551  14.917  0.00  0.00    +0.000 HD
ENDBRANCH  23  27
ENDBRANCH  18  20
ENDBRANCH   5  18
TORSDOF 6
ENDMDL
MODEL 3
REMARK VINA RESULT:    -6.975      1.301      2.155
REMARK INTER + INTRA:          -9.749
REMARK INTER:                  -9.336
REMARK INTRA:                  -0.413
REMARK UNBOUND:                -0.327
REMARK  Name = 
REMARK  8 active torsions:
REMARK  status: ('A' for Active; 'I' for Inactive)
REMARK    1  A    between atoms: C_1  and  C_2
REMARK    2  A    between atoms: C_3  and  C_4
REMARK    3  A    between atoms: C_7  and  O_8
REMARK    4  A    between atoms: O_8  and  C_9
REMARK    5  A    between atoms: C_16  and  C_17
REMARK    6  A    between atoms: C_16  and  N_18
REMARK    7  A    between atoms: N_18  and  C_19
REMARK    8  A    between atoms: C_22  and  C_23
REMARK                            x       y       z     vdW  Elec       q    Type
REMARK                         _______ _______ _______ _____ _____    ______ ____
ROOT
ATOM      1  C   UNL     1      46.873   6.936  11.189  0.00  0.00    +0.000 C 
ATOM      2  C   UNL     1      46.774   5.747  12.138  0.00  0.00    +0.000 C 
ATOM      3  C   UNL     1      46.323   6.153  13.588  0.00  0.00    +0.000 C 
ATOM      4  C   UNL     1      44.940   5.533  13.265  0.00  0.00    +0.000 C 
ATOM      5  C   UNL     1      45.581   4.730  12.106  0.00  0.00    +0.000 C 
ATOM      6  C   UNL     1      45.999   3.292  12.397  0.00  0.00    +0.000 C 
ENDROOT
BRANCH   3   7
ATOM      7  C   UNL     1      47.203   5.607  14.800  0.00  0.00    +0.000 A 
ATOM      8  C   UNL     1      48.288   6.360  15.289  0.00  0.00    +0.000 A 
ATOM      9  C   UNL     1      49.081   5.930  16.359  0.00  0.00    +0.000 A 
ATOM     10  C   UNL     1      48.785   4.740  17.005  0.00  0.00    +0.000 A 
ATOM     11  C   UNL     1      47.741   3.953  16.525  0.00  0.00    +0.000 A 
ATOM     12  C   UNL     1      46.961   4.384  15.448  0.00  0.00    +0.000 A 
BRANCH  10  13
ATOM     13  O   UNL     1      49.452   4.213  18.068  0.00  0.00    +0.000 OA
BRANCH  13  14
ATOM     14  C   UNL     1      48.931   4.395  19.375  0.00  0.00    +0.000 C 
ATOM     15  F   UNL     1      48.012   5.376  19.480  0.00  0.00    +0.000 F 
ATOM     16  F   UNL     1      48.344   3.240  19.765  0.00  0.00    +0.000 F 
ATOM     17  F   UNL     1      49.947   4.656  20.228  0.00  0.00    +0.000 F 
ENDBRANCH  13  14
ENDBRANCH  10  13
ENDBRANCH   3   7
BRANCH   5  18
ATOM     18  N   UNL     1      44.807   4.817  10.890  0.00  0.00    +0.000 N 
ATOM     19  H   UNL     1      44.463   5.756  10.701  0.00  0.00    +0.000 HD
BRANCH  18  20
ATOM     20  C   UNL     1      45.200   4.209   9.671  0.00  0.00    +0.000 A 
ATOM     21  N   UNL     1      45.969   4.898   8.798  0.00  0.00    +0.000 NA
ATOM     22  C   UNL     1      46.426   4.246   7.698  0.00  0.00    +0.000 A 
ATOM     23  C   UNL     1      46.173   2.909   7.416  0.00  0.00    +0.000 A 
ATOM     24  C   UNL     1      45.355   2.211   8.305  0.00  0.00    +0.000 A 
ATOM     25  C   UNL     1      44.874   2.871   9.434  0.00  0.00    +0.000 A 
ATOM     26  F   UNL     1      44.098   2.197  10.299  0.00  0.00    +0.000 F 
BRANCH  23  27
ATOM     27  C   UNL     1      46.808   2.317   6.220  0.00  0.00    +0.000 C 
ATOM     28  N   UNL     1      47.081   3.126   5.150  0.00  0.00    +0.000 N 
ATOM     29  O   UNL     1      47.075   1.119   6.166  0.00  0.00    +0.000 OA
ATOM     30  H   UNL     1      46.864   4.108   5.084  0.00  0.00    +0.000 HD
ATOM     31  H   UNL     1      47.476   2.679   4.332  0.00  0.00    +0.000 HD
ENDBRANCH  23  27
ENDBRANCH  18  20
ENDBRANCH   5  18
TORSDOF 6
ENDMDL
MODEL 4
REMARK VINA RESULT:    -6.574      5.660      7.073
REMARK INTER + INTRA:          -9.208
REMARK INTER:                  -8.079
REMARK INTRA:                  -1.129
REMARK UNBOUND:                -0.327
REMARK  Name = 
REMARK  8 active torsions:
REMARK  status: ('A' for Active; 'I' for Inactive)
REMARK    1  A    between atoms: C_1  and  C_2
REMARK    2  A    between atoms: C_3  and  C_4
REMARK    3  A    between atoms: C_7  and  O_8
REMARK    4  A    between atoms: O_8  and  C_9
REMARK    5  A    between atoms: C_16  and  C_17
REMARK    6  A    between atoms: C_16  and  N_18
REMARK    7  A    between atoms: N_18  and  C_19
REMARK    8  A    between atoms: C_22  and  C_23
REMARK                            x       y       z     vdW  Elec       q    Type
REMARK                         _______ _______ _______ _____ _____    ______ ____
ROOT
ATOM      1  C   UNL     1      45.435  10.292  12.012  0.00  0.00    +0.000 C 
ATOM      2  C   UNL     1      46.736   9.522  11.817  0.00  0.00    +0.000 C 
ATOM      3  C   UNL     1      47.965  10.200  12.523  0.00  0.00    +0.000 C 
ATOM      4  C   UNL     1      47.896   9.076  13.586  0.00  0.00    +0.000 C 
ATOM      5  C   UNL     1      47.074   8.208  12.603  0.00  0.00    +0.000 C 
ATOM      6  C   UNL     1      47.834   7.179  11.771  0.00  0.00    +0.000 C 
ENDROOT
BRANCH   3   7
ATOM      7  C   UNL     1      49.277  10.418  11.644  0.00  0.00    +0.000 A 
ATOM      8  C   UNL     1      50.445   9.679  11.912  0.00  0.00    +0.000 A 
ATOM      9  C   UNL     1      51.617   9.825  11.159  0.00  0.00    +0.000 A 
ATOM     10  C   UNL     1      51.643  10.694  10.080  0.00  0.00    +0.000 A 
ATOM     11  C   UNL     1      50.516  11.466   9.809  0.00  0.00    +0.000 A 
ATOM     12  C   UNL     1      49.354  11.323  10.573  0.00  0.00    +0.000 A 
BRANCH  10  13
ATOM     13  O   UNL     1      52.699  10.918   9.252  0.00  0.00    +0.000 OA
BRANCH  13  14
ATOM     14  C   UNL     1      52.790  10.200   8.031  0.00  0.00    +0.000 C 
ATOM     15  F   UNL     1      51.914  10.592   7.084  0.00  0.00    +0.000 F 
ATOM     16  F   UNL     1      54.036  10.366   7.530  0.00  0.00    +0.000 F 
ATOM     17  F   UNL     1      52.610   8.882   8.274  0.00  0.00    +0.000 F 
ENDBRANCH  13  14
ENDBRANCH  10  13
ENDBRANCH   3   7
BRANCH   5  18
ATOM     18  N   UNL     1      45.913   7.621  13.232  0.00  0.00    +0.000 N 
ATOM     19  H   UNL     1      45.184   8.300  13.437  0.00  0.00    +0.000 HD
BRANCH  18  20
ATOM     20  C   UNL     1      45.317   6.412  12.794  0.00  0.00    +0.000 A 
ATOM     21  N   UNL     1      44.467   6.429  11.743  0.00  0.00    +0.000 NA
ATOM     22  C   UNL     1      44.007   5.239  11.276  0.00  0.00    +0.000 A 
ATOM     23  C   UNL     1      44.368   4.000  11.791  0.00  0.00    +0.000 A 
ATOM     24  C   UNL     1      45.223   3.990  12.894  0.00  0.00    +0.000 A 
ATOM     25  C   UNL     1      45.695   5.205  13.388  0.00  0.00    +0.000 A 
ATOM     26  F   UNL     1      46.530   5.197  14.441  0.00  0.00    +0.000 F 
BRANCH  23  27
ATOM     27  C   UNL     1      43.849   2.789  11.123  0.00  0.00    +0.000 C 
ATOM     28  N   UNL     1      44.460   2.356   9.976  0.00  0.00    +0.000 N 
ATOM     29  O   UNL     1      42.877   2.183  11.565  0.00  0.00    +0.000 OA
ATOM     30  H   UNL     1      45.234   2.807   9.515  0.00  0.00    +0.000 HD
ATOM     31  H   UNL     1      44.051   1.549   9.522  0.00  0.00    +0.000 HD
ENDBRANCH  23  27
ENDBRANCH  18  20
ENDBRANCH   5  18
TORSDOF 6
ENDMDL
MODEL 5
REMARK VINA RESULT:    -6.403      4.982      8.362
REMARK INTER + INTRA:          -8.976
REMARK INTER:                  -7.771
REMARK INTRA:                  -1.205
REMARK UNBOUND:                -0.327
REMARK  Name = 
REMARK  8 active torsions:
REMARK  status: ('A' for Active; 'I' for Inactive)
REMARK    1  A    between atoms: C_1  and  C_2
REMARK    2  A    between atoms: C_3  and  C_4
REMARK    3  A    between atoms: C_7  and  O_8
REMARK    4  A    between atoms: O_8  and  C_9
REMARK    5  A    between atoms: C_16  and  C_17
REMARK    6  A    between atoms: C_16  and  N_18
REMARK    7  A    between atoms: N_18  and  C_19
REMARK    8  A    between atoms: C_22  and  C_23
REMARK                            x       y       z     vdW  Elec       q    Type
REMARK                         _______ _______ _______ _____ _____    ______ ____
ROOT
ATOM      1  C   UNL     1      48.649   6.729  15.166  0.00  0.00    +0.000 C 
ATOM      2  C   UNL     1      48.209   6.639  13.710  0.00  0.00    +0.000 C 
ATOM      3  C   UNL     1      46.654   6.776  13.527  0.00  0.00    +0.000 C 
ATOM      4  C   UNL     1      46.907   8.201  12.973  0.00  0.00    +0.000 C 
ATOM      5  C   UNL     1      48.382   7.821  12.694  0.00  0.00    +0.000 C 
ATOM      6  C   UNL     1      48.733   7.364  11.281  0.00  0.00    +0.000 C 
ENDROOT
BRANCH   3   7
ATOM      7  C   UNL     1      45.928   5.668  12.640  0.00  0.00    +0.000 A 
ATOM      8  C   UNL     1      45.338   6.015  11.409  0.00  0.00    +0.000 A 
ATOM      9  C   UNL     1      44.701   5.075  10.589  0.00  0.00    +0.000 A 
ATOM     10  C   UNL     1      44.671   3.740  10.960  0.00  0.00    +0.000 A 
ATOM     11  C   UNL     1      45.215   3.369  12.187  0.00  0.00    +0.000 A 
ATOM     12  C   UNL     1      45.838   4.315  13.006  0.00  0.00    +0.000 A 
BRANCH  10  13
ATOM     13  O   UNL     1      44.111   2.721  10.254  0.00  0.00    +0.000 OA
BRANCH  13  14
ATOM     14  C   UNL     1      44.755   2.252   9.079  0.00  0.00    +0.000 C 
ATOM     15  F   UNL     1      46.102   2.302   9.121  0.00  0.00    +0.000 F 
ATOM     16  F   UNL     1      44.399   0.962   8.884  0.00  0.00    +0.000 F 
ATOM     17  F   UNL     1      44.325   2.970   8.018  0.00  0.00    +0.000 F 
ENDBRANCH  13  14
ENDBRANCH  10  13
ENDBRANCH   3   7
BRANCH   5  18
ATOM     18  N   UNL     1      49.303   8.830  13.164  0.00  0.00    +0.000 N 
ATOM     19  H   UNL     1      49.502   8.756  14.159  0.00  0.00    +0.000 HD
BRANCH  18  20
ATOM     20  C   UNL     1      50.489   9.184  12.474  0.00  0.00    +0.000 A 
ATOM     21  N   UNL     1      51.645   8.545  12.761  0.00  0.00    +0.000 NA
ATOM     22  C   UNL     1      52.735   8.826  12.000  0.00  0.00    +0.000 A 
ATOM     23  C   UNL     1      52.738   9.711  10.929  0.00  0.00    +0.000 A 
ATOM     24  C   UNL     1      51.549  10.389  10.656  0.00  0.00    +0.000 A 
ATOM     25  C   UNL     1      50.427  10.116  11.435  0.00  0.00    +0.000 A 
ATOM     26  F   UNL     1      49.278  10.757  11.165  0.00  0.00    +0.000 F 
BRANCH  23  27
ATOM     27  C   UNL     1      53.981   9.849  10.143  0.00  0.00    +0.000 C 
ATOM     28  N   UNL     1      55.069   9.093  10.490  0.00  0.00    +0.000 N 
ATOM     29  O   UNL     1      54.059  10.638   9.205  0.00  0.00    +0.000 OA
ATOM     30  H   UNL     1      55.116   8.451  11.266  0.00  0.00    +0.000 HD
ATOM     31  H   UNL     1      55.916   9.245   9.958  0.00  0.00    +0.000 HD
ENDBRANCH  23  27
ENDBRANCH  18  20
ENDBRANCH   5  18
TORSDOF 6
ENDMDL
MODEL 6
REMARK VINA RESULT:    -6.117      3.134      4.908
REMARK INTER + INTRA:          -8.590
REMARK INTER:                  -7.499
REMARK INTRA:                  -1.091
REMARK UNBOUND:                -0.327
REMARK  Name = 
REMARK  8 active torsions:
REMARK  status: ('A' for Active; 'I' for Inactive)
REMARK    1  A    between atoms: C_1  and  C_2
REMARK    2  A    between atoms: C_3  and  C_4
REMARK    3  A    between atoms: C_7  and  O_8
REMARK    4  A    between atoms: O_8  and  C_9
REMARK    5  A    between atoms: C_16  and  C_17
REMARK    6  A    between atoms: C_16  and  N_18
REMARK    7  A    between atoms: N_18  and  C_19
REMARK    8  A    between atoms: C_22  and  C_23
REMARK                            x       y       z     vdW  Elec       q    Type
REMARK                         _______ _______ _______ _____ _____    ______ ____
ROOT
ATOM      1  C   UNL     1      49.875   8.449  12.937  0.00  0.00    +0.000 C 
ATOM      2  C   UNL     1      49.688   7.398  14.026  0.00  0.00    +0.000 C 
ATOM      3  C   UNL     1      50.065   7.922  15.458  0.00  0.00    +0.000 C 
ATOM      4  C   UNL     1      48.549   7.976  15.770  0.00  0.00    +0.000 C 
ATOM      5  C   UNL     1      48.281   7.005  14.595  0.00  0.00    +0.000 C 
ATOM      6  C   UNL     1      48.152   5.521  14.927  0.00  0.00    +0.000 C 
ENDROOT
BRANCH   3   7
ATOM      7  C   UNL     1      51.049   7.016  16.325  0.00  0.00    +0.000 A 
ATOM      8  C   UNL     1      50.591   6.386  17.498  0.00  0.00    +0.000 A 
ATOM      9  C   UNL     1      51.413   5.570  18.285  0.00  0.00    +0.000 A 
ATOM     10  C   UNL     1      52.721   5.326  17.896  0.00  0.00    +0.000 A 
ATOM     11  C   UNL     1      53.217   5.961  16.761  0.00  0.00    +0.000 A 
ATOM     12  C   UNL     1      52.393   6.784  15.987  0.00  0.00    +0.000 A 
BRANCH  10  13
ATOM     13  O   UNL     1      53.620   4.540  18.547  0.00  0.00    +0.000 OA
BRANCH  13  14
ATOM     14  C   UNL     1      53.612   3.139  18.321  0.00  0.00    +0.000 C 
ATOM     15  F   UNL     1      52.597   2.702  17.548  0.00  0.00    +0.000 F 
ATOM     16  F   UNL     1      54.769   2.799  17.707  0.00  0.00    +0.000 F 
ATOM     17  F   UNL     1      53.565   2.495  19.508  0.00  0.00    +0.000 F 
ENDBRANCH  13  14
ENDBRANCH  10  13
ENDBRANCH   3   7
BRANCH   5  18
ATOM     18  N   UNL     1      47.195   7.452  13.755  0.00  0.00    +0.000 N 
ATOM     19  H   UNL     1      47.404   8.314  13.256  0.00  0.00    +0.000 HD
BRANCH  18  20
ATOM     20  C   UNL     1      46.459   6.587  12.906  0.00  0.00    +0.000 A 
ATOM     21  N   UNL     1      45.403   5.903  13.403  0.00  0.00    +0.000 NA
ATOM     22  C   UNL     1      44.649   5.178  12.536  0.00  0.00    +0.000 A 
ATOM     23  C   UNL     1      44.875   5.107  11.167  0.00  0.00    +0.000 A 
ATOM     24  C   UNL     1      45.983   5.792  10.665  0.00  0.00    +0.000 A 
ATOM     25  C   UNL     1      46.769   6.533  11.545  0.00  0.00    +0.000 A 
ATOM     26  F   UNL     1      47.827   7.205  11.062  0.00  0.00    +0.000 F 
BRANCH  23  27
ATOM     27  C   UNL     1      43.918   4.341  10.342  0.00  0.00    +0.000 C 
ATOM     28  N   UNL     1      43.981   4.459   8.979  0.00  0.00    +0.000 N 
ATOM     29  O   UNL     1      43.064   3.623  10.856  0.00  0.00    +0.000 OA
ATOM     30  H   UNL     1      44.616   5.052   8.468  0.00  0.00    +0.000 HD
ATOM     31  H   UNL     1      43.283   3.955   8.448  0.00  0.00    +0.000 HD
ENDBRANCH  23  27
ENDBRANCH  18  20
ENDBRANCH   5  18
TORSDOF 6
ENDMDL
MODEL 7
REMARK VINA RESULT:    -6.093      4.794      9.456
REMARK INTER + INTRA:          -8.557
REMARK INTER:                  -7.495
REMARK INTRA:                  -1.062
REMARK UNBOUND:                -0.327
REMARK  Name = 
REMARK  8 active torsions:
REMARK  status: ('A' for Active; 'I' for Inactive)
REMARK    1  A    between atoms: C_1  and  C_2
REMARK    2  A    between atoms: C_3  and  C_4
REMARK    3  A    between atoms: C_7  and  O_8
REMARK    4  A    between atoms: O_8  and  C_9
REMARK    5  A    between atoms: C_16  and  C_17
REMARK    6  A    between atoms: C_16  and  N_18
REMARK    7  A    between atoms: N_18  and  C_19
REMARK    8  A    between atoms: C_22  and  C_23
REMARK                            x       y       z     vdW  Elec       q    Type
REMARK                         _______ _______ _______ _____ _____    ______ ____
ROOT
ATOM      1  C   UNL     1      48.666   9.780  16.153  0.00  0.00    +0.000 C 
ATOM      2  C   UNL     1      48.323   8.371  15.685  0.00  0.00    +0.000 C 
ATOM      3  C   UNL     1      48.478   8.182  14.133  0.00  0.00    +0.000 C 
ATOM      4  C   UNL     1      49.765   7.370  14.423  0.00  0.00    +0.000 C 
ATOM      5  C   UNL     1      49.288   7.151  15.879  0.00  0.00    +0.000 C 
ATOM      6  C   UNL     1      48.564   5.844  16.192  0.00  0.00    +0.000 C 
ENDROOT
BRANCH   3   7
ATOM      7  C   UNL     1      47.251   7.525  13.357  0.00  0.00    +0.000 A 
ATOM      8  C   UNL     1      46.100   8.284  13.070  0.00  0.00    +0.000 A 
ATOM      9  C   UNL     1      45.002   7.755  12.379  0.00  0.00    +0.000 A 
ATOM     10  C   UNL     1      45.041   6.450  11.915  0.00  0.00    +0.000 A 
ATOM     11  C   UNL     1      46.149   5.661  12.211  0.00  0.00    +0.000 A 
ATOM     12  C   UNL     1      47.235   6.193  12.912  0.00  0.00    +0.000 A 
BRANCH  10  13
ATOM     13  O   UNL     1      44.062   5.817  11.212  0.00  0.00    +0.000 OA
BRANCH  13  14
ATOM     14  C   UNL     1      42.944   5.283  11.904  0.00  0.00    +0.000 C 
ATOM     15  F   UNL     1      43.104   5.190  13.239  0.00  0.00    +0.000 F 
ATOM     16  F   UNL     1      41.878   6.084  11.674  0.00  0.00    +0.000 F 
ATOM     17  F   UNL     1      42.659   4.057  11.412  0.00  0.00    +0.000 F 
ENDBRANCH  13  14
ENDBRANCH  10  13
ENDBRANCH   3   7
BRANCH   5  18
ATOM     18  N   UNL     1      50.334   7.414  16.841  0.00  0.00    +0.000 N 
ATOM     19  H   UNL     1      50.076   8.119  17.528  0.00  0.00    +0.000 HD
BRANCH  18  20
ATOM     20  C   UNL     1      51.084   6.393  17.476  0.00  0.00    +0.000 A 
ATOM     21  N   UNL     1      50.610   5.819  18.605  0.00  0.00    +0.000 NA
ATOM     22  C   UNL     1      51.294   4.765  19.119  0.00  0.00    +0.000 A 
ATOM     23  C   UNL     1      52.440   4.220  18.553  0.00  0.00    +0.000 A 
ATOM     24  C   UNL     1      52.941   4.834  17.404  0.00  0.00    +0.000 A 
ATOM     25  C   UNL     1      52.252   5.921  16.871  0.00  0.00    +0.000 A 
ATOM     26  F   UNL     1      52.725   6.505  15.757  0.00  0.00    +0.000 F 
BRANCH  23  27
ATOM     27  C   UNL     1      53.025   3.019  19.185  0.00  0.00    +0.000 C 
ATOM     28  N   UNL     1      52.892   1.811  18.555  0.00  0.00    +0.000 N 
ATOM     29  O   UNL     1      53.608   3.086  20.264  0.00  0.00    +0.000 OA
ATOM     30  H   UNL     1      52.398   1.649  17.692  0.00  0.00    +0.000 HD
ATOM     31  H   UNL     1      53.267   1.004  19.038  0.00  0.00    +0.000 HD
ENDBRANCH  23  27
ENDBRANCH  18  20
ENDBRANCH   5  18
TORSDOF 6
ENDMDL
MODEL 8
REMARK VINA RESULT:    -5.811      2.458      3.892
REMARK INTER + INTRA:          -8.177
REMARK INTER:                  -7.280
REMARK INTRA:                  -0.896
REMARK UNBOUND:                -0.327
REMARK  Name = 
REMARK  8 active torsions:
REMARK  status: ('A' for Active; 'I' for Inactive)
REMARK    1  A    between atoms: C_1  and  C_2
REMARK    2  A    between atoms: C_3  and  C_4
REMARK    3  A    between atoms: C_7  and  O_8
REMARK    4  A    between atoms: O_8  and  C_9
REMARK    5  A    between atoms: C_16  and  C_17
REMARK    6  A    between atoms: C_16  and  N_18
REMARK    7  A    between atoms: N_18  and  C_19
REMARK    8  A    between atoms: C_22  and  C_23
REMARK                            x       y       z     vdW  Elec       q    Type
REMARK                         _______ _______ _______ _____ _____    ______ ____
ROOT
ATOM      1  C   UNL     1      49.259   8.389  11.716  0.00  0.00    +0.000 C 
ATOM      2  C   UNL     1      48.944   7.492  12.907  0.00  0.00    +0.000 C 
ATOM      3  C   UNL     1      49.154   8.207  14.290  0.00  0.00    +0.000 C 
ATOM      4  C   UNL     1      47.612   8.282  14.416  0.00  0.00    +0.000 C 
ATOM      5  C   UNL     1      47.480   7.159  13.359  0.00  0.00    +0.000 C 
ATOM      6  C   UNL     1      47.310   5.731  13.869  0.00  0.00    +0.000 C 
ENDROOT
BRANCH   3   7
ATOM      7  C   UNL     1      50.028   7.438  15.379  0.00  0.00    +0.000 A 
ATOM      8  C   UNL     1      51.432   7.402  15.270  0.00  0.00    +0.000 A 
ATOM      9  C   UNL     1      52.243   6.751  16.207  0.00  0.00    +0.000 A 
ATOM     10  C   UNL     1      51.672   6.146  17.315  0.00  0.00    +0.000 A 
ATOM     11  C   UNL     1      50.284   6.132  17.436  0.00  0.00    +0.000 A 
ATOM     12  C   UNL     1      49.481   6.774  16.489  0.00  0.00    +0.000 A 
BRANCH  10  13
ATOM     13  O   UNL     1      52.336   5.501  18.313  0.00  0.00    +0.000 OA
BRANCH  13  14
ATOM     14  C   UNL     1      52.757   4.161  18.115  0.00  0.00    +0.000 C 
ATOM     15  F   UNL     1      53.977   4.034  17.554  0.00  0.00    +0.000 F 
ATOM     16  F   UNL     1      52.795   3.544  19.319  0.00  0.00    +0.000 F 
ATOM     17  F   UNL     1      51.853   3.517  17.344  0.00  0.00    +0.000 F 
ENDBRANCH  13  14
ENDBRANCH  10  13
ENDBRANCH   3   7
BRANCH   5  18
ATOM     18  N   UNL     1      46.499   7.475  12.346  0.00  0.00    +0.000 N 
ATOM     19  H   UNL     1      46.768   8.264  11.763  0.00  0.00    +0.000 HD
BRANCH  18  20
ATOM     20  C   UNL     1      45.864   6.495  11.543  0.00  0.00    +0.000 A 
ATOM     21  N   UNL     1      46.394   6.168  10.343  0.00  0.00    +0.000 NA
ATOM     22  C   UNL     1      45.828   5.142   9.655  0.00  0.00    +0.000 A 
ATOM     23  C   UNL     1      44.752   4.390  10.109  0.00  0.00    +0.000 A 
ATOM     24  C   UNL     1      44.191   4.751  11.335  0.00  0.00    +0.000 A 
ATOM     25  C   UNL     1      44.757   5.806  12.047  0.00  0.00    +0.000 A 
ATOM     26  F   UNL     1      44.228   6.146  13.235  0.00  0.00    +0.000 F 
BRANCH  23  27
ATOM     27  C   UNL     1      44.299   3.252   9.283  0.00  0.00    +0.000 C 
ATOM     28  N   UNL     1      44.288   3.389   7.921  0.00  0.00    +0.000 N 
ATOM     29  O   UNL     1      43.920   2.202   9.796  0.00  0.00    +0.000 OA
ATOM     30  H   UNL     1      44.540   4.221   7.411  0.00  0.00    +0.000 HD
ATOM     31  H   UNL     1      43.931   2.605   7.390  0.00  0.00    +0.000 HD
ENDBRANCH  23  27
ENDBRANCH  18  20
ENDBRANCH   5  18
TORSDOF 6
ENDMDL
MODEL 9
REMARK VINA RESULT:    -5.662      3.208      4.891
REMARK INTER + INTRA:          -7.975
REMARK INTER:                  -6.661
REMARK INTRA:                  -1.314
REMARK UNBOUND:                -0.327
REMARK  Name = 
REMARK  8 active torsions:
REMARK  status: ('A' for Active; 'I' for Inactive)
REMARK    1  A    between atoms: C_1  and  C_2
REMARK    2  A    between atoms: C_3  and  C_4
REMARK    3  A    between atoms: C_7  and  O_8
REMARK    4  A    between atoms: O_8  and  C_9
REMARK    5  A    between atoms: C_16  and  C_17
REMARK    6  A    between atoms: C_16  and  N_18
REMARK    7  A    between atoms: N_18  and  C_19
REMARK    8  A    between atoms: C_22  and  C_23
REMARK                            x       y       z     vdW  Elec       q    Type
REMARK                         _______ _______ _______ _____ _____    ______ ____
ROOT
ATOM      1  C   UNL     1      48.630   9.394  12.026  0.00  0.00    +0.000 C 
ATOM      2  C   UNL     1      48.941   8.426  13.162  0.00  0.00    +0.000 C 
ATOM      3  C   UNL     1      49.348   9.151  14.495  0.00  0.00    +0.000 C 
ATOM      4  C   UNL     1      47.954   8.772  15.054  0.00  0.00    +0.000 C 
ATOM      5  C   UNL     1      47.827   7.675  13.969  0.00  0.00    +0.000 C 
ATOM      6  C   UNL     1      48.214   6.252  14.362  0.00  0.00    +0.000 C 
ENDROOT
BRANCH   3   7
ATOM      7  C   UNL     1      50.681   8.654  15.213  0.00  0.00    +0.000 A 
ATOM      8  C   UNL     1      50.778   8.653  16.617  0.00  0.00    +0.000 A 
ATOM      9  C   UNL     1      51.923   8.214  17.293  0.00  0.00    +0.000 A 
ATOM     10  C   UNL     1      53.002   7.720  16.578  0.00  0.00    +0.000 A 
ATOM     11  C   UNL     1      52.954   7.739  15.186  0.00  0.00    +0.000 A 
ATOM     12  C   UNL     1      51.812   8.191  14.519  0.00  0.00    +0.000 A 
BRANCH  10  13
ATOM     13  O   UNL     1      54.163   7.240  17.100  0.00  0.00    +0.000 OA
BRANCH  13  14
ATOM     14  C   UNL     1      54.372   5.837  17.158  0.00  0.00    +0.000 C 
ATOM     15  F   UNL     1      55.116   5.341  16.149  0.00  0.00    +0.000 F 
ATOM     16  F   UNL     1      55.010   5.549  18.316  0.00  0.00    +0.000 F 
ATOM     17  F   UNL     1      53.177   5.207  17.171  0.00  0.00    +0.000 F 
ENDBRANCH  13  14
ENDBRANCH  10  13
ENDBRANCH   3   7
BRANCH   5  18
ATOM     18  N   UNL     1      46.542   7.707  13.309  0.00  0.00    +0.000 N 
ATOM     19  H   UNL     1      46.420   8.522  12.712  0.00  0.00    +0.000 HD
BRANCH  18  20
ATOM     20  C   UNL     1      45.960   6.577  12.683  0.00  0.00    +0.000 A 
ATOM     21  N   UNL     1      44.992   5.882  13.323  0.00  0.00    +0.000 NA
ATOM     22  C   UNL     1      44.374   4.880  12.647  0.00  0.00    +0.000 A 
ATOM     23  C   UNL     1      44.651   4.531  11.331  0.00  0.00    +0.000 A 
ATOM     24  C   UNL     1      45.670   5.233  10.685  0.00  0.00    +0.000 A 
ATOM     25  C   UNL     1      46.318   6.258  11.370  0.00  0.00    +0.000 A 
ATOM     26  F   UNL     1      47.289   6.944  10.745  0.00  0.00    +0.000 F 
BRANCH  23  27
ATOM     27  C   UNL     1      43.835   3.471  10.705  0.00  0.00    +0.000 C 
ATOM     28  N   UNL     1      44.123   3.089   9.421  0.00  0.00    +0.000 N 
ATOM     29  O   UNL     1      42.901   2.946  11.305  0.00  0.00    +0.000 OA
ATOM     30  H   UNL     1      44.840   3.487   8.836  0.00  0.00    +0.000 HD
ATOM     31  H   UNL     1      43.516   2.391   9.010  0.00  0.00    +0.000 HD
ENDBRANCH  23  27
ENDBRANCH  18  20
ENDBRANCH   5  18
TORSDOF 6
ENDMDL
