MODEL 1
REMARK VINA RESULT:    -8.224      0.000      0.000
REMARK INTER + INTRA:         -11.923
REMARK INTER:                 -11.109
REMARK INTRA:                  -0.814
REMARK UNBOUND:                -0.814
REMARK  Name = 
REMARK  7 active torsions:
REMARK  status: ('A' for Active; 'I' for Inactive)
REMARK    1  A    between atoms: C_1  and  N_2
REMARK    2  A    between atoms: N_2  and  C_3
REMARK    3  A    between atoms: C_3  and  C_4
REMARK    4  A    between atoms: C_7  and  C_8
REMARK    5  A    between atoms: C_8  and  N_9
REMARK    6  A    between atoms: C_10  and  C_12
REMARK    7  A    between atoms: C_19  and  C_21
REMARK                            x       y       z     vdW  Elec       q    Type
REMARK                         _______ _______ _______ _____ _____    ______ ____
ROOT
ATOM      1  C   UNL     1      47.394   6.248  12.369  0.00  0.00    +0.000 C 
ENDROOT
BRANCH   1   2
ATOM      2  C   UNL     1      47.445   5.681  13.766  0.00  0.00    +0.000 A 
ATOM      3  C   UNL     1      48.224   6.297  14.759  0.00  0.00    +0.000 A 
ATOM      4  C   UNL     1      48.351   5.719  16.023  0.00  0.00    +0.000 A 
ATOM      5  C   UNL     1      47.705   4.510  16.314  0.00  0.00    +0.000 A 
ATOM      6  C   UNL     1      46.867   3.937  15.347  0.00  0.00    +0.000 A 
ATOM      7  C   UNL     1      46.746   4.511  14.080  0.00  0.00    +0.000 A 
BRANCH   5   8
ATOM      8  C   UNL     1      47.934   3.815  17.627  0.00  0.00    +0.000 C 
BRANCH   8   9
ATOM      9  N   UNL     1      49.302   3.424  17.812  0.00  0.00    +0.000 N 
ATOM     10  C   UNL     1      49.844   2.390  17.078  0.00  0.00    +0.000 C 
ATOM     11  O   UNL     1      49.191   1.765  16.245  0.00  0.00    +0.000 OA
ATOM     12  H   UNL     1      49.910   3.943  18.434  0.00  0.00    +0.000 HD
BRANCH  10  13
ATOM     13  C   UNL     1      51.231   2.115  17.379  0.00  0.00    +0.000 A 
ATOM     14  C   UNL     1      52.251   2.948  17.800  0.00  0.00    +0.000 A 
ATOM     15  C   UNL     1      53.409   2.145  17.921  0.00  0.00    +0.000 A 
ATOM     16  C   UNL     1      53.032   0.873  17.565  0.00  0.00    +0.000 A 
ATOM     17  O   UNL     1      51.713   0.838  17.243  0.00  0.00    +0.000 OA
ENDBRANCH  10  13
ENDBRANCH   8   9
ENDBRANCH   5   8
ENDBRANCH   1   2
BRANCH   1  19
ATOM     18  C   UNL     1      46.623   8.667  12.163  0.00  0.00    +0.000 C 
ATOM     19  N   UNL     1      46.347   7.238  12.072  0.00  0.00    +0.000 N 
ATOM     20  C   UNL     1      45.042   6.908  11.657  0.00  0.00    +0.000 C 
ATOM     21  O   UNL     1      44.225   7.788  11.383  0.00  0.00    +0.000 OA
BRANCH  20  22
ATOM     22  C   UNL     1      44.632   5.499  11.580  0.00  0.00    +0.000 A 
ATOM     23  C   UNL     1      43.850   4.856  12.526  0.00  0.00    +0.000 A 
ATOM     24  S   UNL     1      43.478   3.239  12.124  0.00  0.00    +0.000 S 
ATOM     25  C   UNL     1      44.219   3.393  10.602  0.00  0.00    +0.000 A 
ATOM     26  N   UNL     1      44.165   2.382   9.694  0.00  0.00    +0.000 NA
ATOM     27  C   UNL     1      44.712   2.666   8.559  0.00  0.00    +0.000 A 
ATOM     28  N   UNL     1      45.332   3.850   8.262  0.00  0.00    +0.000 N 
ATOM     29  C   UNL     1      45.528   4.849   9.191  0.00  0.00    +0.000 A 
ATOM     30  O   UNL     1      46.283   5.787   8.960  0.00  0.00    +0.000 OA
ATOM     31  C   UNL     1      44.829   4.625  10.446  0.00  0.00    +0.000 A 
ATOM     32  H   UNL     1      45.795   3.981   7.374  0.00  0.00    +0.000 HD
ENDBRANCH  20  22
ENDBRANCH   1  19
TORSDOF 6
ENDMDL
MODEL 2
REMARK VINA RESULT:    -8.157      1.405      2.079
REMARK INTER + INTRA:         -11.833
REMARK INTER:                 -10.626
REMARK INTRA:                  -1.207
REMARK UNBOUND:                -0.814
REMARK  Name = 
REMARK  7 active torsions:
REMARK  status: ('A' for Active; 'I' for Inactive)
REMARK    1  A    between atoms: C_1  and  N_2
REMARK    2  A    between atoms: N_2  and  C_3
REMARK    3  A    between atoms: C_3  and  C_4
REMARK    4  A    between atoms: C_7  and  C_8
REMARK    5  A    between atoms: C_8  and  N_9
REMARK    6  A    between atoms: C_10  and  C_12
REMARK    7  A    between atoms: C_19  and  C_21
REMARK                            x       y       z     vdW  Elec       q    Type
REMARK                         _______ _______ _______ _____ _____    ______ ____
ROOT
ATOM      1  C   UNL     1      47.483   6.530  12.607  0.00  0.00    +0.000 C 
ENDROOT
BRANCH   1   2
ATOM      2  C   UNL     1      47.504   5.783  13.918  0.00  0.00    +0.000 A 
ATOM      3  C   UNL     1      48.266   6.259  14.998  0.00  0.00    +0.000 A 
ATOM      4  C   UNL     1      48.365   5.519  16.178  0.00  0.00    +0.000 A 
ATOM      5  C   UNL     1      47.708   4.288  16.295  0.00  0.00    +0.000 A 
ATOM      6  C   UNL     1      46.887   3.852  15.246  0.00  0.00    +0.000 A 
ATOM      7  C   UNL     1      46.794   4.587  14.063  0.00  0.00    +0.000 A 
BRANCH   5   8
ATOM      8  C   UNL     1      47.907   3.425  17.510  0.00  0.00    +0.000 C 
BRANCH   8   9
ATOM      9  N   UNL     1      49.293   3.185  17.793  0.00  0.00    +0.000 N 
ATOM     10  C   UNL     1      50.008   2.252  17.072  0.00  0.00    +0.000 C 
ATOM     11  O   UNL     1      49.500   1.593  16.168  0.00  0.00    +0.000 OA
ATOM     12  H   UNL     1      49.786   3.743  18.480  0.00  0.00    +0.000 HD
BRANCH  10  13
ATOM     13  C   UNL     1      51.390   2.124  17.476  0.00  0.00    +0.000 A 
ATOM     14  C   UNL     1      52.226   1.024  17.513  0.00  0.00    +0.000 A 
ATOM     15  C   UNL     1      53.471   1.475  18.013  0.00  0.00    +0.000 A 
ATOM     16  C   UNL     1      53.323   2.819  18.253  0.00  0.00    +0.000 A 
ATOM     17  O   UNL     1      52.070   3.228  17.924  0.00  0.00    +0.000 OA
ENDBRANCH  10  13
ENDBRANCH   8   9
ENDBRANCH   5   8
ENDBRANCH   1   2
BRANCH   1  19
ATOM     18  C   UNL     1      46.498   8.828  13.090  0.00  0.00    +0.000 C 
ATOM     19  N   UNL     1      46.431   7.538  12.412  0.00  0.00    +0.000 N 
ATOM     20  C   UNL     1      45.322   7.370  11.560  0.00  0.00    +0.000 C 
ATOM     21  O   UNL     1      44.498   8.273  11.409  0.00  0.00    +0.000 OA
BRANCH  20  22
ATOM     22  C   UNL     1      45.121   6.091  10.864  0.00  0.00    +0.000 A 
ATOM     23  C   UNL     1      45.714   5.751   9.660  0.00  0.00    +0.000 A 
ATOM     24  S   UNL     1      45.349   4.168   9.137  0.00  0.00    +0.000 S 
ATOM     25  C   UNL     1      44.511   3.831  10.578  0.00  0.00    +0.000 A 
ATOM     26  N   UNL     1      44.022   2.587  10.827  0.00  0.00    +0.000 NA
ATOM     27  C   UNL     1      43.470   2.462  11.987  0.00  0.00    +0.000 A 
ATOM     28  N   UNL     1      43.335   3.471  12.904  0.00  0.00    +0.000 N 
ATOM     29  C   UNL     1      43.694   4.776  12.643  0.00  0.00    +0.000 A 
ATOM     30  O   UNL     1      43.348   5.686  13.387  0.00  0.00    +0.000 OA
ATOM     31  C   UNL     1      44.425   4.943  11.397  0.00  0.00    +0.000 A 
ATOM     32  H   UNL     1      42.834   3.318  13.768  0.00  0.00    +0.000 HD
ENDBRANCH  20  22
ENDBRANCH   1  19
TORSDOF 6
ENDMDL
MODEL 3
REMARK VINA RESULT:    -8.116      3.580      8.153
REMARK INTER + INTRA:         -11.777
REMARK INTER:                 -10.520
REMARK INTRA:                  -1.257
REMARK UNBOUND:                -0.814
REMARK  Name = 
REMARK  7 active torsions:
REMARK  status: ('A' for Active; 'I' for Inactive)
REMARK    1  A    between atoms: C_1  and  N_2
REMARK    2  A    between atoms: N_2  and  C_3
REMARK    3  A    between atoms: C_3  and  C_4
REMARK    4  A    between atoms: C_7  and  C_8
REMARK    5  A    between atoms: C_8  and  N_9
REMARK    6  A    between atoms: C_10  and  C_12
REMARK    7  A    between atoms: C_19  and  C_21
REMARK                            x       y       z     vdW  Elec       q    Type
REMARK                         _______ _______ _______ _____ _____    ______ ____
ROOT
ATOM      1  C   UNL     1      47.319   8.094  13.443  0.00  0.00    +0.000 C 
ENDROOT
BRANCH   1   2
ATOM      2  C   UNL     1      46.455   6.935  13.013  0.00  0.00    +0.000 A 
ATOM      3  C   UNL     1      46.683   5.647  13.524  0.00  0.00    +0.000 A 
ATOM      4  C   UNL     1      45.948   4.557  13.054  0.00  0.00    +0.000 A 
ATOM      5  C   UNL     1      44.978   4.735  12.061  0.00  0.00    +0.000 A 
ATOM      6  C   UNL     1      44.699   6.032  11.608  0.00  0.00    +0.000 A 
ATOM      7  C   UNL     1      45.438   7.122  12.071  0.00  0.00    +0.000 A 
BRANCH   5   8
ATOM      8  C   UNL     1      44.270   3.554  11.459  0.00  0.00    +0.000 C 
BRANCH   8   9
ATOM      9  N   UNL     1      45.074   2.865  10.490  0.00  0.00    +0.000 N 
ATOM     10  C   UNL     1      44.995   3.190   9.152  0.00  0.00    +0.000 C 
ATOM     11  O   UNL     1      44.245   4.068   8.733  0.00  0.00    +0.000 OA
ATOM     12  H   UNL     1      45.760   2.178  10.779  0.00  0.00    +0.000 HD
BRANCH  10  13
ATOM     13  C   UNL     1      45.865   2.407   8.301  0.00  0.00    +0.000 A 
ATOM     14  C   UNL     1      46.661   2.777   7.233  0.00  0.00    +0.000 A 
ATOM     15  C   UNL     1      47.282   1.596   6.761  0.00  0.00    +0.000 A 
ATOM     16  C   UNL     1      46.829   0.578   7.564  0.00  0.00    +0.000 A 
ATOM     17  O   UNL     1      45.977   1.056   8.507  0.00  0.00    +0.000 OA
ENDBRANCH  10  13
ENDBRANCH   8   9
ENDBRANCH   5   8
ENDBRANCH   1   2
BRANCH   1  19
ATOM     18  C   UNL     1      49.390   7.519  12.076  0.00  0.00    +0.000 C 
ATOM     19  N   UNL     1      48.777   7.936  13.333  0.00  0.00    +0.000 N 
ATOM     20  C   UNL     1      49.683   8.196  14.380  0.00  0.00    +0.000 C 
ATOM     21  O   UNL     1      50.897   8.084  14.207  0.00  0.00    +0.000 OA
BRANCH  20  22
ATOM     22  C   UNL     1      49.178   8.571  15.708  0.00  0.00    +0.000 A 
ATOM     23  C   UNL     1      48.948   9.874  16.120  0.00  0.00    +0.000 A 
ATOM     24  S   UNL     1      48.289   9.991  17.690  0.00  0.00    +0.000 S 
ATOM     25  C   UNL     1      48.146   8.300  17.811  0.00  0.00    +0.000 A 
ATOM     26  N   UNL     1      47.547   7.726  18.888  0.00  0.00    +0.000 NA
ATOM     27  C   UNL     1      47.450   6.440  18.811  0.00  0.00    +0.000 A 
ATOM     28  N   UNL     1      47.923   5.679  17.775  0.00  0.00    +0.000 N 
ATOM     29  C   UNL     1      48.653   6.203  16.730  0.00  0.00    +0.000 A 
ATOM     30  O   UNL     1      49.254   5.472  15.952  0.00  0.00    +0.000 OA
ATOM     31  C   UNL     1      48.687   7.656  16.713  0.00  0.00    +0.000 A 
ATOM     32  H   UNL     1      47.869   4.671  17.811  0.00  0.00    +0.000 HD
ENDBRANCH  20  22
ENDBRANCH   1  19
TORSDOF 6
ENDMDL
MODEL 4
REMARK VINA RESULT:    -7.846      2.674      8.369
REMARK INTER + INTRA:         -11.412
REMARK INTER:                 -10.269
REMARK INTRA:                  -1.143
REMARK UNBOUND:                -0.814
REMARK  Name = 
REMARK  7 active torsions:
REMARK  status: ('A' for Active; 'I' for Inactive)
REMARK    1  A    between atoms: C_1  and  N_2
REMARK    2  A    between atoms: N_2  and  C_3
REMARK    3  A    between atoms: C_3  and  C_4
REMARK    4  A    between atoms: C_7  and  C_8
REMARK    5  A    between atoms: C_8  and  N_9
REMARK    6  A    between atoms: C_10  and  C_12
REMARK    7  A    between atoms: C_19  and  C_21
REMARK                            x       y       z     vdW  Elec       q    Type
REMARK                         _______ _______ _______ _____ _____    ______ ____
ROOT
ATOM      1  C   UNL     1      49.111   6.774  14.990  0.00  0.00    +0.000 C 
ENDROOT
BRANCH   1   2
ATOM      2  C   UNL     1      47.986   6.672  13.991  0.00  0.00    +0.000 A 
ATOM      3  C   UNL     1      47.218   5.500  13.898  0.00  0.00    +0.000 A 
ATOM      4  C   UNL     1      46.242   5.367  12.909  0.00  0.00    +0.000 A 
ATOM      5  C   UNL     1      46.021   6.402  11.992  0.00  0.00    +0.000 A 
ATOM      6  C   UNL     1      46.735   7.600  12.133  0.00  0.00    +0.000 A 
ATOM      7  C   UNL     1      47.717   7.731  13.117  0.00  0.00    +0.000 A 
BRANCH   5   8
ATOM      8  C   UNL     1      45.062   6.222  10.848  0.00  0.00    +0.000 C 
BRANCH   8   9
ATOM      9  N   UNL     1      45.606   5.409   9.797  0.00  0.00    +0.000 N 
ATOM     10  C   UNL     1      44.999   4.224   9.439  0.00  0.00    +0.000 C 
ATOM     11  O   UNL     1      43.981   3.814   9.993  0.00  0.00    +0.000 OA
ATOM     12  H   UNL     1      46.403   5.724   9.258  0.00  0.00    +0.000 HD
BRANCH  10  13
ATOM     13  C   UNL     1      45.665   3.518   8.367  0.00  0.00    +0.000 A 
ATOM     14  C   UNL     1      46.000   2.184   8.229  0.00  0.00    +0.000 A 
ATOM     15  C   UNL     1      46.658   2.056   6.983  0.00  0.00    +0.000 A 
ATOM     16  C   UNL     1      46.688   3.316   6.434  0.00  0.00    +0.000 A 
ATOM     17  O   UNL     1      46.083   4.210   7.258  0.00  0.00    +0.000 OA
ENDBRANCH  10  13
ENDBRANCH   8   9
ENDBRANCH   5   8
ENDBRANCH   1   2
BRANCH   1  19
ATOM     18  C   UNL     1      48.890   8.929  16.329  0.00  0.00    +0.000 C 
ATOM     19  N   UNL     1      48.840   7.474  16.255  0.00  0.00    +0.000 N 
ATOM     20  C   UNL     1      48.487   6.828  17.456  0.00  0.00    +0.000 C 
ATOM     21  O   UNL     1      48.230   7.478  18.471  0.00  0.00    +0.000 OA
BRANCH  20  22
ATOM     22  C   UNL     1      48.455   5.360  17.516  0.00  0.00    +0.000 A 
ATOM     23  C   UNL     1      47.311   4.593  17.367  0.00  0.00    +0.000 A 
ATOM     24  S   UNL     1      47.602   2.911  17.409  0.00  0.00    +0.000 S 
ATOM     25  C   UNL     1      49.284   3.152  17.475  0.00  0.00    +0.000 A 
ATOM     26  N   UNL     1      50.142   2.099  17.427  0.00  0.00    +0.000 NA
ATOM     27  C   UNL     1      51.388   2.437  17.417  0.00  0.00    +0.000 A 
ATOM     28  N   UNL     1      51.852   3.724  17.481  0.00  0.00    +0.000 N 
ATOM     29  C   UNL     1      51.025   4.812  17.666  0.00  0.00    +0.000 A 
ATOM     30  O   UNL     1      51.484   5.912  17.951  0.00  0.00    +0.000 OA
ATOM     31  C   UNL     1      49.610   4.494  17.566  0.00  0.00    +0.000 A 
ATOM     32  H   UNL     1      52.843   3.913  17.534  0.00  0.00    +0.000 HD
ENDBRANCH  20  22
ENDBRANCH   1  19
TORSDOF 6
ENDMDL
MODEL 5
REMARK VINA RESULT:    -7.443      3.508      8.531
REMARK INTER + INTRA:         -10.867
REMARK INTER:                  -9.691
REMARK INTRA:                  -1.176
REMARK UNBOUND:                -0.814
REMARK  Name = 
REMARK  7 active torsions:
REMARK  status: ('A' for Active; 'I' for Inactive)
REMARK    1  A    between atoms: C_1  and  N_2
REMARK    2  A    between atoms: N_2  and  C_3
REMARK    3  A    between atoms: C_3  and  C_4
REMARK    4  A    between atoms: C_7  and  C_8
REMARK    5  A    between atoms: C_8  and  N_9
REMARK    6  A    between atoms: C_10  and  C_12
REMARK    7  A    between atoms: C_19  and  C_21
REMARK                            x       y       z     vdW  Elec       q    Type
REMARK                         _______ _______ _______ _____ _____    ______ ____
ROOT
ATOM      1  C   UNL     1      47.956   8.271  14.344  0.00  0.00    +0.000 C 
ENDROOT
BRANCH   1   2
ATOM      2  C   UNL     1      46.974   7.499  13.499  0.00  0.00    +0.000 A 
ATOM      3  C   UNL     1      47.120   6.113  13.323  0.00  0.00    +0.000 A 
ATOM      4  C   UNL     1      46.271   5.413  12.463  0.00  0.00    +0.000 A 
ATOM      5  C   UNL     1      45.266   6.089  11.760  0.00  0.00    +0.000 A 
ATOM      6  C   UNL     1      45.073   7.457  11.995  0.00  0.00    +0.000 A 
ATOM      7  C   UNL     1      45.927   8.159  12.849  0.00  0.00    +0.000 A 
BRANCH   5   8
ATOM      8  C   UNL     1      44.428   5.370  10.740  0.00  0.00    +0.000 C 
BRANCH   8   9
ATOM      9  N   UNL     1      45.221   4.632   9.798  0.00  0.00    +0.000 N 
ATOM     10  C   UNL     1      44.851   3.362   9.410  0.00  0.00    +0.000 C 
ATOM     11  O   UNL     1      43.841   2.811   9.844  0.00  0.00    +0.000 OA
ATOM     12  H   UNL     1      46.027   5.055   9.354  0.00  0.00    +0.000 HD
BRANCH  10  13
ATOM     13  C   UNL     1      45.751   2.748   8.459  0.00  0.00    +0.000 A 
ATOM     14  C   UNL     1      46.412   3.275   7.365  0.00  0.00    +0.000 A 
ATOM     15  C   UNL     1      47.147   2.215   6.783  0.00  0.00    +0.000 A 
ATOM     16  C   UNL     1      46.892   1.105   7.552  0.00  0.00    +0.000 A 
ATOM     17  O   UNL     1      46.055   1.415   8.576  0.00  0.00    +0.000 OA
ENDBRANCH  10  13
ENDBRANCH   8   9
ENDBRANCH   5   8
ENDBRANCH   1   2
BRANCH   1  19
ATOM     18  C   UNL     1      50.301   8.068  13.371  0.00  0.00    +0.000 C 
ATOM     19  N   UNL     1      49.335   7.766  14.422  0.00  0.00    +0.000 N 
ATOM     20  C   UNL     1      49.839   7.002  15.493  0.00  0.00    +0.000 C 
ATOM     21  O   UNL     1      51.018   6.647  15.516  0.00  0.00    +0.000 OA
BRANCH  20  22
ATOM     22  C   UNL     1      48.944   6.592  16.583  0.00  0.00    +0.000 A 
ATOM     23  C   UNL     1      48.391   5.328  16.712  0.00  0.00    +0.000 A 
ATOM     24  S   UNL     1      47.452   5.129  18.123  0.00  0.00    +0.000 S 
ATOM     25  C   UNL     1      47.878   6.676  18.686  0.00  0.00    +0.000 A 
ATOM     26  N   UNL     1      47.486   7.105  19.915  0.00  0.00    +0.000 NA
ATOM     27  C   UNL     1      47.940   8.271  20.234  0.00  0.00    +0.000 A 
ATOM     28  N   UNL     1      48.720   9.056  19.428  0.00  0.00    +0.000 N 
ATOM     29  C   UNL     1      49.030   8.722  18.127  0.00  0.00    +0.000 A 
ATOM     30  O   UNL     1      49.527   9.545  17.366  0.00  0.00    +0.000 OA
ATOM     31  C   UNL     1      48.641   7.370  17.763  0.00  0.00    +0.000 A 
ATOM     32  H   UNL     1      48.987   9.986  19.718  0.00  0.00    +0.000 HD
ENDBRANCH  20  22
ENDBRANCH   1  19
TORSDOF 6
ENDMDL
MODEL 6
REMARK VINA RESULT:    -7.350      3.041      8.304
REMARK INTER + INTRA:         -10.743
REMARK INTER:                  -9.575
REMARK INTRA:                  -1.168
REMARK UNBOUND:                -0.814
REMARK  Name = 
REMARK  7 active torsions:
REMARK  status: ('A' for Active; 'I' for Inactive)
REMARK    1  A    between atoms: C_1  and  N_2
REMARK    2  A    between atoms: N_2  and  C_3
REMARK    3  A    between atoms: C_3  and  C_4
REMARK    4  A    between atoms: C_7  and  C_8
REMARK    5  A    between atoms: C_8  and  N_9
REMARK    6  A    between atoms: C_10  and  C_12
REMARK    7  A    between atoms: C_19  and  C_21
REMARK                            x       y       z     vdW  Elec       q    Type
REMARK                         _______ _______ _______ _____ _____    ______ ____
ROOT
ATOM      1  C   UNL     1      49.264   8.031  15.438  0.00  0.00    +0.000 C 
ENDROOT
BRANCH   1   2
ATOM      2  C   UNL     1      48.288   7.723  14.329  0.00  0.00    +0.000 A 
ATOM      3  C   UNL     1      47.506   8.742  13.763  0.00  0.00    +0.000 A 
ATOM      4  C   UNL     1      46.533   8.443  12.807  0.00  0.00    +0.000 A 
ATOM      5  C   UNL     1      46.323   7.118  12.405  0.00  0.00    +0.000 A 
ATOM      6  C   UNL     1      47.156   6.112  12.915  0.00  0.00    +0.000 A 
ATOM      7  C   UNL     1      48.124   6.410  13.877  0.00  0.00    +0.000 A 
BRANCH   5   8
ATOM      8  C   UNL     1      45.198   6.769  11.472  0.00  0.00    +0.000 C 
BRANCH   8   9
ATOM      9  N   UNL     1      45.620   5.921  10.394  0.00  0.00    +0.000 N 
ATOM     10  C   UNL     1      44.871   4.822  10.028  0.00  0.00    +0.000 C 
ATOM     11  O   UNL     1      43.825   4.523  10.598  0.00  0.00    +0.000 OA
ATOM     12  H   UNL     1      46.438   6.151   9.842  0.00  0.00    +0.000 HD
BRANCH  10  13
ATOM     13  C   UNL     1      45.428   4.067   8.928  0.00  0.00    +0.000 A 
ATOM     14  C   UNL     1      45.368   2.717   8.632  0.00  0.00    +0.000 A 
ATOM     15  C   UNL     1      46.109   2.529   7.441  0.00  0.00    +0.000 A 
ATOM     16  C   UNL     1      46.578   3.769   7.081  0.00  0.00    +0.000 A 
ATOM     17  O   UNL     1      46.166   4.712   7.968  0.00  0.00    +0.000 OA
ENDBRANCH  10  13
ENDBRANCH   8   9
ENDBRANCH   5   8
ENDBRANCH   1   2
BRANCH   1  19
ATOM     18  C   UNL     1      47.830   9.279  17.133  0.00  0.00    +0.000 C 
ATOM     19  N   UNL     1      48.727   8.178  16.799  0.00  0.00    +0.000 N 
ATOM     20  C   UNL     1      48.992   7.284  17.855  0.00  0.00    +0.000 C 
ATOM     21  O   UNL     1      48.474   7.442  18.961  0.00  0.00    +0.000 OA
BRANCH  20  22
ATOM     22  C   UNL     1      49.923   6.166  17.650  0.00  0.00    +0.000 A 
ATOM     23  C   UNL     1      51.283   6.220  17.909  0.00  0.00    +0.000 A 
ATOM     24  S   UNL     1      52.091   4.740  17.646  0.00  0.00    +0.000 S 
ATOM     25  C   UNL     1      50.627   3.938  17.325  0.00  0.00    +0.000 A 
ATOM     26  N   UNL     1      50.596   2.594  17.120  0.00  0.00    +0.000 NA
ATOM     27  C   UNL     1      49.408   2.115  16.956  0.00  0.00    +0.000 A 
ATOM     28  N   UNL     1      48.258   2.857  16.947  0.00  0.00    +0.000 N 
ATOM     29  C   UNL     1      48.251   4.234  17.017  0.00  0.00    +0.000 A 
ATOM     30  O   UNL     1      47.234   4.873  16.773  0.00  0.00    +0.000 OA
ATOM     31  C   UNL     1      49.551   4.809  17.319  0.00  0.00    +0.000 A 
ATOM     32  H   UNL     1      47.367   2.424  16.750  0.00  0.00    +0.000 HD
ENDBRANCH  20  22
ENDBRANCH   1  19
TORSDOF 6
ENDMDL
MODEL 7
REMARK VINA RESULT:    -6.909      3.537      8.491
REMARK INTER + INTRA:         -10.146
REMARK INTER:                  -8.914
REMARK INTRA:                  -1.233
REMARK UNBOUND:                -0.814
REMARK  Name = 
REMARK  7 active torsions:
REMARK  status: ('A' for Active; 'I' for Inactive)
REMARK    1  A    between atoms: C_1  and  N_2
REMARK    2  A    between atoms: N_2  and  C_3
REMARK    3  A    between atoms: C_3  and  C_4
REMARK    4  A    between atoms: C_7  and  C_8
REMARK    5  A    between atoms: C_8  and  N_9
REMARK    6  A    between atoms: C_10  and  C_12
REMARK    7  A    between atoms: C_19  and  C_21
REMARK                            x       y       z     vdW  Elec       q    Type
REMARK                         _______ _______ _______ _____ _____    ______ ____
ROOT
ATOM      1  C   UNL     1      48.836   9.193  14.711  0.00  0.00    +0.000 C 
ENDROOT
BRANCH   1   2
ATOM      2  C   UNL     1      47.864   8.554  13.750  0.00  0.00    +0.000 A 
ATOM      3  C   UNL     1      47.078   9.347  12.898  0.00  0.00    +0.000 A 
ATOM      4  C   UNL     1      46.109   8.764  12.079  0.00  0.00    +0.000 A 
ATOM      5  C   UNL     1      45.907   7.379  12.103  0.00  0.00    +0.000 A 
ATOM      6  C   UNL     1      46.744   6.582  12.896  0.00  0.00    +0.000 A 
ATOM      7  C   UNL     1      47.707   7.165  13.721  0.00  0.00    +0.000 A 
BRANCH   5   8
ATOM      8  C   UNL     1      44.785   6.754  11.320  0.00  0.00    +0.000 C 
BRANCH   8   9
ATOM      9  N   UNL     1      45.257   5.902  10.266  0.00  0.00    +0.000 N 
ATOM     10  C   UNL     1      44.763   4.624  10.119  0.00  0.00    +0.000 C 
ATOM     11  O   UNL     1      43.908   4.161  10.872  0.00  0.00    +0.000 OA
ATOM     12  H   UNL     1      45.911   6.248   9.574  0.00  0.00    +0.000 HD
BRANCH  10  13
ATOM     13  C   UNL     1      45.338   3.890   9.013  0.00  0.00    +0.000 A 
ATOM     14  C   UNL     1      45.379   2.534   8.748  0.00  0.00    +0.000 A 
ATOM     15  C   UNL     1      46.087   2.378   7.533  0.00  0.00    +0.000 A 
ATOM     16  C   UNL     1      46.437   3.644   7.129  0.00  0.00    +0.000 A 
ATOM     17  O   UNL     1      45.982   4.570   8.012  0.00  0.00    +0.000 OA
ENDBRANCH  10  13
ENDBRANCH   8   9
ENDBRANCH   5   8
ENDBRANCH   1   2
BRANCH   1  19
ATOM     18  C   UNL     1      51.060   8.507  13.677  0.00  0.00    +0.000 C 
ATOM     19  N   UNL     1      50.172   8.591  14.832  0.00  0.00    +0.000 N 
ATOM     20  C   UNL     1      50.710   8.090  16.034  0.00  0.00    +0.000 C 
ATOM     21  O   UNL     1      51.854   7.637  16.074  0.00  0.00    +0.000 OA
BRANCH  20  22
ATOM     22  C   UNL     1      49.888   8.074  17.252  0.00  0.00    +0.000 A 
ATOM     23  C   UNL     1      49.776   9.133  18.138  0.00  0.00    +0.000 A 
ATOM     24  S   UNL     1      48.687   8.844  19.420  0.00  0.00    +0.000 S 
ATOM     25  C   UNL     1      48.214   7.354  18.750  0.00  0.00    +0.000 A 
ATOM     26  N   UNL     1      47.214   6.623  19.311  0.00  0.00    +0.000 NA
ATOM     27  C   UNL     1      46.918   5.550  18.655  0.00  0.00    +0.000 A 
ATOM     28  N   UNL     1      47.549   5.128  17.516  0.00  0.00    +0.000 N 
ATOM     29  C   UNL     1      48.653   5.764  16.989  0.00  0.00    +0.000 A 
ATOM     30  O   UNL     1      49.328   5.234  16.114  0.00  0.00    +0.000 OA
ATOM     31  C   UNL     1      48.950   7.038  17.622  0.00  0.00    +0.000 A 
ATOM     32  H   UNL     1      47.308   4.244  17.091  0.00  0.00    +0.000 HD
ENDBRANCH  20  22
ENDBRANCH   1  19
TORSDOF 6
ENDMDL
MODEL 8
REMARK VINA RESULT:    -6.821      3.699      8.906
REMARK INTER + INTRA:         -10.028
REMARK INTER:                  -9.705
REMARK INTRA:                  -0.323
REMARK UNBOUND:                -0.814
REMARK  Name = 
REMARK  7 active torsions:
REMARK  status: ('A' for Active; 'I' for Inactive)
REMARK    1  A    between atoms: C_1  and  N_2
REMARK    2  A    between atoms: N_2  and  C_3
REMARK    3  A    between atoms: C_3  and  C_4
REMARK    4  A    between atoms: C_7  and  C_8
REMARK    5  A    between atoms: C_8  and  N_9
REMARK    6  A    between atoms: C_10  and  C_12
REMARK    7  A    between atoms: C_19  and  C_21
REMARK                            x       y       z     vdW  Elec       q    Type
REMARK                         _______ _______ _______ _____ _____    ______ ____
ROOT
ATOM      1  C   UNL     1      47.886   5.616  14.914  0.00  0.00    +0.000 C 
ENDROOT
BRANCH   1   2
ATOM      2  C   UNL     1      46.848   5.094  13.952  0.00  0.00    +0.000 A 
ATOM      3  C   UNL     1      46.796   3.728  13.630  0.00  0.00    +0.000 A 
ATOM      4  C   UNL     1      45.902   3.258  12.667  0.00  0.00    +0.000 A 
ATOM      5  C   UNL     1      45.047   4.148  12.005  0.00  0.00    +0.000 A 
ATOM      6  C   UNL     1      45.046   5.498  12.382  0.00  0.00    +0.000 A 
ATOM      7  C   UNL     1      45.946   5.970  13.339  0.00  0.00    +0.000 A 
BRANCH   5   8
ATOM      8  C   UNL     1      44.169   3.675  10.880  0.00  0.00    +0.000 C 
BRANCH   8   9
ATOM      9  N   UNL     1      44.909   3.004   9.849  0.00  0.00    +0.000 N 
ATOM     10  C   UNL     1      45.454   3.712   8.799  0.00  0.00    +0.000 C 
ATOM     11  O   UNL     1      45.333   4.931   8.697  0.00  0.00    +0.000 OA
ATOM     12  H   UNL     1      45.100   2.011   9.911  0.00  0.00    +0.000 HD
BRANCH  10  13
ATOM     13  C   UNL     1      46.167   2.895   7.842  0.00  0.00    +0.000 A 
ATOM     14  C   UNL     1      46.634   3.184   6.573  0.00  0.00    +0.000 A 
ATOM     15  C   UNL     1      47.243   2.004   6.085  0.00  0.00    +0.000 A 
ATOM     16  C   UNL     1      47.113   1.066   7.081  0.00  0.00    +0.000 A 
ATOM     17  O   UNL     1      46.470   1.595   8.154  0.00  0.00    +0.000 OA
ENDBRANCH  10  13
ENDBRANCH   8   9
ENDBRANCH   5   8
ENDBRANCH   1   2
BRANCH   1  19
ATOM     18  C   UNL     1      47.102   3.867  16.591  0.00  0.00    +0.000 C 
ATOM     19  N   UNL     1      47.940   5.013  16.254  0.00  0.00    +0.000 N 
ATOM     20  C   UNL     1      48.796   5.448  17.284  0.00  0.00    +0.000 C 
ATOM     21  O   UNL     1      48.821   4.870  18.372  0.00  0.00    +0.000 OA
BRANCH  20  22
ATOM     22  C   UNL     1      49.648   6.627  17.078  0.00  0.00    +0.000 A 
ATOM     23  C   UNL     1      50.838   6.622  16.368  0.00  0.00    +0.000 A 
ATOM     24  S   UNL     1      51.566   8.160  16.236  0.00  0.00    +0.000 S 
ATOM     25  C   UNL     1      50.239   8.910  16.989  0.00  0.00    +0.000 A 
ATOM     26  N   UNL     1      50.172  10.263  17.100  0.00  0.00    +0.000 NA
ATOM     27  C   UNL     1      49.077  10.692  17.632  0.00  0.00    +0.000 A 
ATOM     28  N   UNL     1      48.061   9.895  18.089  0.00  0.00    +0.000 N 
ATOM     29  C   UNL     1      48.142   8.519  18.119  0.00  0.00    +0.000 A 
ATOM     30  O   UNL     1      47.324   7.852  18.742  0.00  0.00    +0.000 OA
ATOM     31  C   UNL     1      49.304   7.987  17.425  0.00  0.00    +0.000 A 
ATOM     32  H   UNL     1      47.260  10.297  18.553  0.00  0.00    +0.000 HD
ENDBRANCH  20  22
ENDBRANCH   1  19
TORSDOF 6
ENDMDL
MODEL 9
REMARK VINA RESULT:    -6.349      3.751      8.430
REMARK INTER + INTRA:          -9.390
REMARK INTER:                  -8.120
REMARK INTRA:                  -1.270
REMARK UNBOUND:                -0.814
REMARK  Name = 
REMARK  7 active torsions:
REMARK  status: ('A' for Active; 'I' for Inactive)
REMARK    1  A    between atoms: C_1  and  N_2
REMARK    2  A    between atoms: N_2  and  C_3
REMARK    3  A    between atoms: C_3  and  C_4
REMARK    4  A    between atoms: C_7  and  C_8
REMARK    5  A    between atoms: C_8  and  N_9
REMARK    6  A    between atoms: C_10  and  C_12
REMARK    7  A    between atoms: C_19  and  C_21
REMARK                            x       y       z     vdW  Elec       q    Type
REMARK                         _______ _______ _______ _____ _____    ______ ____
ROOT
ATOM      1  C   UNL     1      50.703   8.120  13.812  0.00  0.00    +0.000 C 
ENDROOT
BRANCH   1   2
ATOM      2  C   UNL     1      49.260   7.965  13.400  0.00  0.00    +0.000 A 
ATOM      3  C   UNL     1      48.520   6.840  13.802  0.00  0.00    +0.000 A 
ATOM      4  C   UNL     1      47.217   6.646  13.341  0.00  0.00    +0.000 A 
ATOM      5  C   UNL     1      46.633   7.570  12.465  0.00  0.00    +0.000 A 
ATOM      6  C   UNL     1      47.345   8.730  12.127  0.00  0.00    +0.000 A 
ATOM      7  C   UNL     1      48.651   8.921  12.581  0.00  0.00    +0.000 A 
BRANCH   5   8
ATOM      8  C   UNL     1      45.280   7.309  11.865  0.00  0.00    +0.000 C 
BRANCH   8   9
ATOM      9  N   UNL     1      45.315   6.292  10.852  0.00  0.00    +0.000 N 
ATOM     10  C   UNL     1      44.803   5.036  11.098  0.00  0.00    +0.000 C 
ATOM     11  O   UNL     1      44.302   4.732  12.178  0.00  0.00    +0.000 OA
ATOM     12  H   UNL     1      45.654   6.500   9.920  0.00  0.00    +0.000 HD
BRANCH  10  13
ATOM     13  C   UNL     1      44.913   4.123   9.981  0.00  0.00    +0.000 A 
ATOM     14  C   UNL     1      45.109   4.360   8.633  0.00  0.00    +0.000 A 
ATOM     15  C   UNL     1      45.117   3.096   7.996  0.00  0.00    +0.000 A 
ATOM     16  C   UNL     1      44.924   2.165   8.988  0.00  0.00    +0.000 A 
ATOM     17  O   UNL     1      44.808   2.773  10.197  0.00  0.00    +0.000 OA
ENDBRANCH  10  13
ENDBRANCH   8   9
ENDBRANCH   5   8
ENDBRANCH   1   2
BRANCH   1  19
ATOM     18  C   UNL     1      51.396  10.472  14.501  0.00  0.00    +0.000 C 
ATOM     19  N   UNL     1      51.012   9.110  14.855  0.00  0.00    +0.000 N 
ATOM     20  C   UNL     1      50.936   8.853  16.238  0.00  0.00    +0.000 C 
ATOM     21  O   UNL     1      51.168   9.741  17.060  0.00  0.00    +0.000 OA
BRANCH  20  22
ATOM     22  C   UNL     1      50.610   7.501  16.714  0.00  0.00    +0.000 A 
ATOM     23  C   UNL     1      51.493   6.433  16.710  0.00  0.00    +0.000 A 
ATOM     24  S   UNL     1      50.851   5.009  17.395  0.00  0.00    +0.000 S 
ATOM     25  C   UNL     1      49.426   5.813  17.860  0.00  0.00    +0.000 A 
ATOM     26  N   UNL     1      48.476   5.180  18.598  0.00  0.00    +0.000 NA
ATOM     27  C   UNL     1      47.483   5.935  18.933  0.00  0.00    +0.000 A 
ATOM     28  N   UNL     1      47.340   7.248  18.573  0.00  0.00    +0.000 N 
ATOM     29  C   UNL     1      48.208   7.892  17.717  0.00  0.00    +0.000 A 
ATOM     30  O   UNL     1      47.926   8.982  17.234  0.00  0.00    +0.000 OA
ATOM     31  C   UNL     1      49.401   7.121  17.407  0.00  0.00    +0.000 A 
ATOM     32  H   UNL     1      46.504   7.761  18.817  0.00  0.00    +0.000 HD
ENDBRANCH  20  22
ENDBRANCH   1  19
TORSDOF 6
ENDMDL
