MODEL 1
REMARK VINA RESULT:    -8.157      0.000      0.000
REMARK INTER + INTRA:         -11.159
REMARK INTER:                 -10.541
REMARK INTRA:                  -0.618
REMARK UNBOUND:                -0.618
REMARK  Name = 
REMARK  6 active torsions:
REMARK  status: ('A' for Active; 'I' for Inactive)
REMARK    1  A    between atoms: C_1  and  C_2
REMARK    2  A    between atoms: C_2  and  N_3
REMARK    3  A    between atoms: C_2  and  C_18
REMARK    4  A    between atoms: C_7  and  C_8
REMARK    5  A    between atoms: C_8  and  O_9
REMARK    6  A    between atoms: O_9  and  C_10
REMARK                            x       y       z     vdW  Elec       q    Type
REMARK                         _______ _______ _______ _____ _____    ______ ____
ROOT
ATOM      1  N   UNL     1      47.422   5.123  15.177  0.00  0.00    +0.000 N 
ATOM      2  C   UNL     1      46.580   4.657  14.156  0.00  0.00    +0.000 A 
ATOM      3  C   UNL     1      45.685   5.545  13.550  0.00  0.00    +0.000 A 
ATOM      4  N   UNL     1      44.868   5.221  12.515  0.00  0.00    +0.000 NA
ATOM      5  C   UNL     1      44.976   3.945  12.070  0.00  0.00    +0.000 A 
ATOM      6  C   UNL     1      45.885   3.067  12.648  0.00  0.00    +0.000 A 
ATOM      7  N   UNL     1      46.700   3.402  13.683  0.00  0.00    +0.000 NA
ATOM      8  H   UNL     1      48.218   5.552  14.708  0.00  0.00    +0.000 HD
ENDROOT
BRANCH   1  10
ATOM      9  C   UNL     1      46.770   3.768  17.129  0.00  0.00    +0.000 C 
ATOM     10  C   UNL     1      47.907   4.127  16.158  0.00  0.00    +0.000 C 
BRANCH  10  11
ATOM     11  C   UNL     1      49.113   4.642  16.955  0.00  0.00    +0.000 A 
ATOM     12  C   UNL     1      49.270   5.956  17.371  0.00  0.00    +0.000 A 
ATOM     13  S   UNL     1      50.763   6.250  18.147  0.00  0.00    +0.000 S 
ATOM     14  C   UNL     1      51.227   4.618  18.000  0.00  0.00    +0.000 A 
ATOM     15  N   UNL     1      52.433   4.183  18.456  0.00  0.00    +0.000 NA
ATOM     16  C   UNL     1      52.633   2.915  18.299  0.00  0.00    +0.000 A 
ATOM     17  N   UNL     1      51.732   2.043  17.742  0.00  0.00    +0.000 N 
ATOM     18  C   UNL     1      50.488   2.431  17.302  0.00  0.00    +0.000 A 
ATOM     19  O   UNL     1      49.662   1.620  16.889  0.00  0.00    +0.000 OA
ATOM     20  C   UNL     1      50.240   3.857  17.400  0.00  0.00    +0.000 A 
ATOM     21  H   UNL     1      51.934   1.055  17.692  0.00  0.00    +0.000 HD
ENDBRANCH  10  11
ENDBRANCH   1  10
BRANCH   5  22
ATOM     22  C   UNL     1      44.078   3.501  10.942  0.00  0.00    +0.000 C 
BRANCH  22  23
ATOM     23  O   UNL     1      44.472   4.163   9.738  0.00  0.00    +0.000 OA
BRANCH  23  24
ATOM     24  C   UNL     1      45.269   3.459   8.883  0.00  0.00    +0.000 A 
ATOM     25  C   UNL     1      46.060   3.983   7.864  0.00  0.00    +0.000 A 
ATOM     26  C   UNL     1      46.846   3.126   7.090  0.00  0.00    +0.000 A 
ATOM     27  C   UNL     1      46.807   1.767   7.356  0.00  0.00    +0.000 A 
ATOM     28  N   UNL     1      46.045   1.220   8.324  0.00  0.00    +0.000 NA
ATOM     29  C   UNL     1      45.294   2.078   9.059  0.00  0.00    +0.000 A 
ENDBRANCH  23  24
ENDBRANCH  22  23
ENDBRANCH   5  22
TORSDOF 5
ENDMDL
MODEL 2
REMARK VINA RESULT:    -7.687      2.430      3.205
REMARK INTER + INTRA:         -10.552
REMARK INTER:                 -10.152
REMARK INTRA:                  -0.400
REMARK UNBOUND:                -0.618
REMARK  Name = 
REMARK  6 active torsions:
REMARK  status: ('A' for Active; 'I' for Inactive)
REMARK    1  A    between atoms: C_1  and  C_2
REMARK    2  A    between atoms: C_2  and  N_3
REMARK    3  A    between atoms: C_2  and  C_18
REMARK    4  A    between atoms: C_7  and  C_8
REMARK    5  A    between atoms: C_8  and  O_9
REMARK    6  A    between atoms: O_9  and  C_10
REMARK                            x       y       z     vdW  Elec       q    Type
REMARK                         _______ _______ _______ _____ _____    ______ ____
ROOT
ATOM      1  N   UNL     1      46.836   6.144  13.915  0.00  0.00    +0.000 N 
ATOM      2  C   UNL     1      46.234   5.476  12.838  0.00  0.00    +0.000 A 
ATOM      3  C   UNL     1      45.800   4.158  13.007  0.00  0.00    +0.000 A 
ATOM      4  N   UNL     1      45.151   3.438  12.055  0.00  0.00    +0.000 NA
ATOM      5  C   UNL     1      44.924   4.090  10.889  0.00  0.00    +0.000 A 
ATOM      6  C   UNL     1      45.327   5.411  10.726  0.00  0.00    +0.000 A 
ATOM      7  N   UNL     1      45.973   6.124  11.686  0.00  0.00    +0.000 NA
ATOM      8  H   UNL     1      46.071   6.504  14.483  0.00  0.00    +0.000 HD
ENDROOT
BRANCH   1  10
ATOM      9  C   UNL     1      48.970   6.685  12.809  0.00  0.00    +0.000 C 
ATOM     10  C   UNL     1      47.770   7.245  13.591  0.00  0.00    +0.000 C 
BRANCH  10  11
ATOM     11  C   UNL     1      48.272   7.965  14.848  0.00  0.00    +0.000 A 
ATOM     12  C   UNL     1      48.244   9.342  15.022  0.00  0.00    +0.000 A 
ATOM     13  S   UNL     1      48.966   9.857  16.482  0.00  0.00    +0.000 S 
ATOM     14  C   UNL     1      49.293   8.253  16.955  0.00  0.00    +0.000 A 
ATOM     15  N   UNL     1      49.927   7.977  18.126  0.00  0.00    +0.000 NA
ATOM     16  C   UNL     1      50.080   6.715  18.362  0.00  0.00    +0.000 A 
ATOM     17  N   UNL     1      49.644   5.707  17.541  0.00  0.00    +0.000 N 
ATOM     18  C   UNL     1      48.965   5.937  16.367  0.00  0.00    +0.000 A 
ATOM     19  O   UNL     1      48.504   5.020  15.691  0.00  0.00    +0.000 OA
ATOM     20  C   UNL     1      48.823   7.341  16.028  0.00  0.00    +0.000 A 
ATOM     21  H   UNL     1      49.755   4.740  17.809  0.00  0.00    +0.000 HD
ENDBRANCH  10  11
ENDBRANCH   1  10
BRANCH   5  22
ATOM     22  C   UNL     1      44.237   3.345   9.772  0.00  0.00    +0.000 C 
BRANCH  22  23
ATOM     23  O   UNL     1      45.006   2.188   9.436  0.00  0.00    +0.000 OA
BRANCH  23  24
ATOM     24  C   UNL     1      45.764   2.263   8.302  0.00  0.00    +0.000 A 
ATOM     25  C   UNL     1      45.873   3.357   7.448  0.00  0.00    +0.000 A 
ATOM     26  C   UNL     1      46.717   3.284   6.338  0.00  0.00    +0.000 A 
ATOM     27  C   UNL     1      47.421   2.113   6.114  0.00  0.00    +0.000 A 
ATOM     28  N   UNL     1      47.333   1.028   6.911  0.00  0.00    +0.000 NA
ATOM     29  C   UNL     1      46.505   1.129   7.981  0.00  0.00    +0.000 A 
ENDBRANCH  23  24
ENDBRANCH  22  23
ENDBRANCH   5  22
TORSDOF 5
ENDMDL
MODEL 3
REMARK VINA RESULT:    -7.616      1.605      2.036
REMARK INTER + INTRA:         -10.460
REMARK INTER:                  -9.879
REMARK INTRA:                  -0.581
REMARK UNBOUND:                -0.618
REMARK  Name = 
REMARK  6 active torsions:
REMARK  status: ('A' for Active; 'I' for Inactive)
REMARK    1  A    between atoms: C_1  and  C_2
REMARK    2  A    between atoms: C_2  and  N_3
REMARK    3  A    between atoms: C_2  and  C_18
REMARK    4  A    between atoms: C_7  and  C_8
REMARK    5  A    between atoms: C_8  and  O_9
REMARK    6  A    between atoms: O_9  and  C_10
REMARK                            x       y       z     vdW  Elec       q    Type
REMARK                         _______ _______ _______ _____ _____    ______ ____
ROOT
ATOM      1  N   UNL     1      48.873   5.838  15.796  0.00  0.00    +0.000 N 
ATOM      2  C   UNL     1      47.948   5.886  14.741  0.00  0.00    +0.000 A 
ATOM      3  C   UNL     1      47.736   7.097  14.073  0.00  0.00    +0.000 A 
ATOM      4  N   UNL     1      46.913   7.245  13.003  0.00  0.00    +0.000 NA
ATOM      5  C   UNL     1      46.291   6.115  12.589  0.00  0.00    +0.000 A 
ATOM      6  C   UNL     1      46.522   4.903  13.230  0.00  0.00    +0.000 A 
ATOM      7  N   UNL     1      47.350   4.764  14.299  0.00  0.00    +0.000 NA
ATOM      8  H   UNL     1      49.787   5.719  15.360  0.00  0.00    +0.000 HD
ENDROOT
BRANCH   1  10
ATOM      9  C   UNL     1      47.599   5.244  17.818  0.00  0.00    +0.000 C 
ATOM     10  C   UNL     1      48.675   4.788  16.820  0.00  0.00    +0.000 C 
BRANCH  10  11
ATOM     11  C   UNL     1      49.971   4.469  17.577  0.00  0.00    +0.000 A 
ATOM     12  C   UNL     1      50.608   5.350  18.438  0.00  0.00    +0.000 A 
ATOM     13  S   UNL     1      52.085   4.751  19.052  0.00  0.00    +0.000 S 
ATOM     14  C   UNL     1      51.895   3.272  18.229  0.00  0.00    +0.000 A 
ATOM     15  N   UNL     1      52.835   2.292  18.312  0.00  0.00    +0.000 NA
ATOM     16  C   UNL     1      52.539   1.217  17.657  0.00  0.00    +0.000 A 
ATOM     17  N   UNL     1      51.385   1.030  16.939  0.00  0.00    +0.000 N 
ATOM     18  C   UNL     1      50.392   1.977  16.858  0.00  0.00    +0.000 A 
ATOM     19  O   UNL     1      49.327   1.757  16.285  0.00  0.00    +0.000 OA
ATOM     20  C   UNL     1      50.705   3.226  17.527  0.00  0.00    +0.000 A 
ATOM     21  H   UNL     1      51.196   0.147  16.488  0.00  0.00    +0.000 HD
ENDBRANCH  10  11
ENDBRANCH   1  10
BRANCH   5  22
ATOM     22  C   UNL     1      45.336   6.207  11.425  0.00  0.00    +0.000 C 
BRANCH  22  23
ATOM     23  O   UNL     1      44.661   4.957  11.270  0.00  0.00    +0.000 OA
BRANCH  23  24
ATOM     24  C   UNL     1      44.984   4.216  10.170  0.00  0.00    +0.000 A 
ATOM     25  C   UNL     1      44.770   2.851   9.996  0.00  0.00    +0.000 A 
ATOM     26  C   UNL     1      45.134   2.244   8.792  0.00  0.00    +0.000 A 
ATOM     27  C   UNL     1      45.710   3.022   7.802  0.00  0.00    +0.000 A 
ATOM     28  N   UNL     1      45.945   4.343   7.937  0.00  0.00    +0.000 NA
ATOM     29  C   UNL     1      45.580   4.905   9.117  0.00  0.00    +0.000 A 
ENDBRANCH  23  24
ENDBRANCH  22  23
ENDBRANCH   5  22
TORSDOF 5
ENDMDL
MODEL 4
REMARK VINA RESULT:    -7.300      3.402      4.528
REMARK INTER + INTRA:         -10.052
REMARK INTER:                  -9.594
REMARK INTRA:                  -0.457
REMARK UNBOUND:                -0.618
REMARK  Name = 
REMARK  6 active torsions:
REMARK  status: ('A' for Active; 'I' for Inactive)
REMARK    1  A    between atoms: C_1  and  C_2
REMARK    2  A    between atoms: C_2  and  N_3
REMARK    3  A    between atoms: C_2  and  C_18
REMARK    4  A    between atoms: C_7  and  C_8
REMARK    5  A    between atoms: C_8  and  O_9
REMARK    6  A    between atoms: O_9  and  C_10
REMARK                            x       y       z     vdW  Elec       q    Type
REMARK                         _______ _______ _______ _____ _____    ______ ____
ROOT
ATOM      1  N   UNL     1      47.027   5.808  14.090  0.00  0.00    +0.000 N 
ATOM      2  C   UNL     1      46.366   5.238  12.992  0.00  0.00    +0.000 A 
ATOM      3  C   UNL     1      46.031   3.881  13.025  0.00  0.00    +0.000 A 
ATOM      4  N   UNL     1      45.340   3.240  12.047  0.00  0.00    +0.000 NA
ATOM      5  C   UNL     1      44.962   4.014  11.001  0.00  0.00    +0.000 A 
ATOM      6  C   UNL     1      45.265   5.370  10.977  0.00  0.00    +0.000 A 
ATOM      7  N   UNL     1      45.956   6.003  11.962  0.00  0.00    +0.000 NA
ATOM      8  H   UNL     1      46.300   6.038  14.765  0.00  0.00    +0.000 HD
ENDROOT
BRANCH   1  10
ATOM      9  C   UNL     1      48.935   6.668  12.790  0.00  0.00    +0.000 C 
ATOM     10  C   UNL     1      47.856   7.006  13.832  0.00  0.00    +0.000 C 
BRANCH  10  11
ATOM     11  C   UNL     1      48.527   7.531  15.108  0.00  0.00    +0.000 A 
ATOM     12  C   UNL     1      48.979   6.721  16.140  0.00  0.00    +0.000 A 
ATOM     13  S   UNL     1      49.586   7.598  17.475  0.00  0.00    +0.000 S 
ATOM     14  C   UNL     1      49.313   9.088  16.695  0.00  0.00    +0.000 A 
ATOM     15  N   UNL     1      49.605  10.268  17.306  0.00  0.00    +0.000 NA
ATOM     16  C   UNL     1      49.370  11.312  16.580  0.00  0.00    +0.000 A 
ATOM     17  N   UNL     1      48.886  11.282  15.297  0.00  0.00    +0.000 N 
ATOM     18  C   UNL     1      48.613  10.112  14.628  0.00  0.00    +0.000 A 
ATOM     19  O   UNL     1      48.265  10.102  13.448  0.00  0.00    +0.000 OA
ATOM     20  C   UNL     1      48.801   8.913  15.423  0.00  0.00    +0.000 A 
ATOM     21  H   UNL     1      48.769  12.135  14.770  0.00  0.00    +0.000 HD
ENDBRANCH  10  11
ENDBRANCH   1  10
BRANCH   5  22
ATOM     22  C   UNL     1      44.217   3.365   9.861  0.00  0.00    +0.000 C 
BRANCH  22  23
ATOM     23  O   UNL     1      44.921   2.192   9.446  0.00  0.00    +0.000 OA
BRANCH  23  24
ATOM     24  C   UNL     1      45.720   2.312   8.346  0.00  0.00    +0.000 A 
ATOM     25  C   UNL     1      45.875   3.446   7.553  0.00  0.00    +0.000 A 
ATOM     26  C   UNL     1      46.759   3.417   6.472  0.00  0.00    +0.000 A 
ATOM     27  C   UNL     1      47.455   2.247   6.215  0.00  0.00    +0.000 A 
ATOM     28  N   UNL     1      47.323   1.126   6.951  0.00  0.00    +0.000 NA
ATOM     29  C   UNL     1      46.458   1.186   7.994  0.00  0.00    +0.000 A 
ENDBRANCH  23  24
ENDBRANCH  22  23
ENDBRANCH   5  22
TORSDOF 5
ENDMDL
MODEL 5
REMARK VINA RESULT:    -6.641      2.419      2.955
REMARK INTER + INTRA:          -9.200
REMARK INTER:                  -8.594
REMARK INTRA:                  -0.606
REMARK UNBOUND:                -0.618
REMARK  Name = 
REMARK  6 active torsions:
REMARK  status: ('A' for Active; 'I' for Inactive)
REMARK    1  A    between atoms: C_1  and  C_2
REMARK    2  A    between atoms: C_2  and  N_3
REMARK    3  A    between atoms: C_2  and  C_18
REMARK    4  A    between atoms: C_7  and  C_8
REMARK    5  A    between atoms: C_8  and  O_9
REMARK    6  A    between atoms: O_9  and  C_10
REMARK                            x       y       z     vdW  Elec       q    Type
REMARK                         _______ _______ _______ _____ _____    ______ ____
ROOT
ATOM      1  N   UNL     1      48.331   7.431  13.884  0.00  0.00    +0.000 N 
ATOM      2  C   UNL     1      47.386   6.676  13.173  0.00  0.00    +0.000 A 
ATOM      3  C   UNL     1      47.188   6.935  11.813  0.00  0.00    +0.000 A 
ATOM      4  N   UNL     1      46.347   6.227  11.015  0.00  0.00    +0.000 NA
ATOM      5  C   UNL     1      45.692   5.208  11.622  0.00  0.00    +0.000 A 
ATOM      6  C   UNL     1      45.908   4.927  12.966  0.00  0.00    +0.000 A 
ATOM      7  N   UNL     1      46.754   5.639  13.756  0.00  0.00    +0.000 NA
ATOM      8  H   UNL     1      49.233   6.993  13.703  0.00  0.00    +0.000 HD
ENDROOT
BRANCH   1  10
ATOM      9  C   UNL     1      48.356   9.023  15.764  0.00  0.00    +0.000 C 
ATOM     10  C   UNL     1      48.131   7.561  15.345  0.00  0.00    +0.000 C 
BRANCH  10  11
ATOM     11  C   UNL     1      49.075   6.651  16.140  0.00  0.00    +0.000 A 
ATOM     12  C   UNL     1      48.653   5.696  17.053  0.00  0.00    +0.000 A 
ATOM     13  S   UNL     1      49.939   4.910  17.858  0.00  0.00    +0.000 S 
ATOM     14  C   UNL     1      51.104   5.783  16.974  0.00  0.00    +0.000 A 
ATOM     15  N   UNL     1      52.435   5.601  17.188  0.00  0.00    +0.000 NA
ATOM     16  C   UNL     1      53.196   6.312  16.423  0.00  0.00    +0.000 A 
ATOM     17  N   UNL     1      52.748   7.176  15.456  0.00  0.00    +0.000 N 
ATOM     18  C   UNL     1      51.414   7.363  15.179  0.00  0.00    +0.000 A 
ATOM     19  O   UNL     1      51.035   8.074  14.250  0.00  0.00    +0.000 OA
ATOM     20  C   UNL     1      50.517   6.633  16.054  0.00  0.00    +0.000 A 
ATOM     21  H   UNL     1      53.400   7.667  14.861  0.00  0.00    +0.000 HD
ENDBRANCH  10  11
ENDBRANCH   1  10
BRANCH   5  22
ATOM     22  C   UNL     1      44.715   4.397  10.807  0.00  0.00    +0.000 C 
BRANCH  22  23
ATOM     23  O   UNL     1      44.919   4.672   9.419  0.00  0.00    +0.000 OA
BRANCH  23  24
ATOM     24  C   UNL     1      45.546   3.705   8.687  0.00  0.00    +0.000 A 
ATOM     25  C   UNL     1      46.369   3.904   7.581  0.00  0.00    +0.000 A 
ATOM     26  C   UNL     1      46.962   2.805   6.956  0.00  0.00    +0.000 A 
ATOM     27  C   UNL     1      46.706   1.539   7.454  0.00  0.00    +0.000 A 
ATOM     28  N   UNL     1      45.906   1.304   8.514  0.00  0.00    +0.000 NA
ATOM     29  C   UNL     1      45.345   2.391   9.100  0.00  0.00    +0.000 A 
ENDBRANCH  23  24
ENDBRANCH  22  23
ENDBRANCH   5  22
TORSDOF 5
ENDMDL
MODEL 6
REMARK VINA RESULT:    -6.630      4.833      6.012
REMARK INTER + INTRA:          -9.186
REMARK INTER:                 -10.505
REMARK INTRA:                   1.319
REMARK UNBOUND:                -0.618
REMARK  Name = 
REMARK  6 active torsions:
REMARK  status: ('A' for Active; 'I' for Inactive)
REMARK    1  A    between atoms: C_1  and  C_2
REMARK    2  A    between atoms: C_2  and  N_3
REMARK    3  A    between atoms: C_2  and  C_18
REMARK    4  A    between atoms: C_7  and  C_8
REMARK    5  A    between atoms: C_8  and  O_9
REMARK    6  A    between atoms: O_9  and  C_10
REMARK                            x       y       z     vdW  Elec       q    Type
REMARK                         _______ _______ _______ _____ _____    ______ ____
ROOT
ATOM      1  N   UNL     1      45.393   6.271  13.261  0.00  0.00    +0.000 N 
ATOM      2  C   UNL     1      45.147   5.314  12.265  0.00  0.00    +0.000 A 
ATOM      3  C   UNL     1      45.442   3.971  12.518  0.00  0.00    +0.000 A 
ATOM      4  N   UNL     1      45.189   2.956  11.652  0.00  0.00    +0.000 NA
ATOM      5  C   UNL     1      44.600   3.321  10.487  0.00  0.00    +0.000 A 
ATOM      6  C   UNL     1      44.276   4.650  10.243  0.00  0.00    +0.000 A 
ATOM      7  N   UNL     1      44.532   5.659  11.117  0.00  0.00    +0.000 NA
ATOM      8  H   UNL     1      44.584   6.244  13.880  0.00  0.00    +0.000 HD
ENDROOT
BRANCH   1  10
ATOM      9  C   UNL     1      44.739   7.971  11.603  0.00  0.00    +0.000 C 
ATOM     10  C   UNL     1      45.629   7.663  12.818  0.00  0.00    +0.000 C 
BRANCH  10  11
ATOM     11  C   UNL     1      47.098   7.910  12.450  0.00  0.00    +0.000 A 
ATOM     12  C   UNL     1      48.058   6.912  12.358  0.00  0.00    +0.000 A 
ATOM     13  S   UNL     1      49.626   7.506  12.031  0.00  0.00    +0.000 S 
ATOM     14  C   UNL     1      49.065   9.112  11.950  0.00  0.00    +0.000 A 
ATOM     15  N   UNL     1      49.916  10.146  11.712  0.00  0.00    +0.000 NA
ATOM     16  C   UNL     1      49.341  11.302  11.651  0.00  0.00    +0.000 A 
ATOM     17  N   UNL     1      47.993  11.516  11.791  0.00  0.00    +0.000 N 
ATOM     18  C   UNL     1      47.092  10.497  11.995  0.00  0.00    +0.000 A 
ATOM     19  O   UNL     1      45.879  10.698  12.028  0.00  0.00    +0.000 OA
ATOM     20  C   UNL     1      47.696   9.185  12.133  0.00  0.00    +0.000 A 
ATOM     21  H   UNL     1      47.604  12.441  11.686  0.00  0.00    +0.000 HD
ENDBRANCH  10  11
ENDBRANCH   1  10
BRANCH   5  22
ATOM     22  C   UNL     1      44.316   2.252   9.462  0.00  0.00    +0.000 C 
BRANCH  22  23
ATOM     23  O   UNL     1      45.532   1.569   9.145  0.00  0.00    +0.000 OA
BRANCH  23  24
ATOM     24  C   UNL     1      46.177   1.960   8.007  0.00  0.00    +0.000 A 
ATOM     25  C   UNL     1      45.953   3.130   7.286  0.00  0.00    +0.000 A 
ATOM     26  C   UNL     1      46.721   3.400   6.151  0.00  0.00    +0.000 A 
ATOM     27  C   UNL     1      47.685   2.483   5.769  0.00  0.00    +0.000 A 
ATOM     28  N   UNL     1      47.924   1.334   6.433  0.00  0.00    +0.000 NA
ATOM     29  C   UNL     1      47.163   1.100   7.531  0.00  0.00    +0.000 A 
ENDBRANCH  23  24
ENDBRANCH  22  23
ENDBRANCH   5  22
TORSDOF 5
ENDMDL
MODEL 7
REMARK VINA RESULT:    -6.603      3.436      9.104
REMARK INTER + INTRA:          -9.151
REMARK INTER:                  -8.431
REMARK INTRA:                  -0.720
REMARK UNBOUND:                -0.618
REMARK  Name = 
REMARK  6 active torsions:
REMARK  status: ('A' for Active; 'I' for Inactive)
REMARK    1  A    between atoms: C_1  and  C_2
REMARK    2  A    between atoms: C_2  and  N_3
REMARK    3  A    between atoms: C_2  and  C_18
REMARK    4  A    between atoms: C_7  and  C_8
REMARK    5  A    between atoms: C_8  and  O_9
REMARK    6  A    between atoms: O_9  and  C_10
REMARK                            x       y       z     vdW  Elec       q    Type
REMARK                         _______ _______ _______ _____ _____    ______ ____
ROOT
ATOM      1  N   UNL     1      47.958   7.027  15.173  0.00  0.00    +0.000 N 
ATOM      2  C   UNL     1      48.662   6.469  16.251  0.00  0.00    +0.000 A 
ATOM      3  C   UNL     1      48.870   7.235  17.402  0.00  0.00    +0.000 A 
ATOM      4  N   UNL     1      49.483   6.777  18.524  0.00  0.00    +0.000 NA
ATOM      5  C   UNL     1      49.888   5.485  18.478  0.00  0.00    +0.000 A 
ATOM      6  C   UNL     1      49.657   4.710  17.347  0.00  0.00    +0.000 A 
ATOM      7  N   UNL     1      49.040   5.176  16.229  0.00  0.00    +0.000 NA
ATOM      8  H   UNL     1      46.970   6.906  15.392  0.00  0.00    +0.000 HD
ENDROOT
BRANCH   1  10
ATOM      9  C   UNL     1      49.256   7.375  13.109  0.00  0.00    +0.000 C 
ATOM     10  C   UNL     1      48.235   6.478  13.827  0.00  0.00    +0.000 C 
BRANCH  10  11
ATOM     11  C   UNL     1      46.964   6.369  12.975  0.00  0.00    +0.000 A 
ATOM     12  C   UNL     1      46.394   7.429  12.286  0.00  0.00    +0.000 A 
ATOM     13  S   UNL     1      44.926   7.024  11.511  0.00  0.00    +0.000 S 
ATOM     14  C   UNL     1      45.032   5.405  12.027  0.00  0.00    +0.000 A 
ATOM     15  N   UNL     1      44.065   4.500  11.715  0.00  0.00    +0.000 NA
ATOM     16  C   UNL     1      44.297   3.305  12.152  0.00  0.00    +0.000 A 
ATOM     17  N   UNL     1      45.412   2.932  12.858  0.00  0.00    +0.000 N 
ATOM     18  C   UNL     1      46.431   3.803  13.164  0.00  0.00    +0.000 A 
ATOM     19  O   UNL     1      47.463   3.430  13.719  0.00  0.00    +0.000 OA
ATOM     20  C   UNL     1      46.188   5.172  12.748  0.00  0.00    +0.000 A 
ATOM     21  H   UNL     1      45.552   1.970  13.130  0.00  0.00    +0.000 HD
ENDBRANCH  10  11
ENDBRANCH   1  10
BRANCH   5  22
ATOM     22  C   UNL     1      50.606   4.915  19.676  0.00  0.00    +0.000 C 
BRANCH  22  23
ATOM     23  O   UNL     1      52.015   5.084  19.504  0.00  0.00    +0.000 OA
BRANCH  23  24
ATOM     24  C   UNL     1      52.750   3.949  19.314  0.00  0.00    +0.000 A 
ATOM     25  C   UNL     1      52.794   3.173  18.159  0.00  0.00    +0.000 A 
ATOM     26  C   UNL     1      53.624   2.051  18.113  0.00  0.00    +0.000 A 
ATOM     27  C   UNL     1      54.379   1.736  19.231  0.00  0.00    +0.000 A 
ATOM     28  N   UNL     1      54.355   2.455  20.371  0.00  0.00    +0.000 NA
ATOM     29  C   UNL     1      53.540   3.539  20.385  0.00  0.00    +0.000 A 
ENDBRANCH  23  24
ENDBRANCH  22  23
ENDBRANCH   5  22
TORSDOF 5
ENDMDL
MODEL 8
REMARK VINA RESULT:    -6.548      2.465      3.468
REMARK INTER + INTRA:          -9.079
REMARK INTER:                  -8.377
REMARK INTRA:                  -0.703
REMARK UNBOUND:                -0.618
REMARK  Name = 
REMARK  6 active torsions:
REMARK  status: ('A' for Active; 'I' for Inactive)
REMARK    1  A    between atoms: C_1  and  C_2
REMARK    2  A    between atoms: C_2  and  N_3
REMARK    3  A    between atoms: C_2  and  C_18
REMARK    4  A    between atoms: C_7  and  C_8
REMARK    5  A    between atoms: C_8  and  O_9
REMARK    6  A    between atoms: O_9  and  C_10
REMARK                            x       y       z     vdW  Elec       q    Type
REMARK                         _______ _______ _______ _____ _____    ______ ____
ROOT
ATOM      1  N   UNL     1      50.279   6.621  16.144  0.00  0.00    +0.000 N 
ATOM      2  C   UNL     1      49.261   6.673  15.179  0.00  0.00    +0.000 A 
ATOM      3  C   UNL     1      49.256   7.715  14.246  0.00  0.00    +0.000 A 
ATOM      4  N   UNL     1      48.359   7.830  13.234  0.00  0.00    +0.000 NA
ATOM      5  C   UNL     1      47.437   6.839  13.160  0.00  0.00    +0.000 A 
ATOM      6  C   UNL     1      47.456   5.785  14.066  0.00  0.00    +0.000 A 
ATOM      7  N   UNL     1      48.361   5.677  15.075  0.00  0.00    +0.000 NA
ATOM      8  H   UNL     1      51.073   6.173  15.689  0.00  0.00    +0.000 HD
ENDROOT
BRANCH   1  10
ATOM      9  C   UNL     1      49.647   6.947  18.503  0.00  0.00    +0.000 C 
ATOM     10  C   UNL     1      49.974   5.917  17.410  0.00  0.00    +0.000 C 
BRANCH  10  11
ATOM     11  C   UNL     1      51.139   5.034  17.873  0.00  0.00    +0.000 A 
ATOM     12  C   UNL     1      52.254   5.506  18.551  0.00  0.00    +0.000 A 
ATOM     13  S   UNL     1      53.431   4.303  18.844  0.00  0.00    +0.000 S 
ATOM     14  C   UNL     1      52.466   3.100  18.121  0.00  0.00    +0.000 A 
ATOM     15  N   UNL     1      52.897   1.813  18.023  0.00  0.00    +0.000 NA
ATOM     16  C   UNL     1      52.045   1.009  17.476  0.00  0.00    +0.000 A 
ATOM     17  N   UNL     1      50.798   1.371  17.033  0.00  0.00    +0.000 N 
ATOM     18  C   UNL     1      50.307   2.651  17.146  0.00  0.00    +0.000 A 
ATOM     19  O   UNL     1      49.154   2.936  16.826  0.00  0.00    +0.000 OA
ATOM     20  C   UNL     1      51.251   3.605  17.698  0.00  0.00    +0.000 A 
ATOM     21  H   UNL     1      50.164   0.682  16.658  0.00  0.00    +0.000 HD
ENDBRANCH  10  11
ENDBRANCH   1  10
BRANCH   5  22
ATOM     22  C   UNL     1      46.387   6.916  12.080  0.00  0.00    +0.000 C 
BRANCH  22  23
ATOM     23  O   UNL     1      45.155   6.393  12.584  0.00  0.00    +0.000 OA
BRANCH  23  24
ATOM     24  C   UNL     1      44.702   5.236  12.018  0.00  0.00    +0.000 A 
ATOM     25  C   UNL     1      43.875   4.288  12.616  0.00  0.00    +0.000 A 
ATOM     26  C   UNL     1      43.475   3.165  11.889  0.00  0.00    +0.000 A 
ATOM     27  C   UNL     1      43.923   3.022  10.587  0.00  0.00    +0.000 A 
ATOM     28  N   UNL     1      44.734   3.911   9.977  0.00  0.00    +0.000 NA
ATOM     29  C   UNL     1      45.105   4.992  10.709  0.00  0.00    +0.000 A 
ENDBRANCH  23  24
ENDBRANCH  22  23
ENDBRANCH   5  22
TORSDOF 5
ENDMDL
MODEL 9
REMARK VINA RESULT:    -6.031      2.496      3.472
REMARK INTER + INTRA:          -8.412
REMARK INTER:                  -7.725
REMARK INTRA:                  -0.687
REMARK UNBOUND:                -0.618
REMARK  Name = 
REMARK  6 active torsions:
REMARK  status: ('A' for Active; 'I' for Inactive)
REMARK    1  A    between atoms: C_1  and  C_2
REMARK    2  A    between atoms: C_2  and  N_3
REMARK    3  A    between atoms: C_2  and  C_18
REMARK    4  A    between atoms: C_7  and  C_8
REMARK    5  A    between atoms: C_8  and  O_9
REMARK    6  A    between atoms: O_9  and  C_10
REMARK                            x       y       z     vdW  Elec       q    Type
REMARK                         _______ _______ _______ _____ _____    ______ ____
ROOT
ATOM      1  N   UNL     1      48.195   4.329  16.959  0.00  0.00    +0.000 N 
ATOM      2  C   UNL     1      47.789   4.753  15.685  0.00  0.00    +0.000 A 
ATOM      3  C   UNL     1      46.767   4.062  15.027  0.00  0.00    +0.000 A 
ATOM      4  N   UNL     1      46.254   4.419  13.822  0.00  0.00    +0.000 NA
ATOM      5  C   UNL     1      46.794   5.533  13.269  0.00  0.00    +0.000 A 
ATOM      6  C   UNL     1      47.789   6.242  13.932  0.00  0.00    +0.000 A 
ATOM      7  N   UNL     1      48.294   5.877  15.140  0.00  0.00    +0.000 NA
ATOM      8  H   UNL     1      47.537   4.746  17.615  0.00  0.00    +0.000 HD
ENDROOT
BRANCH   1  10
ATOM      9  C   UNL     1      50.343   3.361  17.679  0.00  0.00    +0.000 C 
ATOM     10  C   UNL     1      49.578   4.658  17.372  0.00  0.00    +0.000 C 
BRANCH  10  11
ATOM     11  C   UNL     1      49.610   5.572  18.603  0.00  0.00    +0.000 A 
ATOM     12  C   UNL     1      48.664   5.547  19.618  0.00  0.00    +0.000 A 
ATOM     13  S   UNL     1      48.908   6.753  20.803  0.00  0.00    +0.000 S 
ATOM     14  C   UNL     1      50.316   7.315  20.027  0.00  0.00    +0.000 A 
ATOM     15  N   UNL     1      51.023   8.367  20.521  0.00  0.00    +0.000 NA
ATOM     16  C   UNL     1      52.082   8.660  19.840  0.00  0.00    +0.000 A 
ATOM     17  N   UNL     1      52.504   7.990  18.720  0.00  0.00    +0.000 N 
ATOM     18  C   UNL     1      51.842   6.899  18.207  0.00  0.00    +0.000 A 
ATOM     19  O   UNL     1      52.285   6.256  17.257  0.00  0.00    +0.000 OA
ATOM     20  C   UNL     1      50.612   6.568  18.901  0.00  0.00    +0.000 A 
ATOM     21  H   UNL     1      53.368   8.243  18.262  0.00  0.00    +0.000 HD
ENDBRANCH  10  11
ENDBRANCH   1  10
BRANCH   5  22
ATOM     22  C   UNL     1      46.298   5.975  11.915  0.00  0.00    +0.000 C 
BRANCH  22  23
ATOM     23  O   UNL     1      45.071   5.301  11.621  0.00  0.00    +0.000 OA
BRANCH  23  24
ATOM     24  C   UNL     1      45.036   4.564  10.472  0.00  0.00    +0.000 A 
ATOM     25  C   UNL     1      44.471   3.302  10.313  0.00  0.00    +0.000 A 
ATOM     26  C   UNL     1      44.491   2.689   9.059  0.00  0.00    +0.000 A 
ATOM     27  C   UNL     1      45.087   3.359   8.003  0.00  0.00    +0.000 A 
ATOM     28  N   UNL     1      45.656   4.576   8.119  0.00  0.00    +0.000 NA
ATOM     29  C   UNL     1      45.619   5.145   9.350  0.00  0.00    +0.000 A 
ENDBRANCH  23  24
ENDBRANCH  22  23
ENDBRANCH   5  22
TORSDOF 5
ENDMDL
