MODEL 1
REMARK VINA RESULT:    -8.156      0.000      0.000
REMARK INTER + INTRA:         -11.253
REMARK INTER:                 -11.017
REMARK INTRA:                  -0.236
REMARK UNBOUND:                -0.236
REMARK  Name = 
REMARK  8 active torsions:
REMARK  status: ('A' for Active; 'I' for Inactive)
REMARK    1  A    between atoms: C_1  and  O_2
REMARK    2  A    between atoms: O_2  and  C_3
REMARK    3  A    between atoms: C_5  and  C_6
REMARK    4  A    between atoms: C_11  and  N_12
REMARK    5  A    between atoms: N_12  and  C_13
REMARK    6  A    between atoms: C_13  and  C_14
REMARK    7  A    between atoms: C_18  and  C_19
REMARK    8  A    between atoms: C_23  and  C_24
REMARK                            x       y       z     vdW  Elec       q    Type
REMARK                         _______ _______ _______ _____ _____    ______ ____
ROOT
ATOM      1  N   UNL     1      43.655   5.515  10.243  0.00  0.00    +0.000 N 
ATOM      2  H   UNL     1      42.689   5.386   9.962  0.00  0.00    +0.000 HD
ENDROOT
BRANCH   1   8
ATOM      3  C   UNL     1      44.181   3.139  10.032  0.00  0.00    +0.000 A 
ATOM      4  C   UNL     1      44.888   2.136   9.357  0.00  0.00    +0.000 A 
ATOM      5  C   UNL     1      45.849   2.469   8.402  0.00  0.00    +0.000 A 
ATOM      6  C   UNL     1      46.071   3.814   8.172  0.00  0.00    +0.000 A 
ATOM      7  N   UNL     1      45.398   4.809   8.799  0.00  0.00    +0.000 NA
ATOM      8  C   UNL     1      44.450   4.483   9.708  0.00  0.00    +0.000 A 
BRANCH   5   9
ATOM      9  C   UNL     1      46.569   1.385   7.694  0.00  0.00    +0.000 C 
ATOM     10  N   UNL     1      47.417   1.699   6.673  0.00  0.00    +0.000 N 
ATOM     11  O   UNL     1      46.409   0.209   8.014  0.00  0.00    +0.000 OA
ATOM     12  H   UNL     1      47.599   2.623   6.310  0.00  0.00    +0.000 HD
ATOM     13  H   UNL     1      47.868   0.921   6.207  0.00  0.00    +0.000 HD
ENDBRANCH   5   9
BRANCH   3  15
ATOM     14  C   UNL     1      43.714   2.392  12.237  0.00  0.00    +0.000 C 
ATOM     15  O   UNL     1      43.228   2.885  10.990  0.00  0.00    +0.000 OA
ENDBRANCH   3  15
ENDBRANCH   1   8
BRANCH   1  16
ATOM     16  C   UNL     1      43.821   5.724  11.679  0.00  0.00    +0.000 C 
BRANCH  16  17
ATOM     17  C   UNL     1      45.271   5.935  12.068  0.00  0.00    +0.000 A 
ATOM     18  C   UNL     1      46.056   6.851  11.355  0.00  0.00    +0.000 A 
ATOM     19  C   UNL     1      47.336   7.179  11.798  0.00  0.00    +0.000 A 
ATOM     20  C   UNL     1      47.839   6.608  12.969  0.00  0.00    +0.000 A 
ATOM     21  C   UNL     1      47.076   5.705  13.730  0.00  0.00    +0.000 A 
ATOM     22  C   UNL     1      45.794   5.378  13.248  0.00  0.00    +0.000 A 
BRANCH  21  23
ATOM     23  C   UNL     1      47.568   5.164  15.017  0.00  0.00    +0.000 A 
ATOM     24  C   UNL     1      47.131   3.933  15.518  0.00  0.00    +0.000 A 
ATOM     25  C   UNL     1      47.598   3.495  16.747  0.00  0.00    +0.000 A 
ATOM     26  N   UNL     1      48.475   4.180  17.508  0.00  0.00    +0.000 NA
ATOM     27  C   UNL     1      48.904   5.368  17.029  0.00  0.00    +0.000 A 
ATOM     28  C   UNL     1      49.878   6.142  17.864  0.00  0.00    +0.000 C 
ATOM     29  C   UNL     1      48.475   5.885  15.809  0.00  0.00    +0.000 A 
ENDBRANCH  21  23
ENDBRANCH  16  17
ENDBRANCH   1  16
TORSDOF 6
ENDMDL
MODEL 2
REMARK VINA RESULT:    -8.093      3.024      7.186
REMARK INTER + INTRA:         -11.169
REMARK INTER:                 -10.226
REMARK INTRA:                  -0.943
REMARK UNBOUND:                -0.236
REMARK  Name = 
REMARK  8 active torsions:
REMARK  status: ('A' for Active; 'I' for Inactive)
REMARK    1  A    between atoms: C_1  and  O_2
REMARK    2  A    between atoms: O_2  and  C_3
REMARK    3  A    between atoms: C_5  and  C_6
REMARK    4  A    between atoms: C_11  and  N_12
REMARK    5  A    between atoms: N_12  and  C_13
REMARK    6  A    between atoms: C_13  and  C_14
REMARK    7  A    between atoms: C_18  and  C_19
REMARK    8  A    between atoms: C_23  and  C_24
REMARK                            x       y       z     vdW  Elec       q    Type
REMARK                         _______ _______ _______ _____ _____    ______ ____
ROOT
ATOM      1  N   UNL     1      44.816   7.601  12.713  0.00  0.00    +0.000 N 
ATOM      2  H   UNL     1      44.408   8.437  13.117  0.00  0.00    +0.000 HD
ENDROOT
BRANCH   1   8
ATOM      3  C   UNL     1      47.022   6.623  13.096  0.00  0.00    +0.000 A 
ATOM      4  C   UNL     1      48.409   6.716  12.917  0.00  0.00    +0.000 A 
ATOM      5  C   UNL     1      48.975   7.873  12.380  0.00  0.00    +0.000 A 
ATOM      6  C   UNL     1      48.116   8.904  12.052  0.00  0.00    +0.000 A 
ATOM      7  N   UNL     1      46.770   8.842  12.201  0.00  0.00    +0.000 NA
ATOM      8  C   UNL     1      46.220   7.712  12.701  0.00  0.00    +0.000 A 
BRANCH   5   9
ATOM      9  C   UNL     1      50.443   7.935  12.190  0.00  0.00    +0.000 C 
ATOM     10  N   UNL     1      51.006   7.319  11.111  0.00  0.00    +0.000 N 
ATOM     11  O   UNL     1      51.159   8.530  12.993  0.00  0.00    +0.000 OA
ATOM     12  H   UNL     1      50.520   6.780  10.410  0.00  0.00    +0.000 HD
ATOM     13  H   UNL     1      52.014   7.372  11.037  0.00  0.00    +0.000 HD
ENDBRANCH   5   9
BRANCH   3  15
ATOM     14  C   UNL     1      47.100   4.845  14.667  0.00  0.00    +0.000 C 
ATOM     15  O   UNL     1      46.396   5.520  13.626  0.00  0.00    +0.000 OA
ENDBRANCH   3  15
ENDBRANCH   1   8
BRANCH   1  16
ATOM     16  C   UNL     1      44.229   7.228  11.429  0.00  0.00    +0.000 C 
BRANCH  16  17
ATOM     17  C   UNL     1      44.190   5.727  11.224  0.00  0.00    +0.000 A 
ATOM     18  C   UNL     1      43.246   4.955  11.914  0.00  0.00    +0.000 A 
ATOM     19  C   UNL     1      43.086   3.603  11.617  0.00  0.00    +0.000 A 
ATOM     20  C   UNL     1      43.857   3.011  10.615  0.00  0.00    +0.000 A 
ATOM     21  C   UNL     1      44.798   3.753   9.879  0.00  0.00    +0.000 A 
ATOM     22  C   UNL     1      44.950   5.112  10.213  0.00  0.00    +0.000 A 
BRANCH  21  23
ATOM     23  C   UNL     1      45.554   3.153   8.758  0.00  0.00    +0.000 A 
ATOM     24  C   UNL     1      46.030   3.924   7.690  0.00  0.00    +0.000 A 
ATOM     25  C   UNL     1      46.699   3.301   6.648  0.00  0.00    +0.000 A 
ATOM     26  N   UNL     1      46.942   1.976   6.593  0.00  0.00    +0.000 NA
ATOM     27  C   UNL     1      46.489   1.227   7.621  0.00  0.00    +0.000 A 
ATOM     28  C   UNL     1      46.750  -0.248   7.573  0.00  0.00    +0.000 C 
ATOM     29  C   UNL     1      45.798   1.773   8.700  0.00  0.00    +0.000 A 
ENDBRANCH  21  23
ENDBRANCH  16  17
ENDBRANCH   1  16
TORSDOF 6
ENDMDL
MODEL 3
REMARK VINA RESULT:    -7.889      2.654      3.309
REMARK INTER + INTRA:         -10.892
REMARK INTER:                 -10.336
REMARK INTRA:                  -0.556
REMARK UNBOUND:                -0.236
REMARK  Name = 
REMARK  8 active torsions:
REMARK  status: ('A' for Active; 'I' for Inactive)
REMARK    1  A    between atoms: C_1  and  O_2
REMARK    2  A    between atoms: O_2  and  C_3
REMARK    3  A    between atoms: C_5  and  C_6
REMARK    4  A    between atoms: C_11  and  N_12
REMARK    5  A    between atoms: N_12  and  C_13
REMARK    6  A    between atoms: C_13  and  C_14
REMARK    7  A    between atoms: C_18  and  C_19
REMARK    8  A    between atoms: C_23  and  C_24
REMARK                            x       y       z     vdW  Elec       q    Type
REMARK                         _______ _______ _______ _____ _____    ______ ____
ROOT
ATOM      1  N   UNL     1      43.724   5.354  10.085  0.00  0.00    +0.000 N 
ATOM      2  H   UNL     1      42.752   5.095   9.954  0.00  0.00    +0.000 HD
ENDROOT
BRANCH   1   8
ATOM      3  C   UNL     1      44.305   2.989   9.885  0.00  0.00    +0.000 A 
ATOM      4  C   UNL     1      45.058   2.003   9.235  0.00  0.00    +0.000 A 
ATOM      5  C   UNL     1      46.052   2.361   8.323  0.00  0.00    +0.000 A 
ATOM      6  C   UNL     1      46.257   3.710   8.109  0.00  0.00    +0.000 A 
ATOM      7  N   UNL     1      45.539   4.689   8.712  0.00  0.00    +0.000 NA
ATOM      8  C   UNL     1      44.561   4.340   9.579  0.00  0.00    +0.000 A 
BRANCH   5   9
ATOM      9  C   UNL     1      46.821   1.295   7.641  0.00  0.00    +0.000 C 
ATOM     10  N   UNL     1      47.799   1.637   6.753  0.00  0.00    +0.000 N 
ATOM     11  O   UNL     1      46.588   0.108   7.862  0.00  0.00    +0.000 OA
ATOM     12  H   UNL     1      48.053   2.573   6.476  0.00  0.00    +0.000 HD
ATOM     13  H   UNL     1      48.281   0.872   6.297  0.00  0.00    +0.000 HD
ENDBRANCH   5   9
BRANCH   3  15
ATOM     14  C   UNL     1      43.758   2.458  12.133  0.00  0.00    +0.000 C 
ATOM     15  O   UNL     1      43.317   2.712  10.801  0.00  0.00    +0.000 OA
ENDBRANCH   3  15
ENDBRANCH   1   8
BRANCH   1  16
ATOM     16  C   UNL     1      44.037   5.771  11.449  0.00  0.00    +0.000 C 
BRANCH  16  17
ATOM     17  C   UNL     1      44.812   7.073  11.492  0.00  0.00    +0.000 A 
ATOM     18  C   UNL     1      44.127   8.293  11.396  0.00  0.00    +0.000 A 
ATOM     19  C   UNL     1      44.798   9.497  11.598  0.00  0.00    +0.000 A 
ATOM     20  C   UNL     1      46.159   9.495  11.914  0.00  0.00    +0.000 A 
ATOM     21  C   UNL     1      46.879   8.295  12.046  0.00  0.00    +0.000 A 
ATOM     22  C   UNL     1      46.179   7.095  11.819  0.00  0.00    +0.000 A 
BRANCH  21  23
ATOM     23  C   UNL     1      48.297   8.283  12.467  0.00  0.00    +0.000 A 
ATOM     24  C   UNL     1      48.674   8.467  13.803  0.00  0.00    +0.000 A 
ATOM     25  C   UNL     1      50.020   8.485  14.133  0.00  0.00    +0.000 A 
ATOM     26  N   UNL     1      51.017   8.320  13.241  0.00  0.00    +0.000 NA
ATOM     27  C   UNL     1      50.661   8.139  11.951  0.00  0.00    +0.000 A 
ATOM     28  C   UNL     1      51.759   7.957  10.947  0.00  0.00    +0.000 C 
ATOM     29  C   UNL     1      49.332   8.120  11.534  0.00  0.00    +0.000 A 
ENDBRANCH  21  23
ENDBRANCH  16  17
ENDBRANCH   1  16
TORSDOF 6
ENDMDL
MODEL 4
REMARK VINA RESULT:    -7.845      2.988      8.397
REMARK INTER + INTRA:         -10.833
REMARK INTER:                 -10.267
REMARK INTRA:                  -0.566
REMARK UNBOUND:                -0.236
REMARK  Name = 
REMARK  8 active torsions:
REMARK  status: ('A' for Active; 'I' for Inactive)
REMARK    1  A    between atoms: C_1  and  O_2
REMARK    2  A    between atoms: O_2  and  C_3
REMARK    3  A    between atoms: C_5  and  C_6
REMARK    4  A    between atoms: C_11  and  N_12
REMARK    5  A    between atoms: N_12  and  C_13
REMARK    6  A    between atoms: C_13  and  C_14
REMARK    7  A    between atoms: C_18  and  C_19
REMARK    8  A    between atoms: C_23  and  C_24
REMARK                            x       y       z     vdW  Elec       q    Type
REMARK                         _______ _______ _______ _____ _____    ______ ____
ROOT
ATOM      1  N   UNL     1      46.768   4.015  14.157  0.00  0.00    +0.000 N 
ATOM      2  H   UNL     1      46.484   3.054  13.997  0.00  0.00    +0.000 HD
ENDROOT
BRANCH   1   8
ATOM      3  C   UNL     1      48.276   5.193  15.676  0.00  0.00    +0.000 A 
ATOM      4  C   UNL     1      48.755   5.356  16.982  0.00  0.00    +0.000 A 
ATOM      5  C   UNL     1      48.383   4.463  17.987  0.00  0.00    +0.000 A 
ATOM      6  C   UNL     1      47.545   3.424  17.631  0.00  0.00    +0.000 A 
ATOM      7  N   UNL     1      47.054   3.244  16.381  0.00  0.00    +0.000 NA
ATOM      8  C   UNL     1      47.398   4.123  15.412  0.00  0.00    +0.000 A 
BRANCH   5   9
ATOM      9  C   UNL     1      48.895   4.671  19.362  0.00  0.00    +0.000 C 
ATOM     10  N   UNL     1      48.370   3.943  20.390  0.00  0.00    +0.000 N 
ATOM     11  O   UNL     1      49.781   5.493  19.587  0.00  0.00    +0.000 OA
ATOM     12  H   UNL     1      47.624   3.267  20.323  0.00  0.00    +0.000 HD
ATOM     13  H   UNL     1      48.739   4.137  21.313  0.00  0.00    +0.000 HD
ENDBRANCH   5   9
BRANCH   3  15
ATOM     14  C   UNL     1      48.435   7.422  14.877  0.00  0.00    +0.000 C 
ATOM     15  O   UNL     1      48.606   6.027  14.634  0.00  0.00    +0.000 OA
ENDBRANCH   3  15
ENDBRANCH   1   8
BRANCH   1  16
ATOM     16  C   UNL     1      45.699   4.984  13.932  0.00  0.00    +0.000 C 
BRANCH  16  17
ATOM     17  C   UNL     1      44.878   4.663  12.698  0.00  0.00    +0.000 A 
ATOM     18  C   UNL     1      43.552   5.107  12.611  0.00  0.00    +0.000 A 
ATOM     19  C   UNL     1      42.837   4.967  11.423  0.00  0.00    +0.000 A 
ATOM     20  C   UNL     1      43.445   4.395  10.304  0.00  0.00    +0.000 A 
ATOM     21  C   UNL     1      44.782   3.960  10.339  0.00  0.00    +0.000 A 
ATOM     22  C   UNL     1      45.474   4.099  11.557  0.00  0.00    +0.000 A 
BRANCH  21  23
ATOM     23  C   UNL     1      45.459   3.436   9.132  0.00  0.00    +0.000 A 
ATOM     24  C   UNL     1      45.828   4.269   8.069  0.00  0.00    +0.000 A 
ATOM     25  C   UNL     1      46.425   3.716   6.947  0.00  0.00    +0.000 A 
ATOM     26  N   UNL     1      46.695   2.403   6.807  0.00  0.00    +0.000 NA
ATOM     27  C   UNL     1      46.344   1.593   7.830  0.00  0.00    +0.000 A 
ATOM     28  C   UNL     1      46.636   0.130   7.687  0.00  0.00    +0.000 C 
ATOM     29  C   UNL     1      45.730   2.067   8.986  0.00  0.00    +0.000 A 
ENDBRANCH  21  23
ENDBRANCH  16  17
ENDBRANCH   1  16
TORSDOF 6
ENDMDL
MODEL 5
REMARK VINA RESULT:    -7.806      2.143      2.999
REMARK INTER + INTRA:         -10.780
REMARK INTER:                 -10.484
REMARK INTRA:                  -0.297
REMARK UNBOUND:                -0.236
REMARK  Name = 
REMARK  8 active torsions:
REMARK  status: ('A' for Active; 'I' for Inactive)
REMARK    1  A    between atoms: C_1  and  O_2
REMARK    2  A    between atoms: O_2  and  C_3
REMARK    3  A    between atoms: C_5  and  C_6
REMARK    4  A    between atoms: C_11  and  N_12
REMARK    5  A    between atoms: N_12  and  C_13
REMARK    6  A    between atoms: C_13  and  C_14
REMARK    7  A    between atoms: C_18  and  C_19
REMARK    8  A    between atoms: C_23  and  C_24
REMARK                            x       y       z     vdW  Elec       q    Type
REMARK                         _______ _______ _______ _____ _____    ______ ____
ROOT
ATOM      1  N   UNL     1      43.864   5.084  10.029  0.00  0.00    +0.000 N 
ATOM      2  H   UNL     1      43.401   4.555  10.760  0.00  0.00    +0.000 HD
ENDROOT
BRANCH   1   8
ATOM      3  C   UNL     1      44.681   2.862   9.425  0.00  0.00    +0.000 A 
ATOM      4  C   UNL     1      45.529   2.087   8.623  0.00  0.00    +0.000 A 
ATOM      5  C   UNL     1      46.479   2.697   7.804  0.00  0.00    +0.000 A 
ATOM      6  C   UNL     1      46.546   4.077   7.834  0.00  0.00    +0.000 A 
ATOM      7  N   UNL     1      45.734   4.857   8.588  0.00  0.00    +0.000 NA
ATOM      8  C   UNL     1      44.798   4.264   9.365  0.00  0.00    +0.000 A 
BRANCH   5   9
ATOM      9  C   UNL     1      47.351   1.850   6.957  0.00  0.00    +0.000 C 
ATOM     10  N   UNL     1      48.383   2.424   6.273  0.00  0.00    +0.000 N 
ATOM     11  O   UNL     1      47.154   0.641   6.861  0.00  0.00    +0.000 OA
ATOM     12  H   UNL     1      48.615   3.406   6.256  0.00  0.00    +0.000 HD
ATOM     13  H   UNL     1      48.936   1.807   5.691  0.00  0.00    +0.000 HD
ENDBRANCH   5   9
BRANCH   3  15
ATOM     14  C   UNL     1      44.008   2.417  11.658  0.00  0.00    +0.000 C 
ATOM     15  O   UNL     1      43.728   2.330  10.262  0.00  0.00    +0.000 OA
ENDBRANCH   3  15
ENDBRANCH   1   8
BRANCH   1  16
ATOM     16  C   UNL     1      44.400   6.363  10.485  0.00  0.00    +0.000 C 
BRANCH  16  17
ATOM     17  C   UNL     1      45.313   6.212  11.687  0.00  0.00    +0.000 A 
ATOM     18  C   UNL     1      45.013   5.261  12.672  0.00  0.00    +0.000 A 
ATOM     19  C   UNL     1      45.921   4.993  13.694  0.00  0.00    +0.000 A 
ATOM     20  C   UNL     1      47.146   5.662  13.734  0.00  0.00    +0.000 A 
ATOM     21  C   UNL     1      47.499   6.605  12.752  0.00  0.00    +0.000 A 
ATOM     22  C   UNL     1      46.555   6.868  11.742  0.00  0.00    +0.000 A 
BRANCH  21  23
ATOM     23  C   UNL     1      48.830   7.251  12.740  0.00  0.00    +0.000 A 
ATOM     24  C   UNL     1      49.438   7.671  11.551  0.00  0.00    +0.000 A 
ATOM     25  C   UNL     1      50.703   8.236  11.597  0.00  0.00    +0.000 A 
ATOM     26  N   UNL     1      51.402   8.428  12.733  0.00  0.00    +0.000 NA
ATOM     27  C   UNL     1      50.821   8.027  13.885  0.00  0.00    +0.000 A 
ATOM     28  C   UNL     1      51.588   8.232  15.157  0.00  0.00    +0.000 C 
ATOM     29  C   UNL     1      49.558   7.441  13.925  0.00  0.00    +0.000 A 
ENDBRANCH  21  23
ENDBRANCH  16  17
ENDBRANCH   1  16
TORSDOF 6
ENDMDL
MODEL 6
REMARK VINA RESULT:    -7.333      3.158      7.925
REMARK INTER + INTRA:         -10.142
REMARK INTER:                  -9.384
REMARK INTRA:                  -0.758
REMARK UNBOUND:                -0.236
REMARK  Name = 
REMARK  8 active torsions:
REMARK  status: ('A' for Active; 'I' for Inactive)
REMARK    1  A    between atoms: C_1  and  O_2
REMARK    2  A    between atoms: O_2  and  C_3
REMARK    3  A    between atoms: C_5  and  C_6
REMARK    4  A    between atoms: C_11  and  N_12
REMARK    5  A    between atoms: N_12  and  C_13
REMARK    6  A    between atoms: C_13  and  C_14
REMARK    7  A    between atoms: C_18  and  C_19
REMARK    8  A    between atoms: C_23  and  C_24
REMARK                            x       y       z     vdW  Elec       q    Type
REMARK                         _______ _______ _______ _____ _____    ______ ____
ROOT
ATOM      1  N   UNL     1      47.726   6.504  12.788  0.00  0.00    +0.000 N 
ATOM      2  H   UNL     1      47.936   5.810  12.078  0.00  0.00    +0.000 HD
ENDROOT
BRANCH   1   8
ATOM      3  C   UNL     1      48.630   6.624  15.055  0.00  0.00    +0.000 A 
ATOM      4  C   UNL     1      48.634   6.111  16.359  0.00  0.00    +0.000 A 
ATOM      5  C   UNL     1      47.938   4.940  16.660  0.00  0.00    +0.000 A 
ATOM      6  C   UNL     1      47.268   4.320  15.623  0.00  0.00    +0.000 A 
ATOM      7  N   UNL     1      47.233   4.794  14.354  0.00  0.00    +0.000 NA
ATOM      8  C   UNL     1      47.890   5.941  14.069  0.00  0.00    +0.000 A 
BRANCH   5   9
ATOM      9  C   UNL     1      47.950   4.432  18.052  0.00  0.00    +0.000 C 
ATOM     10  N   UNL     1      47.170   5.037  18.993  0.00  0.00    +0.000 N 
ATOM     11  O   UNL     1      48.656   3.477  18.368  0.00  0.00    +0.000 OA
ATOM     12  H   UNL     1      46.579   5.842  18.851  0.00  0.00    +0.000 HD
ATOM     13  H   UNL     1      47.230   4.667  19.933  0.00  0.00    +0.000 HD
ENDBRANCH   5   9
BRANCH   3  15
ATOM     14  C   UNL     1      50.704   7.769  14.925  0.00  0.00    +0.000 C 
ATOM     15  O   UNL     1      49.299   7.766  14.683  0.00  0.00    +0.000 OA
ENDBRANCH   3  15
ENDBRANCH   1   8
BRANCH   1  16
ATOM     16  C   UNL     1      46.447   7.179  12.584  0.00  0.00    +0.000 C 
BRANCH  16  17
ATOM     17  C   UNL     1      45.421   6.284  11.917  0.00  0.00    +0.000 A 
ATOM     18  C   UNL     1      44.056   6.566  12.058  0.00  0.00    +0.000 A 
ATOM     19  C   UNL     1      43.109   5.858  11.321  0.00  0.00    +0.000 A 
ATOM     20  C   UNL     1      43.517   4.869  10.424  0.00  0.00    +0.000 A 
ATOM     21  C   UNL     1      44.878   4.570  10.231  0.00  0.00    +0.000 A 
ATOM     22  C   UNL     1      45.811   5.290  11.002  0.00  0.00    +0.000 A 
BRANCH  21  23
ATOM     23  C   UNL     1      45.321   3.587   9.218  0.00  0.00    +0.000 A 
ATOM     24  C   UNL     1      45.206   2.208   9.426  0.00  0.00    +0.000 A 
ATOM     25  C   UNL     1      45.673   1.333   8.458  0.00  0.00    +0.000 A 
ATOM     26  N   UNL     1      46.231   1.724   7.295  0.00  0.00    +0.000 NA
ATOM     27  C   UNL     1      46.342   3.054   7.086  0.00  0.00    +0.000 A 
ATOM     28  C   UNL     1      46.963   3.504   5.798  0.00  0.00    +0.000 C 
ATOM     29  C   UNL     1      45.909   3.999   8.013  0.00  0.00    +0.000 A 
ENDBRANCH  21  23
ENDBRANCH  16  17
ENDBRANCH   1  16
TORSDOF 6
ENDMDL
MODEL 7
REMARK VINA RESULT:    -7.130      3.451      7.979
REMARK INTER + INTRA:          -9.868
REMARK INTER:                  -9.154
REMARK INTRA:                  -0.713
REMARK UNBOUND:                -0.236
REMARK  Name = 
REMARK  8 active torsions:
REMARK  status: ('A' for Active; 'I' for Inactive)
REMARK    1  A    between atoms: C_1  and  O_2
REMARK    2  A    between atoms: O_2  and  C_3
REMARK    3  A    between atoms: C_5  and  C_6
REMARK    4  A    between atoms: C_11  and  N_12
REMARK    5  A    between atoms: N_12  and  C_13
REMARK    6  A    between atoms: C_13  and  C_14
REMARK    7  A    between atoms: C_18  and  C_19
REMARK    8  A    between atoms: C_23  and  C_24
REMARK                            x       y       z     vdW  Elec       q    Type
REMARK                         _______ _______ _______ _____ _____    ______ ____
ROOT
ATOM      1  N   UNL     1      48.339   6.925  15.800  0.00  0.00    +0.000 N 
ATOM      2  H   UNL     1      48.262   7.818  16.274  0.00  0.00    +0.000 HD
ENDROOT
BRANCH   1   8
ATOM      3  C   UNL     1      48.860   4.869  17.014  0.00  0.00    +0.000 A 
ATOM      4  C   UNL     1      49.841   4.014  17.532  0.00  0.00    +0.000 A 
ATOM      5  C   UNL     1      51.183   4.394  17.529  0.00  0.00    +0.000 A 
ATOM      6  C   UNL     1      51.486   5.638  17.010  0.00  0.00    +0.000 A 
ATOM      7  N   UNL     1      50.564   6.485  16.491  0.00  0.00    +0.000 NA
ATOM      8  C   UNL     1      49.266   6.105  16.474  0.00  0.00    +0.000 A 
BRANCH   5   9
ATOM      9  C   UNL     1      52.198   3.460  18.071  0.00  0.00    +0.000 C 
ATOM     10  N   UNL     1      51.937   2.121  18.083  0.00  0.00    +0.000 N 
ATOM     11  O   UNL     1      53.267   3.877  18.511  0.00  0.00    +0.000 OA
ATOM     12  H   UNL     1      51.086   1.675  17.777  0.00  0.00    +0.000 HD
ATOM     13  H   UNL     1      52.654   1.527  18.483  0.00  0.00    +0.000 HD
ENDBRANCH   5   9
BRANCH   3  15
ATOM     14  C   UNL     1      47.178   3.230  17.358  0.00  0.00    +0.000 C 
ATOM     15  O   UNL     1      47.519   4.566  16.992  0.00  0.00    +0.000 OA
ENDBRANCH   3  15
ENDBRANCH   1   8
BRANCH   1  16
ATOM     16  C   UNL     1      48.571   7.045  14.364  0.00  0.00    +0.000 C 
BRANCH  16  17
ATOM     17  C   UNL     1      47.286   7.237  13.584  0.00  0.00    +0.000 A 
ATOM     18  C   UNL     1      46.836   8.532  13.291  0.00  0.00    +0.000 A 
ATOM     19  C   UNL     1      45.752   8.727  12.439  0.00  0.00    +0.000 A 
ATOM     20  C   UNL     1      45.113   7.630  11.857  0.00  0.00    +0.000 A 
ATOM     21  C   UNL     1      45.547   6.315  12.101  0.00  0.00    +0.000 A 
ATOM     22  C   UNL     1      46.634   6.147  12.980  0.00  0.00    +0.000 A 
BRANCH  21  23
ATOM     23  C   UNL     1      44.931   5.155  11.418  0.00  0.00    +0.000 A 
ATOM     24  C   UNL     1      44.080   4.269  12.088  0.00  0.00    +0.000 A 
ATOM     25  C   UNL     1      43.563   3.178  11.407  0.00  0.00    +0.000 A 
ATOM     26  N   UNL     1      43.816   2.910  10.110  0.00  0.00    +0.000 NA
ATOM     27  C   UNL     1      44.634   3.763   9.456  0.00  0.00    +0.000 A 
ATOM     28  C   UNL     1      44.926   3.477   8.014  0.00  0.00    +0.000 C 
ATOM     29  C   UNL     1      45.204   4.876  10.070  0.00  0.00    +0.000 A 
ENDBRANCH  21  23
ENDBRANCH  16  17
ENDBRANCH   1  16
TORSDOF 6
ENDMDL
MODEL 8
REMARK VINA RESULT:    -7.037      3.150      7.933
REMARK INTER + INTRA:          -9.742
REMARK INTER:                  -8.757
REMARK INTRA:                  -0.985
REMARK UNBOUND:                -0.236
REMARK  Name = 
REMARK  8 active torsions:
REMARK  status: ('A' for Active; 'I' for Inactive)
REMARK    1  A    between atoms: C_1  and  O_2
REMARK    2  A    between atoms: O_2  and  C_3
REMARK    3  A    between atoms: C_5  and  C_6
REMARK    4  A    between atoms: C_11  and  N_12
REMARK    5  A    between atoms: N_12  and  C_13
REMARK    6  A    between atoms: C_13  and  C_14
REMARK    7  A    between atoms: C_18  and  C_19
REMARK    8  A    between atoms: C_23  and  C_24
REMARK                            x       y       z     vdW  Elec       q    Type
REMARK                         _______ _______ _______ _____ _____    ______ ____
ROOT
ATOM      1  N   UNL     1      46.950   7.337  11.783  0.00  0.00    +0.000 N 
ATOM      2  H   UNL     1      47.373   6.518  11.360  0.00  0.00    +0.000 HD
ENDROOT
BRANCH   1   8
ATOM      3  C   UNL     1      47.861   6.350  13.824  0.00  0.00    +0.000 A 
ATOM      4  C   UNL     1      48.447   6.551  15.080  0.00  0.00    +0.000 A 
ATOM      5  C   UNL     1      48.547   7.836  15.615  0.00  0.00    +0.000 A 
ATOM      6  C   UNL     1      48.037   8.876  14.861  0.00  0.00    +0.000 A 
ATOM      7  N   UNL     1      47.475   8.718  13.638  0.00  0.00    +0.000 NA
ATOM      8  C   UNL     1      47.399   7.474  13.111  0.00  0.00    +0.000 A 
BRANCH   5   9
ATOM      9  C   UNL     1      49.186   8.018  16.939  0.00  0.00    +0.000 C 
ATOM     10  N   UNL     1      48.449   7.823  18.071  0.00  0.00    +0.000 N 
ATOM     11  O   UNL     1      50.367   8.345  17.030  0.00  0.00    +0.000 OA
ATOM     12  H   UNL     1      47.470   7.584  18.112  0.00  0.00    +0.000 HD
ATOM     13  H   UNL     1      48.925   7.981  18.950  0.00  0.00    +0.000 HD
ENDBRANCH   5   9
BRANCH   3  15
ATOM     14  C   UNL     1      46.903   4.181  13.943  0.00  0.00    +0.000 C 
ATOM     15  O   UNL     1      47.721   5.114  13.238  0.00  0.00    +0.000 OA
ENDBRANCH   3  15
ENDBRANCH   1   8
BRANCH   1  16
ATOM     16  C   UNL     1      45.500   7.392  11.626  0.00  0.00    +0.000 C 
BRANCH  16  17
ATOM     17  C   UNL     1      44.902   6.037  11.298  0.00  0.00    +0.000 A 
ATOM     18  C   UNL     1      43.631   5.703  11.784  0.00  0.00    +0.000 A 
ATOM     19  C   UNL     1      42.998   4.536  11.360  0.00  0.00    +0.000 A 
ATOM     20  C   UNL     1      43.622   3.698  10.434  0.00  0.00    +0.000 A 
ATOM     21  C   UNL     1      44.886   4.008   9.900  0.00  0.00    +0.000 A 
ATOM     22  C   UNL     1      45.509   5.184  10.360  0.00  0.00    +0.000 A 
BRANCH  21  23
ATOM     23  C   UNL     1      45.513   3.172   8.853  0.00  0.00    +0.000 A 
ATOM     24  C   UNL     1      45.651   1.786   8.998  0.00  0.00    +0.000 A 
ATOM     25  C   UNL     1      46.281   1.058   8.001  0.00  0.00    +0.000 A 
ATOM     26  N   UNL     1      46.770   1.600   6.867  0.00  0.00    +0.000 NA
ATOM     27  C   UNL     1      46.637   2.936   6.719  0.00  0.00    +0.000 A 
ATOM     28  C   UNL     1      47.178   3.552   5.465  0.00  0.00    +0.000 C 
ATOM     29  C   UNL     1      46.028   3.740   7.679  0.00  0.00    +0.000 A 
ENDBRANCH  21  23
ENDBRANCH  16  17
ENDBRANCH   1  16
TORSDOF 6
ENDMDL
MODEL 9
REMARK VINA RESULT:    -6.843      3.181      7.970
REMARK INTER + INTRA:          -9.479
REMARK INTER:                  -8.486
REMARK INTRA:                  -0.993
REMARK UNBOUND:                -0.236
REMARK  Name = 
REMARK  8 active torsions:
REMARK  status: ('A' for Active; 'I' for Inactive)
REMARK    1  A    between atoms: C_1  and  O_2
REMARK    2  A    between atoms: O_2  and  C_3
REMARK    3  A    between atoms: C_5  and  C_6
REMARK    4  A    between atoms: C_11  and  N_12
REMARK    5  A    between atoms: N_12  and  C_13
REMARK    6  A    between atoms: C_13  and  C_14
REMARK    7  A    between atoms: C_18  and  C_19
REMARK    8  A    between atoms: C_23  and  C_24
REMARK                            x       y       z     vdW  Elec       q    Type
REMARK                         _______ _______ _______ _____ _____    ______ ____
ROOT
ATOM      1  N   UNL     1      49.401   7.085  13.051  0.00  0.00    +0.000 N 
ATOM      2  H   UNL     1      49.236   6.160  12.669  0.00  0.00    +0.000 HD
ENDROOT
BRANCH   1   8
ATOM      3  C   UNL     1      48.529   5.986  15.052  0.00  0.00    +0.000 A 
ATOM      4  C   UNL     1      48.484   5.931  16.451  0.00  0.00    +0.000 A 
ATOM      5  C   UNL     1      49.063   6.943  17.216  0.00  0.00    +0.000 A 
ATOM      6  C   UNL     1      49.662   7.986  16.536  0.00  0.00    +0.000 A 
ATOM      7  N   UNL     1      49.734   8.064  15.185  0.00  0.00    +0.000 NA
ATOM      8  C   UNL     1      49.191   7.071  14.444  0.00  0.00    +0.000 A 
BRANCH   5   9
ATOM      9  C   UNL     1      49.011   6.849  18.694  0.00  0.00    +0.000 C 
ATOM     10  N   UNL     1      48.630   7.938  19.422  0.00  0.00    +0.000 N 
ATOM     11  O   UNL     1      49.309   5.805  19.270  0.00  0.00    +0.000 OA
ATOM     12  H   UNL     1      48.395   8.848  19.056  0.00  0.00    +0.000 HD
ATOM     13  H   UNL     1      48.632   7.829  20.429  0.00  0.00    +0.000 HD
ENDBRANCH   5   9
BRANCH   3  15
ATOM     14  C   UNL     1      46.741   4.469  14.682  0.00  0.00    +0.000 C 
ATOM     15  O   UNL     1      47.973   5.031  14.234  0.00  0.00    +0.000 OA
ENDBRANCH   3  15
ENDBRANCH   1   8
BRANCH   1  16
ATOM     16  C   UNL     1      48.686   8.144  12.344  0.00  0.00    +0.000 C 
BRANCH  16  17
ATOM     17  C   UNL     1      47.235   7.789  12.084  0.00  0.00    +0.000 A 
ATOM     18  C   UNL     1      46.237   8.753  12.284  0.00  0.00    +0.000 A 
ATOM     19  C   UNL     1      44.924   8.499  11.895  0.00  0.00    +0.000 A 
ATOM     20  C   UNL     1      44.595   7.285  11.289  0.00  0.00    +0.000 A 
ATOM     21  C   UNL     1      45.569   6.300  11.045  0.00  0.00    +0.000 A 
ATOM     22  C   UNL     1      46.884   6.577  11.464  0.00  0.00    +0.000 A 
BRANCH  21  23
ATOM     23  C   UNL     1      45.245   5.050  10.324  0.00  0.00    +0.000 A 
ATOM     24  C   UNL     1      44.466   4.042  10.904  0.00  0.00    +0.000 A 
ATOM     25  C   UNL     1      44.227   2.875  10.195  0.00  0.00    +0.000 A 
ATOM     26  N   UNL     1      44.690   2.641   8.950  0.00  0.00    +0.000 NA
ATOM     27  C   UNL     1      45.439   3.611   8.383  0.00  0.00    +0.000 A 
ATOM     28  C   UNL     1      45.963   3.364   7.000  0.00  0.00    +0.000 C 
ATOM     29  C   UNL     1      45.736   4.807   9.032  0.00  0.00    +0.000 A 
ENDBRANCH  21  23
ENDBRANCH  16  17
ENDBRANCH   1  16
TORSDOF 6
ENDMDL
