MODEL 1
REMARK VINA RESULT:    -7.402      0.000      0.000
REMARK INTER + INTRA:         -10.129
REMARK INTER:                  -9.566
REMARK INTRA:                  -0.563
REMARK UNBOUND:                -0.563
REMARK  Name = 
REMARK  6 active torsions:
REMARK  status: ('A' for Active; 'I' for Inactive)
REMARK    1  A    between atoms: C_1  and  C_2
REMARK    2  A    between atoms: C_2  and  C_3
REMARK    3  A    between atoms: C_2  and  C_14
REMARK    4  A    between atoms: C_3  and  N_4
REMARK    5  A    between atoms: N_4  and  C_5
REMARK    6  A    between atoms: C_8  and  C_9
REMARK                            x       y       z     vdW  Elec       q    Type
REMARK                         _______ _______ _______ _____ _____    ______ ____
ROOT
ATOM      1  N   UNL     1      43.758   3.333  10.475  0.00  0.00    +0.000 N 
ATOM      2  H   UNL     1      42.873   2.837  10.426  0.00  0.00    +0.000 HD
ENDROOT
BRANCH   1   3
ATOM      3  C   UNL     1      44.614   3.055   9.409  0.00  0.00    +0.000 A 
ATOM      4  C   UNL     1      45.217   1.832   9.149  0.00  0.00    +0.000 A 
ATOM      5  N   UNL     1      46.118   1.592   8.168  0.00  0.00    +0.000 NA
ATOM      6  C   UNL     1      46.454   2.666   7.418  0.00  0.00    +0.000 A 
ATOM      7  N   UNL     1      45.963   3.909   7.570  0.00  0.00    +0.000 NA
ATOM      8  C   UNL     1      45.067   4.065   8.568  0.00  0.00    +0.000 A 
BRANCH   6   9
ATOM      9  C   UNL     1      47.494   2.434   6.342  0.00  0.00    +0.000 C 
ATOM     10  N   UNL     1      47.423   3.276   5.255  0.00  0.00    +0.000 N 
ATOM     11  O   UNL     1      48.354   1.563   6.394  0.00  0.00    +0.000 OA
ATOM     12  H   UNL     1      46.693   3.978   5.200  0.00  0.00    +0.000 HD
ATOM     13  H   UNL     1      48.073   3.149   4.493  0.00  0.00    +0.000 HD
ENDBRANCH   6   9
ENDBRANCH   1   3
BRANCH   1  14
ATOM     14  C   UNL     1      44.298   3.464  11.817  0.00  0.00    +0.000 C 
BRANCH  14  16
ATOM     15  C   UNL     1      42.743   5.523  11.914  0.00  0.00    +0.000 C 
ATOM     16  C   UNL     1      44.005   4.837  12.357  0.00  0.00    +0.000 C 
BRANCH  16  17
ATOM     17  C   UNL     1      45.223   5.688  12.694  0.00  0.00    +0.000 C 
ATOM     18  C   UNL     1      45.926   6.290  11.464  0.00  0.00    +0.000 C 
ATOM     19  C   UNL     1      47.110   7.167  11.878  0.00  0.00    +0.000 C 
ATOM     20  C   UNL     1      48.101   6.404  12.752  0.00  0.00    +0.000 C 
ATOM     21  C   UNL     1      47.419   5.779  13.964  0.00  0.00    +0.000 C 
ATOM     22  C   UNL     1      46.233   4.907  13.556  0.00  0.00    +0.000 C 
ENDBRANCH  16  17
ENDBRANCH  14  16
ENDBRANCH   1  14
TORSDOF 5
ENDMDL
MODEL 2
REMARK VINA RESULT:    -7.167      1.336      1.884
REMARK INTER + INTRA:          -9.825
REMARK INTER:                  -9.374
REMARK INTRA:                  -0.450
REMARK UNBOUND:                -0.563
REMARK  Name = 
REMARK  6 active torsions:
REMARK  status: ('A' for Active; 'I' for Inactive)
REMARK    1  A    between atoms: C_1  and  C_2
REMARK    2  A    between atoms: C_2  and  C_3
REMARK    3  A    between atoms: C_2  and  C_14
REMARK    4  A    between atoms: C_3  and  N_4
REMARK    5  A    between atoms: N_4  and  C_5
REMARK    6  A    between atoms: C_8  and  C_9
REMARK                            x       y       z     vdW  Elec       q    Type
REMARK                         _______ _______ _______ _____ _____    ______ ____
ROOT
ATOM      1  N   UNL     1      43.835   4.781  10.014  0.00  0.00    +0.000 N 
ATOM      2  H   UNL     1      42.894   4.917   9.654  0.00  0.00    +0.000 HD
ENDROOT
BRANCH   1   3
ATOM      3  C   UNL     1      44.606   3.908   9.248  0.00  0.00    +0.000 A 
ATOM      4  C   UNL     1      44.633   2.525   9.371  0.00  0.00    +0.000 A 
ATOM      5  N   UNL     1      45.451   1.690   8.689  0.00  0.00    +0.000 NA
ATOM      6  C   UNL     1      46.318   2.294   7.846  0.00  0.00    +0.000 A 
ATOM      7  N   UNL     1      46.414   3.619   7.641  0.00  0.00    +0.000 NA
ATOM      8  C   UNL     1      45.561   4.384   8.357  0.00  0.00    +0.000 A 
BRANCH   6   9
ATOM      9  C   UNL     1      47.275   1.385   7.104  0.00  0.00    +0.000 C 
ATOM     10  N   UNL     1      48.413   1.989   6.617  0.00  0.00    +0.000 N 
ATOM     11  O   UNL     1      47.085   0.188   6.920  0.00  0.00    +0.000 OA
ATOM     12  H   UNL     1      48.556   2.984   6.745  0.00  0.00    +0.000 HD
ATOM     13  H   UNL     1      49.073   1.437   6.089  0.00  0.00    +0.000 HD
ENDBRANCH   6   9
ENDBRANCH   1   3
BRANCH   1  14
ATOM     14  C   UNL     1      43.920   4.735  11.464  0.00  0.00    +0.000 C 
BRANCH  14  16
ATOM     15  C   UNL     1      45.855   3.633  12.770  0.00  0.00    +0.000 C 
ATOM     16  C   UNL     1      45.360   4.750  11.895  0.00  0.00    +0.000 C 
BRANCH  16  17
ATOM     17  C   UNL     1      45.991   6.130  12.040  0.00  0.00    +0.000 C 
ATOM     18  C   UNL     1      47.285   6.143  12.872  0.00  0.00    +0.000 C 
ATOM     19  C   UNL     1      47.887   7.549  12.938  0.00  0.00    +0.000 C 
ATOM     20  C   UNL     1      46.885   8.568  13.474  0.00  0.00    +0.000 C 
ATOM     21  C   UNL     1      45.585   8.553  12.677  0.00  0.00    +0.000 C 
ATOM     22  C   UNL     1      44.984   7.151  12.604  0.00  0.00    +0.000 C 
ENDBRANCH  16  17
ENDBRANCH  14  16
ENDBRANCH   1  14
TORSDOF 5
ENDMDL
MODEL 3
REMARK VINA RESULT:    -7.113      3.295      6.698
REMARK INTER + INTRA:          -9.756
REMARK INTER:                  -9.575
REMARK INTRA:                  -0.181
REMARK UNBOUND:                -0.563
REMARK  Name = 
REMARK  6 active torsions:
REMARK  status: ('A' for Active; 'I' for Inactive)
REMARK    1  A    between atoms: C_1  and  C_2
REMARK    2  A    between atoms: C_2  and  C_3
REMARK    3  A    between atoms: C_2  and  C_14
REMARK    4  A    between atoms: C_3  and  N_4
REMARK    5  A    between atoms: N_4  and  C_5
REMARK    6  A    between atoms: C_8  and  C_9
REMARK                            x       y       z     vdW  Elec       q    Type
REMARK                         _______ _______ _______ _____ _____    ______ ____
ROOT
ATOM      1  N   UNL     1      44.591   5.171  10.516  0.00  0.00    +0.000 N 
ATOM      2  H   UNL     1      43.989   5.981  10.397  0.00  0.00    +0.000 HD
ENDROOT
BRANCH   1   3
ATOM      3  C   UNL     1      45.262   5.147  11.738  0.00  0.00    +0.000 A 
ATOM      4  C   UNL     1      46.398   5.879  12.056  0.00  0.00    +0.000 A 
ATOM      5  N   UNL     1      47.099   5.783  13.210  0.00  0.00    +0.000 NA
ATOM      6  C   UNL     1      46.637   4.867  14.090  0.00  0.00    +0.000 A 
ATOM      7  N   UNL     1      45.562   4.080  13.907  0.00  0.00    +0.000 NA
ATOM      8  C   UNL     1      44.916   4.239  12.732  0.00  0.00    +0.000 A 
BRANCH   6   9
ATOM      9  C   UNL     1      47.429   4.709  15.371  0.00  0.00    +0.000 C 
ATOM     10  N   UNL     1      46.997   3.713  16.218  0.00  0.00    +0.000 N 
ATOM     11  O   UNL     1      48.392   5.403  15.674  0.00  0.00    +0.000 OA
ATOM     12  H   UNL     1      46.184   3.158  15.979  0.00  0.00    +0.000 HD
ATOM     13  H   UNL     1      47.470   3.580  17.100  0.00  0.00    +0.000 HD
ENDBRANCH   6   9
ENDBRANCH   1   3
BRANCH   1  14
ATOM     14  C   UNL     1      45.280   4.755   9.307  0.00  0.00    +0.000 C 
BRANCH  14  16
ATOM     15  C   UNL     1      44.145   2.512   9.897  0.00  0.00    +0.000 C 
ATOM     16  C   UNL     1      44.781   3.405   8.869  0.00  0.00    +0.000 C 
BRANCH  16  17
ATOM     17  C   UNL     1      45.535   2.768   7.708  0.00  0.00    +0.000 C 
ATOM     18  C   UNL     1      46.388   1.551   8.108  0.00  0.00    +0.000 C 
ATOM     19  C   UNL     1      47.079   0.935   6.889  0.00  0.00    +0.000 C 
ATOM     20  C   UNL     1      47.917   1.963   6.134  0.00  0.00    +0.000 C 
ATOM     21  C   UNL     1      47.094   3.188   5.750  0.00  0.00    +0.000 C 
ATOM     22  C   UNL     1      46.398   3.803   6.963  0.00  0.00    +0.000 C 
ENDBRANCH  16  17
ENDBRANCH  14  16
ENDBRANCH   1  14
TORSDOF 5
ENDMDL
MODEL 4
REMARK VINA RESULT:    -6.716      3.853      6.673
REMARK INTER + INTRA:          -9.243
REMARK INTER:                  -8.941
REMARK INTRA:                  -0.302
REMARK UNBOUND:                -0.563
REMARK  Name = 
REMARK  6 active torsions:
REMARK  status: ('A' for Active; 'I' for Inactive)
REMARK    1  A    between atoms: C_1  and  C_2
REMARK    2  A    between atoms: C_2  and  C_3
REMARK    3  A    between atoms: C_2  and  C_14
REMARK    4  A    between atoms: C_3  and  N_4
REMARK    5  A    between atoms: N_4  and  C_5
REMARK    6  A    between atoms: C_8  and  C_9
REMARK                            x       y       z     vdW  Elec       q    Type
REMARK                         _______ _______ _______ _____ _____    ______ ____
ROOT
ATOM      1  N   UNL     1      45.902   5.542  11.384  0.00  0.00    +0.000 N 
ATOM      2  H   UNL     1      46.479   5.247  10.601  0.00  0.00    +0.000 HD
ENDROOT
BRANCH   1   3
ATOM      3  C   UNL     1      46.470   5.275  12.629  0.00  0.00    +0.000 A 
ATOM      4  C   UNL     1      46.020   4.331  13.543  0.00  0.00    +0.000 A 
ATOM      5  N   UNL     1      46.518   4.140  14.787  0.00  0.00    +0.000 NA
ATOM      6  C   UNL     1      47.518   4.977  15.142  0.00  0.00    +0.000 A 
ATOM      7  N   UNL     1      48.039   5.945  14.368  0.00  0.00    +0.000 NA
ATOM      8  C   UNL     1      47.490   6.069  13.140  0.00  0.00    +0.000 A 
BRANCH   6   9
ATOM      9  C   UNL     1      48.063   4.814  16.546  0.00  0.00    +0.000 C 
ATOM     10  N   UNL     1      47.172   5.072  17.563  0.00  0.00    +0.000 N 
ATOM     11  O   UNL     1      49.214   4.482  16.803  0.00  0.00    +0.000 OA
ATOM     12  H   UNL     1      46.228   5.374  17.350  0.00  0.00    +0.000 HD
ATOM     13  H   UNL     1      47.487   5.007  18.520  0.00  0.00    +0.000 HD
ENDBRANCH   6   9
ENDBRANCH   1   3
BRANCH   1  14
ATOM     14  C   UNL     1      44.476   5.344  11.185  0.00  0.00    +0.000 C 
BRANCH  14  16
ATOM     15  C   UNL     1      43.441   2.980  11.279  0.00  0.00    +0.000 C 
ATOM     16  C   UNL     1      44.230   4.015  10.525  0.00  0.00    +0.000 C 
BRANCH  16  17
ATOM     17  C   UNL     1      45.306   3.551   9.552  0.00  0.00    +0.000 C 
ATOM     18  C   UNL     1      45.459   4.450   8.312  0.00  0.00    +0.000 C 
ATOM     19  C   UNL     1      46.587   3.953   7.403  0.00  0.00    +0.000 C 
ATOM     20  C   UNL     1      46.384   2.496   6.998  0.00  0.00    +0.000 C 
ATOM     21  C   UNL     1      46.205   1.592   8.213  0.00  0.00    +0.000 C 
ATOM     22  C   UNL     1      45.085   2.088   9.125  0.00  0.00    +0.000 C 
ENDBRANCH  16  17
ENDBRANCH  14  16
ENDBRANCH   1  14
TORSDOF 5
ENDMDL
MODEL 5
REMARK VINA RESULT:    -6.428      3.350      6.239
REMARK INTER + INTRA:          -8.870
REMARK INTER:                  -8.429
REMARK INTRA:                  -0.441
REMARK UNBOUND:                -0.563
REMARK  Name = 
REMARK  6 active torsions:
REMARK  status: ('A' for Active; 'I' for Inactive)
REMARK    1  A    between atoms: C_1  and  C_2
REMARK    2  A    between atoms: C_2  and  C_3
REMARK    3  A    between atoms: C_2  and  C_14
REMARK    4  A    between atoms: C_3  and  N_4
REMARK    5  A    between atoms: N_4  and  C_5
REMARK    6  A    between atoms: C_8  and  C_9
REMARK                            x       y       z     vdW  Elec       q    Type
REMARK                         _______ _______ _______ _____ _____    ______ ____
ROOT
ATOM      1  N   UNL     1      43.968   3.106  11.867  0.00  0.00    +0.000 N 
ATOM      2  H   UNL     1      43.073   3.575  11.975  0.00  0.00    +0.000 HD
ENDROOT
BRANCH   1   3
ATOM      3  C   UNL     1      45.032   3.787  12.458  0.00  0.00    +0.000 A 
ATOM      4  C   UNL     1      46.171   3.205  12.998  0.00  0.00    +0.000 A 
ATOM      5  N   UNL     1      47.156   3.863  13.652  0.00  0.00    +0.000 NA
ATOM      6  C   UNL     1      46.964   5.193  13.796  0.00  0.00    +0.000 A 
ATOM      7  N   UNL     1      45.904   5.884  13.340  0.00  0.00    +0.000 NA
ATOM      8  C   UNL     1      44.967   5.155  12.695  0.00  0.00    +0.000 A 
BRANCH   6   9
ATOM      9  C   UNL     1      48.030   5.946  14.564  0.00  0.00    +0.000 C 
ATOM     10  N   UNL     1      47.892   5.942  15.934  0.00  0.00    +0.000 N 
ATOM     11  O   UNL     1      48.967   6.538  14.040  0.00  0.00    +0.000 OA
ATOM     12  H   UNL     1      47.101   5.476  16.365  0.00  0.00    +0.000 HD
ATOM     13  H   UNL     1      48.558   6.451  16.496  0.00  0.00    +0.000 HD
ENDBRANCH   6   9
ENDBRANCH   1   3
BRANCH   1  14
ATOM     14  C   UNL     1      44.153   2.459  10.579  0.00  0.00    +0.000 C 
BRANCH  14  16
ATOM     15  C   UNL     1      44.055   4.540   9.052  0.00  0.00    +0.000 C 
ATOM     16  C   UNL     1      44.845   3.397   9.628  0.00  0.00    +0.000 C 
BRANCH  16  17
ATOM     17  C   UNL     1      45.963   2.784   8.794  0.00  0.00    +0.000 C 
ATOM     18  C   UNL     1      46.302   3.579   7.520  0.00  0.00    +0.000 C 
ATOM     19  C   UNL     1      47.462   2.934   6.757  0.00  0.00    +0.000 C 
ATOM     20  C   UNL     1      47.176   1.471   6.427  0.00  0.00    +0.000 C 
ATOM     21  C   UNL     1      46.814   0.672   7.674  0.00  0.00    +0.000 C 
ATOM     22  C   UNL     1      45.661   1.316   8.442  0.00  0.00    +0.000 C 
ENDBRANCH  16  17
ENDBRANCH  14  16
ENDBRANCH   1  14
TORSDOF 5
ENDMDL
MODEL 6
REMARK VINA RESULT:    -6.406      4.025      6.920
REMARK INTER + INTRA:          -8.842
REMARK INTER:                  -8.393
REMARK INTRA:                  -0.449
REMARK UNBOUND:                -0.563
REMARK  Name = 
REMARK  6 active torsions:
REMARK  status: ('A' for Active; 'I' for Inactive)
REMARK    1  A    between atoms: C_1  and  C_2
REMARK    2  A    between atoms: C_2  and  C_3
REMARK    3  A    between atoms: C_2  and  C_14
REMARK    4  A    between atoms: C_3  and  N_4
REMARK    5  A    between atoms: N_4  and  C_5
REMARK    6  A    between atoms: C_8  and  C_9
REMARK                            x       y       z     vdW  Elec       q    Type
REMARK                         _______ _______ _______ _____ _____    ______ ____
ROOT
ATOM      1  N   UNL     1      46.235   6.629  12.492  0.00  0.00    +0.000 N 
ATOM      2  H   UNL     1      46.442   7.623  12.518  0.00  0.00    +0.000 HD
ENDROOT
BRANCH   1   3
ATOM      3  C   UNL     1      46.698   5.932  13.607  0.00  0.00    +0.000 A 
ATOM      4  C   UNL     1      47.818   6.255  14.361  0.00  0.00    +0.000 A 
ATOM      5  N   UNL     1      48.315   5.523  15.385  0.00  0.00    +0.000 NA
ATOM      6  C   UNL     1      47.654   4.374  15.647  0.00  0.00    +0.000 A 
ATOM      7  N   UNL     1      46.569   3.929  14.989  0.00  0.00    +0.000 NA
ATOM      8  C   UNL     1      46.133   4.718  13.983  0.00  0.00    +0.000 A 
BRANCH   6   9
ATOM      9  C   UNL     1      48.217   3.514  16.759  0.00  0.00    +0.000 C 
ATOM     10  N   UNL     1      47.300   3.050  17.675  0.00  0.00    +0.000 N 
ATOM     11  O   UNL     1      49.404   3.233  16.877  0.00  0.00    +0.000 OA
ATOM     12  H   UNL     1      46.322   3.306  17.592  0.00  0.00    +0.000 HD
ATOM     13  H   UNL     1      47.622   2.495  18.454  0.00  0.00    +0.000 HD
ENDBRANCH   6   9
ENDBRANCH   1   3
BRANCH   1  14
ATOM     14  C   UNL     1      46.341   6.030  11.172  0.00  0.00    +0.000 C 
BRANCH  14  16
ATOM     15  C   UNL     1      43.777   6.124  11.458  0.00  0.00    +0.000 C 
ATOM     16  C   UNL     1      44.969   5.768  10.615  0.00  0.00    +0.000 C 
BRANCH  16  17
ATOM     17  C   UNL     1      44.862   4.592   9.652  0.00  0.00    +0.000 C 
ATOM     18  C   UNL     1      44.894   3.215  10.339  0.00  0.00    +0.000 C 
ATOM     19  C   UNL     1      44.736   2.084   9.319  0.00  0.00    +0.000 C 
ATOM     20  C   UNL     1      45.787   2.167   8.216  0.00  0.00    +0.000 C 
ATOM     21  C   UNL     1      45.787   3.534   7.539  0.00  0.00    +0.000 C 
ATOM     22  C   UNL     1      45.939   4.665   8.553  0.00  0.00    +0.000 C 
ENDBRANCH  16  17
ENDBRANCH  14  16
ENDBRANCH   1  14
TORSDOF 5
ENDMDL
MODEL 7
REMARK VINA RESULT:    -6.034      4.679      7.219
REMARK INTER + INTRA:          -8.361
REMARK INTER:                  -7.806
REMARK INTRA:                  -0.555
REMARK UNBOUND:                -0.563
REMARK  Name = 
REMARK  6 active torsions:
REMARK  status: ('A' for Active; 'I' for Inactive)
REMARK    1  A    between atoms: C_1  and  C_2
REMARK    2  A    between atoms: C_2  and  C_3
REMARK    3  A    between atoms: C_2  and  C_14
REMARK    4  A    between atoms: C_3  and  N_4
REMARK    5  A    between atoms: N_4  and  C_5
REMARK    6  A    between atoms: C_8  and  C_9
REMARK                            x       y       z     vdW  Elec       q    Type
REMARK                         _______ _______ _______ _____ _____    ______ ____
ROOT
ATOM      1  N   UNL     1      47.861   6.972  13.285  0.00  0.00    +0.000 N 
ATOM      2  H   UNL     1      48.735   7.489  13.257  0.00  0.00    +0.000 HD
ENDROOT
BRANCH   1   3
ATOM      3  C   UNL     1      47.828   5.982  14.266  0.00  0.00    +0.000 A 
ATOM      4  C   UNL     1      46.969   4.891  14.293  0.00  0.00    +0.000 A 
ATOM      5  N   UNL     1      46.879   3.985  15.294  0.00  0.00    +0.000 NA
ATOM      6  C   UNL     1      47.689   4.212  16.352  0.00  0.00    +0.000 A 
ATOM      7  N   UNL     1      48.555   5.235  16.468  0.00  0.00    +0.000 NA
ATOM      8  C   UNL     1      48.588   6.092  15.425  0.00  0.00    +0.000 A 
BRANCH   6   9
ATOM      9  C   UNL     1      47.575   3.238  17.505  0.00  0.00    +0.000 C 
ATOM     10  N   UNL     1      48.675   3.160  18.330  0.00  0.00    +0.000 N 
ATOM     11  O   UNL     1      46.590   2.541  17.723  0.00  0.00    +0.000 OA
ATOM     12  H   UNL     1      49.500   3.716  18.133  0.00  0.00    +0.000 HD
ATOM     13  H   UNL     1      48.666   2.506  19.099  0.00  0.00    +0.000 HD
ENDBRANCH   6   9
ENDBRANCH   1   3
BRANCH   1  14
ATOM     14  C   UNL     1      47.278   6.712  11.979  0.00  0.00    +0.000 C 
BRANCH  14  16
ATOM     15  C   UNL     1      45.640   8.542  12.776  0.00  0.00    +0.000 C 
ATOM     16  C   UNL     1      45.931   7.373  11.877  0.00  0.00    +0.000 C 
BRANCH  16  17
ATOM     17  C   UNL     1      44.781   6.466  11.459  0.00  0.00    +0.000 C 
ATOM     18  C   UNL     1      43.955   5.917  12.636  0.00  0.00    +0.000 C 
ATOM     19  C   UNL     1      42.792   5.054  12.142  0.00  0.00    +0.000 C 
ATOM     20  C   UNL     1      43.273   3.921  11.240  0.00  0.00    +0.000 C 
ATOM     21  C   UNL     1      44.114   4.442  10.080  0.00  0.00    +0.000 C 
ATOM     22  C   UNL     1      45.273   5.310  10.568  0.00  0.00    +0.000 C 
ENDBRANCH  16  17
ENDBRANCH  14  16
ENDBRANCH   1  14
TORSDOF 5
ENDMDL
MODEL 8
REMARK VINA RESULT:    -5.700      3.575      5.863
REMARK INTER + INTRA:          -7.929
REMARK INTER:                  -7.441
REMARK INTRA:                  -0.488
REMARK UNBOUND:                -0.563
REMARK  Name = 
REMARK  6 active torsions:
REMARK  status: ('A' for Active; 'I' for Inactive)
REMARK    1  A    between atoms: C_1  and  C_2
REMARK    2  A    between atoms: C_2  and  C_3
REMARK    3  A    between atoms: C_2  and  C_14
REMARK    4  A    between atoms: C_3  and  N_4
REMARK    5  A    between atoms: N_4  and  C_5
REMARK    6  A    between atoms: C_8  and  C_9
REMARK                            x       y       z     vdW  Elec       q    Type
REMARK                         _______ _______ _______ _____ _____    ______ ____
ROOT
ATOM      1  N   UNL     1      47.051   6.820  13.996  0.00  0.00    +0.000 N 
ATOM      2  H   UNL     1      46.470   7.153  14.761  0.00  0.00    +0.000 HD
ENDROOT
BRANCH   1   3
ATOM      3  C   UNL     1      46.426   5.864  13.195  0.00  0.00    +0.000 A 
ATOM      4  C   UNL     1      45.934   6.073  11.914  0.00  0.00    +0.000 A 
ATOM      5  N   UNL     1      45.247   5.168  11.178  0.00  0.00    +0.000 NA
ATOM      6  C   UNL     1      45.018   3.984  11.788  0.00  0.00    +0.000 A 
ATOM      7  N   UNL     1      45.419   3.652  13.028  0.00  0.00    +0.000 NA
ATOM      8  C   UNL     1      46.102   4.608  13.695  0.00  0.00    +0.000 A 
BRANCH   6   9
ATOM      9  C   UNL     1      44.212   2.970  11.002  0.00  0.00    +0.000 C 
ATOM     10  N   UNL     1      44.875   2.363   9.959  0.00  0.00    +0.000 N 
ATOM     11  O   UNL     1      43.045   2.684  11.242  0.00  0.00    +0.000 OA
ATOM     12  H   UNL     1      45.832   2.621   9.745  0.00  0.00    +0.000 HD
ATOM     13  H   UNL     1      44.379   1.699   9.383  0.00  0.00    +0.000 HD
ENDBRANCH   6   9
ENDBRANCH   1   3
BRANCH   1  14
ATOM     14  C   UNL     1      48.456   6.672  14.333  0.00  0.00    +0.000 C 
BRANCH  14  16
ATOM     15  C   UNL     1      49.380   7.689  16.519  0.00  0.00    +0.000 C 
ATOM     16  C   UNL     1      48.621   6.592  15.826  0.00  0.00    +0.000 C 
BRANCH  16  17
ATOM     17  C   UNL     1      48.668   5.185  16.410  0.00  0.00    +0.000 C 
ATOM     18  C   UNL     1      47.326   4.703  16.990  0.00  0.00    +0.000 C 
ATOM     19  C   UNL     1      47.433   3.270  17.516  0.00  0.00    +0.000 C 
ATOM     20  C   UNL     1      48.553   3.128  18.543  0.00  0.00    +0.000 C 
ATOM     21  C   UNL     1      49.887   3.623  17.996  0.00  0.00    +0.000 C 
ATOM     22  C   UNL     1      49.783   5.052  17.464  0.00  0.00    +0.000 C 
ENDBRANCH  16  17
ENDBRANCH  14  16
ENDBRANCH   1  14
TORSDOF 5
ENDMDL
MODEL 9
REMARK VINA RESULT:    -5.659      4.269      6.433
REMARK INTER + INTRA:          -7.877
REMARK INTER:                  -7.488
REMARK INTRA:                  -0.389
REMARK UNBOUND:                -0.563
REMARK  Name = 
REMARK  6 active torsions:
REMARK  status: ('A' for Active; 'I' for Inactive)
REMARK    1  A    between atoms: C_1  and  C_2
REMARK    2  A    between atoms: C_2  and  C_3
REMARK    3  A    between atoms: C_2  and  C_14
REMARK    4  A    between atoms: C_3  and  N_4
REMARK    5  A    between atoms: N_4  and  C_5
REMARK    6  A    between atoms: C_8  and  C_9
REMARK                            x       y       z     vdW  Elec       q    Type
REMARK                         _______ _______ _______ _____ _____    ______ ____
ROOT
ATOM      1  N   UNL     1      47.505   5.239  15.096  0.00  0.00    +0.000 N 
ATOM      2  H   UNL     1      47.544   6.231  15.312  0.00  0.00    +0.000 HD
ENDROOT
BRANCH   1   3
ATOM      3  C   UNL     1      46.695   4.935  14.003  0.00  0.00    +0.000 A 
ATOM      4  C   UNL     1      45.900   5.835  13.305  0.00  0.00    +0.000 A 
ATOM      5  N   UNL     1      45.046   5.519  12.304  0.00  0.00    +0.000 NA
ATOM      6  C   UNL     1      44.968   4.202  12.008  0.00  0.00    +0.000 A 
ATOM      7  N   UNL     1      45.663   3.222  12.611  0.00  0.00    +0.000 NA
ATOM      8  C   UNL     1      46.496   3.621  13.597  0.00  0.00    +0.000 A 
BRANCH   6   9
ATOM      9  C   UNL     1      43.985   3.817  10.921  0.00  0.00    +0.000 C 
ATOM     10  N   UNL     1      43.807   4.748   9.923  0.00  0.00    +0.000 N 
ATOM     11  O   UNL     1      43.365   2.760  10.898  0.00  0.00    +0.000 OA
ATOM     12  H   UNL     1      44.299   5.634   9.958  0.00  0.00    +0.000 HD
ATOM     13  H   UNL     1      43.143   4.557   9.187  0.00  0.00    +0.000 HD
ENDBRANCH   6   9
ENDBRANCH   1   3
BRANCH   1  14
ATOM     14  C   UNL     1      47.495   4.373  16.263  0.00  0.00    +0.000 C 
BRANCH  14  16
ATOM     15  C   UNL     1      48.686   6.395  17.341  0.00  0.00    +0.000 C 
ATOM     16  C   UNL     1      48.426   4.914  17.313  0.00  0.00    +0.000 C 
BRANCH  16  17
ATOM     17  C   UNL     1      49.529   3.967  17.768  0.00  0.00    +0.000 C 
ATOM     18  C   UNL     1      50.938   4.587  17.740  0.00  0.00    +0.000 C 
ATOM     19  C   UNL     1      51.988   3.598  18.252  0.00  0.00    +0.000 C 
ATOM     20  C   UNL     1      51.955   2.286  17.473  0.00  0.00    +0.000 C 
ATOM     21  C   UNL     1      50.561   1.668  17.468  0.00  0.00    +0.000 C 
ATOM     22  C   UNL     1      49.509   2.654  16.964  0.00  0.00    +0.000 C 
ENDBRANCH  16  17
ENDBRANCH  14  16
ENDBRANCH   1  14
TORSDOF 5
ENDMDL
