MODEL 1
REMARK VINA RESULT:    -7.919      0.000      0.000
REMARK INTER + INTRA:         -10.988
REMARK INTER:                 -10.234
REMARK INTRA:                  -0.754
REMARK UNBOUND:                -0.754
REMARK  Name = 
REMARK  8 active torsions:
REMARK  status: ('A' for Active; 'I' for Inactive)
REMARK    1  A    between atoms: C_1  and  C_2
REMARK    2  A    between atoms: C_2  and  C_3
REMARK    3  A    between atoms: C_2  and  O_4
REMARK    4  A    between atoms: C_2  and  C_5
REMARK    5  A    between atoms: N_7  and  C_8
REMARK    6  A    between atoms: C_8  and  C_9
REMARK    7  A    between atoms: C_12  and  C_13
REMARK    8  A    between atoms: C_13  and  N_14
REMARK                            x       y       z     vdW  Elec       q    Type
REMARK                         _______ _______ _______ _____ _____    ______ ____
ROOT
ATOM      1  C   UNL     1      45.478   7.071  12.056  0.00  0.00    +0.000 A 
ATOM      2  C   UNL     1      44.566   6.565  11.145  0.00  0.00    +0.000 A 
ATOM      3  N   UNL     1      44.591   5.198  11.193  0.00  0.00    +0.000 N 
ATOM      4  C   UNL     1      45.453   4.778  12.185  0.00  0.00    +0.000 A 
ATOM      5  C   UNL     1      45.790   3.487  12.634  0.00  0.00    +0.000 A 
ATOM      6  C   UNL     1      46.739   3.354  13.651  0.00  0.00    +0.000 A 
ATOM      7  C   UNL     1      47.335   4.476  14.211  0.00  0.00    +0.000 A 
ATOM      8  C   UNL     1      46.990   5.751  13.761  0.00  0.00    +0.000 A 
ATOM      9  F   UNL     1      47.599   6.802  14.327  0.00  0.00    +0.000 F 
ATOM     10  C   UNL     1      46.034   5.930  12.737  0.00  0.00    +0.000 A 
ENDROOT
BRANCH   1  12
ATOM     11  C   UNL     1      44.848   9.432  11.449  0.00  0.00    +0.000 C 
ATOM     12  C   UNL     1      45.811   8.540  12.243  0.00  0.00    +0.000 C 
ATOM     13  C   UNL     1      47.270   8.856  11.897  0.00  0.00    +0.000 C 
BRANCH  12  14
ATOM     14  O   UNL     1      45.647   8.901  13.631  0.00  0.00    +0.000 OA
ATOM     15  H   UNL     1      45.250   9.788  13.654  0.00  0.00    +0.000 HD
ENDBRANCH  12  14
ENDBRANCH   1  12
BRANCH   3  16
ATOM     16  C   UNL     1      43.829   4.338  10.292  0.00  0.00    +0.000 C 
BRANCH  16  17
ATOM     17  C   UNL     1      44.735   3.654   9.308  0.00  0.00    +0.000 A 
ATOM     18  C   UNL     1      45.494   4.379   8.386  0.00  0.00    +0.000 A 
ATOM     19  C   UNL     1      46.394   3.713   7.557  0.00  0.00    +0.000 A 
ATOM     20  C   UNL     1      46.516   2.329   7.663  0.00  0.00    +0.000 A 
ATOM     21  N   UNL     1      45.761   1.600   8.523  0.00  0.00    +0.000 NA
ATOM     22  C   UNL     1      44.904   2.275   9.323  0.00  0.00    +0.000 A 
BRANCH  20  23
ATOM     23  C   UNL     1      47.540   1.582   6.837  0.00  0.00    +0.000 C 
BRANCH  23  24
ATOM     24  N   UNL     1      48.621   2.441   6.346  0.00  0.00    +0.000 NA
ATOM     25  H   UNL     1      48.969   2.983   7.137  0.00  0.00    +0.000 HD
ATOM     26  H   UNL     1      48.219   3.121   5.701  0.00  0.00    +0.000 HD
ENDBRANCH  23  24
ENDBRANCH  20  23
ENDBRANCH  16  17
ENDBRANCH   3  16
TORSDOF 6
ENDMDL
MODEL 2
REMARK VINA RESULT:    -6.727      1.988      3.347
REMARK INTER + INTRA:          -9.447
REMARK INTER:                  -8.834
REMARK INTRA:                  -0.614
REMARK UNBOUND:                -0.754
REMARK  Name = 
REMARK  8 active torsions:
REMARK  status: ('A' for Active; 'I' for Inactive)
REMARK    1  A    between atoms: C_1  and  C_2
REMARK    2  A    between atoms: C_2  and  C_3
REMARK    3  A    between atoms: C_2  and  O_4
REMARK    4  A    between atoms: C_2  and  C_5
REMARK    5  A    between atoms: N_7  and  C_8
REMARK    6  A    between atoms: C_8  and  C_9
REMARK    7  A    between atoms: C_12  and  C_13
REMARK    8  A    between atoms: C_13  and  N_14
REMARK                            x       y       z     vdW  Elec       q    Type
REMARK                         _______ _______ _______ _____ _____    ______ ____
ROOT
ATOM      1  C   UNL     1      47.000   7.082  12.198  0.00  0.00    +0.000 A 
ATOM      2  C   UNL     1      46.405   5.904  11.782  0.00  0.00    +0.000 A 
ATOM      3  N   UNL     1      45.142   6.173  11.329  0.00  0.00    +0.000 N 
ATOM      4  C   UNL     1      44.910   7.532  11.360  0.00  0.00    +0.000 A 
ATOM      5  C   UNL     1      43.789   8.290  10.971  0.00  0.00    +0.000 A 
ATOM      6  C   UNL     1      43.817   9.676  11.153  0.00  0.00    +0.000 A 
ATOM      7  C   UNL     1      44.932  10.293  11.703  0.00  0.00    +0.000 A 
ATOM      8  C   UNL     1      46.039   9.532  12.081  0.00  0.00    +0.000 A 
ATOM      9  F   UNL     1      47.088  10.173  12.615  0.00  0.00    +0.000 F 
ATOM     10  C   UNL     1      46.054   8.130  11.913  0.00  0.00    +0.000 A 
ENDROOT
BRANCH   1  12
ATOM     11  C   UNL     1      48.256   7.717  14.286  0.00  0.00    +0.000 C 
ATOM     12  C   UNL     1      48.368   7.195  12.847  0.00  0.00    +0.000 C 
ATOM     13  C   UNL     1      49.337   8.049  12.023  0.00  0.00    +0.000 C 
BRANCH  12  14
ATOM     14  O   UNL     1      48.971   5.886  12.937  0.00  0.00    +0.000 OA
ATOM     15  H   UNL     1      49.747   5.886  12.352  0.00  0.00    +0.000 HD
ENDBRANCH  12  14
ENDBRANCH   1  12
BRANCH   3  16
ATOM     16  C   UNL     1      44.192   5.146  10.908  0.00  0.00    +0.000 C 
BRANCH  16  17
ATOM     17  C   UNL     1      44.804   4.239   9.878  0.00  0.00    +0.000 A 
ATOM     18  C   UNL     1      45.517   4.746   8.789  0.00  0.00    +0.000 A 
ATOM     19  C   UNL     1      46.150   3.870   7.910  0.00  0.00    +0.000 A 
ATOM     20  C   UNL     1      46.054   2.498   8.136  0.00  0.00    +0.000 A 
ATOM     21  N   UNL     1      45.334   1.983   9.163  0.00  0.00    +0.000 NA
ATOM     22  C   UNL     1      44.740   2.857  10.006  0.00  0.00    +0.000 A 
BRANCH  20  23
ATOM     23  C   UNL     1      46.795   1.519   7.250  0.00  0.00    +0.000 C 
BRANCH  23  24
ATOM     24  N   UNL     1      46.789   0.150   7.775  0.00  0.00    +0.000 NA
ATOM     25  H   UNL     1      47.685  -0.008   8.237  0.00  0.00    +0.000 HD
ATOM     26  H   UNL     1      46.768  -0.493   6.985  0.00  0.00    +0.000 HD
ENDBRANCH  23  24
ENDBRANCH  20  23
ENDBRANCH  16  17
ENDBRANCH   3  16
TORSDOF 6
ENDMDL
MODEL 3
REMARK VINA RESULT:    -6.265      3.501      6.261
REMARK INTER + INTRA:          -8.850
REMARK INTER:                  -8.323
REMARK INTRA:                  -0.528
REMARK UNBOUND:                -0.754
REMARK  Name = 
REMARK  8 active torsions:
REMARK  status: ('A' for Active; 'I' for Inactive)
REMARK    1  A    between atoms: C_1  and  C_2
REMARK    2  A    between atoms: C_2  and  C_3
REMARK    3  A    between atoms: C_2  and  O_4
REMARK    4  A    between atoms: C_2  and  C_5
REMARK    5  A    between atoms: N_7  and  C_8
REMARK    6  A    between atoms: C_8  and  C_9
REMARK    7  A    between atoms: C_12  and  C_13
REMARK    8  A    between atoms: C_13  and  N_14
REMARK                            x       y       z     vdW  Elec       q    Type
REMARK                         _______ _______ _______ _____ _____    ______ ____
ROOT
ATOM      1  C   UNL     1      45.402   4.277   9.405  0.00  0.00    +0.000 A 
ATOM      2  C   UNL     1      45.980   5.524   9.575  0.00  0.00    +0.000 A 
ATOM      3  N   UNL     1      45.589   6.041  10.780  0.00  0.00    +0.000 N 
ATOM      4  C   UNL     1      44.819   5.121  11.460  0.00  0.00    +0.000 A 
ATOM      5  C   UNL     1      44.219   5.175  12.733  0.00  0.00    +0.000 A 
ATOM      6  C   UNL     1      43.448   4.090  13.160  0.00  0.00    +0.000 A 
ATOM      7  C   UNL     1      43.282   2.978  12.346  0.00  0.00    +0.000 A 
ATOM      8  C   UNL     1      43.884   2.934  11.089  0.00  0.00    +0.000 A 
ATOM      9  F   UNL     1      43.687   1.843  10.336  0.00  0.00    +0.000 F 
ATOM     10  C   UNL     1      44.673   4.007  10.618  0.00  0.00    +0.000 A 
ENDROOT
BRANCH   1  12
ATOM     11  C   UNL     1      45.953   1.987   8.515  0.00  0.00    +0.000 C 
ATOM     12  C   UNL     1      45.518   3.416   8.160  0.00  0.00    +0.000 C 
ATOM     13  C   UNL     1      46.446   4.033   7.109  0.00  0.00    +0.000 C 
BRANCH  12  14
ATOM     14  O   UNL     1      44.225   3.300   7.529  0.00  0.00    +0.000 OA
ATOM     15  H   UNL     1      43.555   3.382   8.226  0.00  0.00    +0.000 HD
ENDBRANCH  12  14
ENDBRANCH   1  12
BRANCH   3  16
ATOM     16  C   UNL     1      45.930   7.386  11.237  0.00  0.00    +0.000 C 
BRANCH  16  17
ATOM     17  C   UNL     1      47.180   7.368  12.071  0.00  0.00    +0.000 A 
ATOM     18  C   UNL     1      48.447   7.475  11.492  0.00  0.00    +0.000 A 
ATOM     19  C   UNL     1      49.574   7.551  12.308  0.00  0.00    +0.000 A 
ATOM     20  C   UNL     1      49.412   7.515  13.692  0.00  0.00    +0.000 A 
ATOM     21  N   UNL     1      48.195   7.372  14.274  0.00  0.00    +0.000 NA
ATOM     22  C   UNL     1      47.119   7.311  13.458  0.00  0.00    +0.000 A 
BRANCH  20  23
ATOM     23  C   UNL     1      50.604   7.677  14.609  0.00  0.00    +0.000 C 
BRANCH  23  24
ATOM     24  N   UNL     1      50.721   6.600  15.597  0.00  0.00    +0.000 NA
ATOM     25  H   UNL     1      50.401   6.966  16.493  0.00  0.00    +0.000 HD
ATOM     26  H   UNL     1      51.710   6.389  15.721  0.00  0.00    +0.000 HD
ENDBRANCH  23  24
ENDBRANCH  20  23
ENDBRANCH  16  17
ENDBRANCH   3  16
TORSDOF 6
ENDMDL
MODEL 4
REMARK VINA RESULT:    -5.903      4.102      6.597
REMARK INTER + INTRA:          -8.383
REMARK INTER:                  -7.755
REMARK INTRA:                  -0.628
REMARK UNBOUND:                -0.754
REMARK  Name = 
REMARK  8 active torsions:
REMARK  status: ('A' for Active; 'I' for Inactive)
REMARK    1  A    between atoms: C_1  and  C_2
REMARK    2  A    between atoms: C_2  and  C_3
REMARK    3  A    between atoms: C_2  and  O_4
REMARK    4  A    between atoms: C_2  and  C_5
REMARK    5  A    between atoms: N_7  and  C_8
REMARK    6  A    between atoms: C_8  and  C_9
REMARK    7  A    between atoms: C_12  and  C_13
REMARK    8  A    between atoms: C_13  and  N_14
REMARK                            x       y       z     vdW  Elec       q    Type
REMARK                         _______ _______ _______ _____ _____    ______ ____
ROOT
ATOM      1  C   UNL     1      47.789   6.653  13.548  0.00  0.00    +0.000 A 
ATOM      2  C   UNL     1      48.005   6.122  14.809  0.00  0.00    +0.000 A 
ATOM      3  N   UNL     1      47.225   5.009  14.970  0.00  0.00    +0.000 N 
ATOM      4  C   UNL     1      46.545   4.738  13.800  0.00  0.00    +0.000 A 
ATOM      5  C   UNL     1      45.659   3.698  13.464  0.00  0.00    +0.000 A 
ATOM      6  C   UNL     1      45.078   3.693  12.193  0.00  0.00    +0.000 A 
ATOM      7  C   UNL     1      45.375   4.692  11.277  0.00  0.00    +0.000 A 
ATOM      8  C   UNL     1      46.259   5.716  11.620  0.00  0.00    +0.000 A 
ATOM      9  F   UNL     1      46.507   6.664  10.705  0.00  0.00    +0.000 F 
ATOM     10  C   UNL     1      46.869   5.759  12.893  0.00  0.00    +0.000 A 
ENDROOT
BRANCH   1  12
ATOM     11  C   UNL     1      47.315   8.977  12.705  0.00  0.00    +0.000 C 
ATOM     12  C   UNL     1      48.400   7.938  13.018  0.00  0.00    +0.000 C 
ATOM     13  C   UNL     1      49.303   7.697  11.804  0.00  0.00    +0.000 C 
BRANCH  12  14
ATOM     14  O   UNL     1      49.245   8.526  14.030  0.00  0.00    +0.000 OA
ATOM     15  H   UNL     1      49.782   9.209  13.596  0.00  0.00    +0.000 HD
ENDBRANCH  12  14
ENDBRANCH   1  12
BRANCH   3  16
ATOM     16  C   UNL     1      47.125   4.259  16.219  0.00  0.00    +0.000 C 
BRANCH  16  17
ATOM     17  C   UNL     1      48.432   3.596  16.551  0.00  0.00    +0.000 A 
ATOM     18  C   UNL     1      49.392   4.229  17.345  0.00  0.00    +0.000 A 
ATOM     19  C   UNL     1      50.548   3.543  17.710  0.00  0.00    +0.000 A 
ATOM     20  C   UNL     1      50.725   2.232  17.269  0.00  0.00    +0.000 A 
ATOM     21  N   UNL     1      49.826   1.612  16.464  0.00  0.00    +0.000 NA
ATOM     22  C   UNL     1      48.708   2.299  16.136  0.00  0.00    +0.000 A 
BRANCH  20  23
ATOM     23  C   UNL     1      51.928   1.428  17.711  0.00  0.00    +0.000 C 
BRANCH  23  24
ATOM     24  N   UNL     1      51.583   0.076  18.161  0.00  0.00    +0.000 NA
ATOM     25  H   UNL     1      52.422  -0.338  18.568  0.00  0.00    +0.000 HD
ATOM     26  H   UNL     1      51.367  -0.487  17.339  0.00  0.00    +0.000 HD
ENDBRANCH  23  24
ENDBRANCH  20  23
ENDBRANCH  16  17
ENDBRANCH   3  16
TORSDOF 6
ENDMDL
MODEL 5
REMARK VINA RESULT:    -5.867      3.980      7.603
REMARK INTER + INTRA:          -8.337
REMARK INTER:                  -8.047
REMARK INTRA:                  -0.290
REMARK UNBOUND:                -0.754
REMARK  Name = 
REMARK  8 active torsions:
REMARK  status: ('A' for Active; 'I' for Inactive)
REMARK    1  A    between atoms: C_1  and  C_2
REMARK    2  A    between atoms: C_2  and  C_3
REMARK    3  A    between atoms: C_2  and  O_4
REMARK    4  A    between atoms: C_2  and  C_5
REMARK    5  A    between atoms: N_7  and  C_8
REMARK    6  A    between atoms: C_8  and  C_9
REMARK    7  A    between atoms: C_12  and  C_13
REMARK    8  A    between atoms: C_13  and  N_14
REMARK                            x       y       z     vdW  Elec       q    Type
REMARK                         _______ _______ _______ _____ _____    ______ ____
ROOT
ATOM      1  C   UNL     1      45.657   4.934  12.663  0.00  0.00    +0.000 A 
ATOM      2  C   UNL     1      46.773   4.814  13.473  0.00  0.00    +0.000 A 
ATOM      3  N   UNL     1      47.308   6.054  13.691  0.00  0.00    +0.000 N 
ATOM      4  C   UNL     1      46.517   7.019  13.102  0.00  0.00    +0.000 A 
ATOM      5  C   UNL     1      46.631   8.421  13.075  0.00  0.00    +0.000 A 
ATOM      6  C   UNL     1      45.687   9.160  12.356  0.00  0.00    +0.000 A 
ATOM      7  C   UNL     1      44.653   8.521  11.685  0.00  0.00    +0.000 A 
ATOM      8  C   UNL     1      44.548   7.131  11.722  0.00  0.00    +0.000 A 
ATOM      9  F   UNL     1      43.538   6.560  11.051  0.00  0.00    +0.000 F 
ATOM     10  C   UNL     1      45.479   6.346  12.438  0.00  0.00    +0.000 A 
ENDROOT
BRANCH   1  12
ATOM     11  C   UNL     1      44.884   3.737  10.587  0.00  0.00    +0.000 C 
ATOM     12  C   UNL     1      44.835   3.779  12.120  0.00  0.00    +0.000 C 
ATOM     13  C   UNL     1      43.389   3.803  12.628  0.00  0.00    +0.000 C 
BRANCH  12  14
ATOM     14  O   UNL     1      45.394   2.529  12.578  0.00  0.00    +0.000 OA
ATOM     15  H   UNL     1      45.033   1.827  12.012  0.00  0.00    +0.000 HD
ENDBRANCH  12  14
ENDBRANCH   1  12
BRANCH   3  16
ATOM     16  C   UNL     1      48.553   6.287  14.420  0.00  0.00    +0.000 C 
BRANCH  16  17
ATOM     17  C   UNL     1      48.384   5.979  15.880  0.00  0.00    +0.000 A 
ATOM     18  C   UNL     1      47.924   4.735  16.318  0.00  0.00    +0.000 A 
ATOM     19  C   UNL     1      47.874   4.457  17.682  0.00  0.00    +0.000 A 
ATOM     20  C   UNL     1      48.284   5.435  18.587  0.00  0.00    +0.000 A 
ATOM     21  N   UNL     1      48.696   6.664  18.187  0.00  0.00    +0.000 NA
ATOM     22  C   UNL     1      48.744   6.901  16.856  0.00  0.00    +0.000 A 
BRANCH  20  23
ATOM     23  C   UNL     1      48.320   5.141  20.071  0.00  0.00    +0.000 C 
BRANCH  23  24
ATOM     24  N   UNL     1      48.384   3.708  20.372  0.00  0.00    +0.000 NA
ATOM     25  H   UNL     1      47.547   3.466  20.903  0.00  0.00    +0.000 HD
ATOM     26  H   UNL     1      49.167   3.551  21.005  0.00  0.00    +0.000 HD
ENDBRANCH  23  24
ENDBRANCH  20  23
ENDBRANCH  16  17
ENDBRANCH   3  16
TORSDOF 6
ENDMDL
MODEL 6
REMARK VINA RESULT:    -5.437      3.664      6.493
REMARK INTER + INTRA:          -7.781
REMARK INTER:                  -7.192
REMARK INTRA:                  -0.588
REMARK UNBOUND:                -0.754
REMARK  Name = 
REMARK  8 active torsions:
REMARK  status: ('A' for Active; 'I' for Inactive)
REMARK    1  A    between atoms: C_1  and  C_2
REMARK    2  A    between atoms: C_2  and  C_3
REMARK    3  A    between atoms: C_2  and  O_4
REMARK    4  A    between atoms: C_2  and  C_5
REMARK    5  A    between atoms: N_7  and  C_8
REMARK    6  A    between atoms: C_8  and  C_9
REMARK    7  A    between atoms: C_12  and  C_13
REMARK    8  A    between atoms: C_13  and  N_14
REMARK                            x       y       z     vdW  Elec       q    Type
REMARK                         _______ _______ _______ _____ _____    ______ ____
ROOT
ATOM      1  C   UNL     1      45.609   4.990  12.612  0.00  0.00    +0.000 A 
ATOM      2  C   UNL     1      46.699   5.034  13.466  0.00  0.00    +0.000 A 
ATOM      3  N   UNL     1      47.083   6.336  13.640  0.00  0.00    +0.000 N 
ATOM      4  C   UNL     1      46.213   7.176  12.976  0.00  0.00    +0.000 A 
ATOM      5  C   UNL     1      46.171   8.580  12.883  0.00  0.00    +0.000 A 
ATOM      6  C   UNL     1      45.181   9.173  12.095  0.00  0.00    +0.000 A 
ATOM      7  C   UNL     1      44.253   8.391  11.422  0.00  0.00    +0.000 A 
ATOM      8  C   UNL     1      44.301   7.001  11.524  0.00  0.00    +0.000 A 
ATOM      9  F   UNL     1      43.389   6.289  10.848  0.00  0.00    +0.000 F 
ATOM     10  C   UNL     1      45.284   6.360  12.311  0.00  0.00    +0.000 A 
ENDROOT
BRANCH   1  12
ATOM     11  C   UNL     1      45.078   3.608  10.576  0.00  0.00    +0.000 C 
ATOM     12  C   UNL     1      44.944   3.725  12.100  0.00  0.00    +0.000 C 
ATOM     13  C   UNL     1      43.479   3.619  12.537  0.00  0.00    +0.000 C 
BRANCH  12  14
ATOM     14  O   UNL     1      45.607   2.569  12.656  0.00  0.00    +0.000 OA
ATOM     15  H   UNL     1      45.103   1.787  12.379  0.00  0.00    +0.000 HD
ENDBRANCH  12  14
ENDBRANCH   1  12
BRANCH   3  16
ATOM     16  C   UNL     1      48.263   6.741  14.399  0.00  0.00    +0.000 C 
BRANCH  16  17
ATOM     17  C   UNL     1      49.250   7.452  13.517  0.00  0.00    +0.000 A 
ATOM     18  C   UNL     1      49.465   7.059  12.194  0.00  0.00    +0.000 A 
ATOM     19  C   UNL     1      50.316   7.804  11.381  0.00  0.00    +0.000 A 
ATOM     20  C   UNL     1      50.941   8.932  11.910  0.00  0.00    +0.000 A 
ATOM     21  N   UNL     1      50.778   9.310  13.203  0.00  0.00    +0.000 NA
ATOM     22  C   UNL     1      49.937   8.574  13.964  0.00  0.00    +0.000 A 
BRANCH  20  23
ATOM     23  C   UNL     1      51.808   9.812  11.036  0.00  0.00    +0.000 C 
BRANCH  23  24
ATOM     24  N   UNL     1      51.039  10.803  10.276  0.00  0.00    +0.000 NA
ATOM     25  H   UNL     1      51.338  10.746   9.302  0.00  0.00    +0.000 HD
ATOM     26  H   UNL     1      51.314  11.731  10.595  0.00  0.00    +0.000 HD
ENDBRANCH  23  24
ENDBRANCH  20  23
ENDBRANCH  16  17
ENDBRANCH   3  16
TORSDOF 6
ENDMDL
MODEL 7
REMARK VINA RESULT:    -5.305      3.505      6.224
REMARK INTER + INTRA:          -7.610
REMARK INTER:                  -6.982
REMARK INTRA:                  -0.629
REMARK UNBOUND:                -0.754
REMARK  Name = 
REMARK  8 active torsions:
REMARK  status: ('A' for Active; 'I' for Inactive)
REMARK    1  A    between atoms: C_1  and  C_2
REMARK    2  A    between atoms: C_2  and  C_3
REMARK    3  A    between atoms: C_2  and  O_4
REMARK    4  A    between atoms: C_2  and  C_5
REMARK    5  A    between atoms: N_7  and  C_8
REMARK    6  A    between atoms: C_8  and  C_9
REMARK    7  A    between atoms: C_12  and  C_13
REMARK    8  A    between atoms: C_13  and  N_14
REMARK                            x       y       z     vdW  Elec       q    Type
REMARK                         _______ _______ _______ _____ _____    ______ ____
ROOT
ATOM      1  C   UNL     1      45.341   8.442  11.728  0.00  0.00    +0.000 A 
ATOM      2  C   UNL     1      46.630   8.060  12.059  0.00  0.00    +0.000 A 
ATOM      3  N   UNL     1      46.676   6.699  12.195  0.00  0.00    +0.000 N 
ATOM      4  C   UNL     1      45.449   6.153  11.878  0.00  0.00    +0.000 A 
ATOM      5  C   UNL     1      45.014   4.815  11.837  0.00  0.00    +0.000 A 
ATOM      6  C   UNL     1      43.680   4.550  11.513  0.00  0.00    +0.000 A 
ATOM      7  C   UNL     1      42.803   5.588  11.232  0.00  0.00    +0.000 A 
ATOM      8  C   UNL     1      43.247   6.910  11.272  0.00  0.00    +0.000 A 
ATOM      9  F   UNL     1      42.360   7.878  11.001  0.00  0.00    +0.000 F 
ATOM     10  C   UNL     1      44.586   7.222  11.593  0.00  0.00    +0.000 A 
ENDROOT
BRANCH   1  12
ATOM     11  C   UNL     1      44.215  10.098  10.202  0.00  0.00    +0.000 C 
ATOM     12  C   UNL     1      44.859   9.874  11.576  0.00  0.00    +0.000 C 
ATOM     13  C   UNL     1      45.972  10.894  11.839  0.00  0.00    +0.000 C 
BRANCH  12  14
ATOM     14  O   UNL     1      43.833  10.146  12.554  0.00  0.00    +0.000 OA
ATOM     15  H   UNL     1      44.219   9.981  13.431  0.00  0.00    +0.000 HD
ENDBRANCH  12  14
ENDBRANCH   1  12
BRANCH   3  16
ATOM     16  C   UNL     1      47.858   5.965  12.640  0.00  0.00    +0.000 C 
BRANCH  16  17
ATOM     17  C   UNL     1      47.803   5.707  14.119  0.00  0.00    +0.000 A 
ATOM     18  C   UNL     1      47.102   4.620  14.647  0.00  0.00    +0.000 A 
ATOM     19  C   UNL     1      47.157   4.361  16.015  0.00  0.00    +0.000 A 
ATOM     20  C   UNL     1      47.911   5.200  16.833  0.00  0.00    +0.000 A 
ATOM     21  N   UNL     1      48.567   6.284  16.348  0.00  0.00    +0.000 NA
ATOM     22  C   UNL     1      48.505   6.504  15.015  0.00  0.00    +0.000 A 
BRANCH  20  23
ATOM     23  C   UNL     1      48.060   4.903  18.309  0.00  0.00    +0.000 C 
BRANCH  23  24
ATOM     24  N   UNL     1      46.832   5.147  19.071  0.00  0.00    +0.000 NA
ATOM     25  H   UNL     1      46.931   4.682  19.975  0.00  0.00    +0.000 HD
ATOM     26  H   UNL     1      46.064   4.671  18.599  0.00  0.00    +0.000 HD
ENDBRANCH  23  24
ENDBRANCH  20  23
ENDBRANCH  16  17
ENDBRANCH   3  16
TORSDOF 6
ENDMDL
MODEL 8
REMARK VINA RESULT:    -5.280      4.369      7.177
REMARK INTER + INTRA:          -7.577
REMARK INTER:                  -6.938
REMARK INTRA:                  -0.640
REMARK UNBOUND:                -0.754
REMARK  Name = 
REMARK  8 active torsions:
REMARK  status: ('A' for Active; 'I' for Inactive)
REMARK    1  A    between atoms: C_1  and  C_2
REMARK    2  A    between atoms: C_2  and  C_3
REMARK    3  A    between atoms: C_2  and  O_4
REMARK    4  A    between atoms: C_2  and  C_5
REMARK    5  A    between atoms: N_7  and  C_8
REMARK    6  A    between atoms: C_8  and  C_9
REMARK    7  A    between atoms: C_12  and  C_13
REMARK    8  A    between atoms: C_13  and  N_14
REMARK                            x       y       z     vdW  Elec       q    Type
REMARK                         _______ _______ _______ _____ _____    ______ ____
ROOT
ATOM      1  C   UNL     1      48.743   5.884  17.755  0.00  0.00    +0.000 A 
ATOM      2  C   UNL     1      48.954   5.657  16.406  0.00  0.00    +0.000 A 
ATOM      3  N   UNL     1      48.773   6.826  15.718  0.00  0.00    +0.000 N 
ATOM      4  C   UNL     1      48.523   7.857  16.600  0.00  0.00    +0.000 A 
ATOM      5  C   UNL     1      48.305   9.231  16.382  0.00  0.00    +0.000 A 
ATOM      6  C   UNL     1      48.033  10.052  17.480  0.00  0.00    +0.000 A 
ATOM      7  C   UNL     1      47.984   9.523  18.762  0.00  0.00    +0.000 A 
ATOM      8  C   UNL     1      48.206   8.161  18.967  0.00  0.00    +0.000 A 
ATOM      9  F   UNL     1      48.140   7.696  20.222  0.00  0.00    +0.000 F 
ATOM     10  C   UNL     1      48.485   7.296  17.886  0.00  0.00    +0.000 A 
ENDROOT
BRANCH   1  12
ATOM     11  C   UNL     1      49.914   5.059  19.826  0.00  0.00    +0.000 C 
ATOM     12  C   UNL     1      48.763   4.822  18.840  0.00  0.00    +0.000 C 
ATOM     13  C   UNL     1      48.810   3.402  18.264  0.00  0.00    +0.000 C 
BRANCH  12  14
ATOM     14  O   UNL     1      47.545   4.896  19.612  0.00  0.00    +0.000 OA
ATOM     15  H   UNL     1      46.925   5.459  19.120  0.00  0.00    +0.000 HD
ENDBRANCH  12  14
ENDBRANCH   1  12
BRANCH   3  16
ATOM     16  C   UNL     1      48.816   6.929  14.262  0.00  0.00    +0.000 C 
BRANCH  16  17
ATOM     17  C   UNL     1      47.489   6.562  13.659  0.00  0.00    +0.000 A 
ATOM     18  C   UNL     1      47.022   5.245  13.665  0.00  0.00    +0.000 A 
ATOM     19  C   UNL     1      45.746   4.962  13.183  0.00  0.00    +0.000 A 
ATOM     20  C   UNL     1      44.959   6.006  12.698  0.00  0.00    +0.000 A 
ATOM     21  N   UNL     1      45.407   7.285  12.646  0.00  0.00    +0.000 NA
ATOM     22  C   UNL     1      46.646   7.531  13.131  0.00  0.00    +0.000 A 
BRANCH  20  23
ATOM     23  C   UNL     1      43.540   5.750  12.242  0.00  0.00    +0.000 C 
BRANCH  23  24
ATOM     24  N   UNL     1      42.643   5.369  13.338  0.00  0.00    +0.000 NA
ATOM     25  H   UNL     1      43.099   4.624  13.866  0.00  0.00    +0.000 HD
ATOM     26  H   UNL     1      41.807   4.951  12.934  0.00  0.00    +0.000 HD
ENDBRANCH  23  24
ENDBRANCH  20  23
ENDBRANCH  16  17
ENDBRANCH   3  16
TORSDOF 6
ENDMDL
MODEL 9
REMARK VINA RESULT:    -5.237      4.182      7.329
REMARK INTER + INTRA:          -7.522
REMARK INTER:                  -7.161
REMARK INTRA:                  -0.361
REMARK UNBOUND:                -0.754
REMARK  Name = 
REMARK  8 active torsions:
REMARK  status: ('A' for Active; 'I' for Inactive)
REMARK    1  A    between atoms: C_1  and  C_2
REMARK    2  A    between atoms: C_2  and  C_3
REMARK    3  A    between atoms: C_2  and  O_4
REMARK    4  A    between atoms: C_2  and  C_5
REMARK    5  A    between atoms: N_7  and  C_8
REMARK    6  A    between atoms: C_8  and  C_9
REMARK    7  A    between atoms: C_12  and  C_13
REMARK    8  A    between atoms: C_13  and  N_14
REMARK                            x       y       z     vdW  Elec       q    Type
REMARK                         _______ _______ _______ _____ _____    ______ ____
ROOT
ATOM      1  C   UNL     1      47.173   6.601  13.659  0.00  0.00    +0.000 A 
ATOM      2  C   UNL     1      47.714   5.822  14.669  0.00  0.00    +0.000 A 
ATOM      3  N   UNL     1      47.238   4.544  14.557  0.00  0.00    +0.000 N 
ATOM      4  C   UNL     1      46.445   4.434  13.433  0.00  0.00    +0.000 A 
ATOM      5  C   UNL     1      45.766   3.330  12.884  0.00  0.00    +0.000 A 
ATOM      6  C   UNL     1      44.991   3.519  11.736  0.00  0.00    +0.000 A 
ATOM      7  C   UNL     1      44.899   4.772  11.146  0.00  0.00    +0.000 A 
ATOM      8  C   UNL     1      45.579   5.858  11.697  0.00  0.00    +0.000 A 
ATOM      9  F   UNL     1      45.451   7.050  11.097  0.00  0.00    +0.000 F 
ATOM     10  C   UNL     1      46.374   5.711  12.855  0.00  0.00    +0.000 A 
ENDROOT
BRANCH   1  12
ATOM     11  C   UNL     1      47.977   8.417  12.113  0.00  0.00    +0.000 C 
ATOM     12  C   UNL     1      47.384   8.095  13.491  0.00  0.00    +0.000 C 
ATOM     13  C   UNL     1      48.236   8.693  14.615  0.00  0.00    +0.000 C 
BRANCH  12  14
ATOM     14  O   UNL     1      46.112   8.774  13.554  0.00  0.00    +0.000 OA
ATOM     15  H   UNL     1      45.739   8.607  14.435  0.00  0.00    +0.000 HD
ENDBRANCH  12  14
ENDBRANCH   1  12
BRANCH   3  16
ATOM     16  C   UNL     1      47.523   3.483  15.519  0.00  0.00    +0.000 C 
BRANCH  16  17
ATOM     17  C   UNL     1      48.008   4.055  16.820  0.00  0.00    +0.000 A 
ATOM     18  C   UNL     1      47.149   4.736  17.686  0.00  0.00    +0.000 A 
ATOM     19  C   UNL     1      47.616   5.166  18.926  0.00  0.00    +0.000 A 
ATOM     20  C   UNL     1      48.941   4.910  19.277  0.00  0.00    +0.000 A 
ATOM     21  N   UNL     1      49.803   4.285  18.436  0.00  0.00    +0.000 NA
ATOM     22  C   UNL     1      49.319   3.869  17.244  0.00  0.00    +0.000 A 
BRANCH  20  23
ATOM     23  C   UNL     1      49.460   5.289  20.646  0.00  0.00    +0.000 C 
BRANCH  23  24
ATOM     24  N   UNL     1      50.671   4.554  21.026  0.00  0.00    +0.000 NA
ATOM     25  H   UNL     1      51.450   5.213  21.008  0.00  0.00    +0.000 HD
ATOM     26  H   UNL     1      50.870   3.871  20.297  0.00  0.00    +0.000 HD
ENDBRANCH  23  24
ENDBRANCH  20  23
ENDBRANCH  16  17
ENDBRANCH   3  16
TORSDOF 6
ENDMDL
