MODEL 1
REMARK VINA RESULT:    -8.199      0.000      0.000
REMARK INTER + INTRA:         -13.380
REMARK INTER:                 -12.033
REMARK INTRA:                  -1.347
REMARK UNBOUND:                -1.347
REMARK  Name = 
REMARK  10 active torsions:
REMARK  status: ('A' for Active; 'I' for Inactive)
REMARK    1  A    between atoms: C_1  and  O_2
REMARK    2  A    between atoms: O_2  and  C_3
REMARK    3  A    between atoms: C_10  and  C_11
REMARK    4  A    between atoms: N_13  and  C_14
REMARK    5  A    between atoms: C_14  and  C_15
REMARK    6  A    between atoms: C_18  and  C_19
REMARK    7  A    between atoms: C_19  and  N_20
REMARK    8  A    between atoms: N_20  and  C_21
REMARK    9  A    between atoms: C_21  and  C_22
REMARK   10  A    between atoms: C_25  and  C_26
REMARK                            x       y       z     vdW  Elec       q    Type
REMARK                         _______ _______ _______ _____ _____    ______ ____
ROOT
ATOM      1  C   UNL     1      47.028   6.139  12.830  0.00  0.00    +0.000 A 
ATOM      2  C   UNL     1      46.562   6.572  11.581  0.00  0.00    +0.000 A 
ATOM      3  C   UNL     1      45.329   6.130  11.087  0.00  0.00    +0.000 A 
ATOM      4  C   UNL     1      44.529   5.250  11.831  0.00  0.00    +0.000 A 
ATOM      5  C   UNL     1      44.982   4.844  13.093  0.00  0.00    +0.000 A 
ATOM      6  C   UNL     1      46.213   5.288  13.589  0.00  0.00    +0.000 A 
ENDROOT
BRANCH   1   7
ATOM      7  C   UNL     1      48.353   6.616  13.368  0.00  0.00    +0.000 C 
BRANCH   7  10
ATOM      8  C   UNL     1      49.393   7.110  15.550  0.00  0.00    +0.000 C 
ATOM      9  O   UNL     1      50.434   7.486  15.020  0.00  0.00    +0.000 OA
ATOM     10  N   UNL     1      48.334   6.663  14.808  0.00  0.00    +0.000 N 
ATOM     11  H   UNL     1      47.515   6.293  15.268  0.00  0.00    +0.000 HD
BRANCH   8  19
ATOM     12  C   UNL     1      48.874   4.641  17.897  0.00  0.00    +0.000 A 
ATOM     13  N   UNL     1      48.655   3.895  18.998  0.00  0.00    +0.000 NA
ATOM     14  C   UNL     1      48.548   4.525  20.170  0.00  0.00    +0.000 A 
ATOM     15  N   UNL     1      48.638   5.836  20.387  0.00  0.00    +0.000 NA
ATOM     16  C   UNL     1      48.863   6.541  19.266  0.00  0.00    +0.000 A 
ATOM     17  S   UNL     1      49.009   8.229  19.353  0.00  0.00    +0.000 S 
ATOM     18  C   UNL     1      49.249   8.346  17.676  0.00  0.00    +0.000 A 
ATOM     19  C   UNL     1      49.224   7.122  17.015  0.00  0.00    +0.000 A 
ATOM     20  C   UNL     1      48.998   6.040  17.974  0.00  0.00    +0.000 A 
BRANCH  12  22
ATOM     21  C   UNL     1      47.834   3.336  16.258  0.00  0.00    +0.000 C 
ATOM     22  O   UNL     1      49.026   3.985  16.695  0.00  0.00    +0.000 OA
ENDBRANCH  12  22
ENDBRANCH   8  19
ENDBRANCH   7  10
ENDBRANCH   1   7
BRANCH   4  23
ATOM     23  C   UNL     1      43.203   4.760  11.289  0.00  0.00    +0.000 C 
BRANCH  23  24
ATOM     24  N   UNL     1      43.374   4.109   9.992  0.00  0.00    +0.000 NA
ATOM     25  H   UNL     1      43.882   4.741   9.372  0.00  0.00    +0.000 HD
BRANCH  24  26
ATOM     26  C   UNL     1      44.153   2.867  10.106  0.00  0.00    +0.000 C 
BRANCH  26  27
ATOM     27  C   UNL     1      45.143   2.715   8.964  0.00  0.00    +0.000 A 
ATOM     28  C   UNL     1      45.472   3.817   8.176  0.00  0.00    +0.000 A 
ATOM     29  C   UNL     1      46.407   3.667   7.154  0.00  0.00    +0.000 A 
ATOM     30  C   UNL     1      46.988   2.422   6.930  0.00  0.00    +0.000 A 
ATOM     31  C   UNL     1      48.002   2.209   5.851  0.00  0.00    +0.000 C 
ATOM     32  C   UNL     1      46.593   1.374   7.756  0.00  0.00    +0.000 A 
ATOM     33  N   UNL     1      45.693   1.492   8.761  0.00  0.00    +0.000 NA
ENDBRANCH  26  27
ENDBRANCH  24  26
ENDBRANCH  23  24
ENDBRANCH   4  23
TORSDOF 8
ENDMDL
MODEL 2
REMARK VINA RESULT:    -7.858      1.543      2.533
REMARK INTER + INTRA:         -12.879
REMARK INTER:                 -11.893
REMARK INTRA:                  -0.986
REMARK UNBOUND:                -1.347
REMARK  Name = 
REMARK  10 active torsions:
REMARK  status: ('A' for Active; 'I' for Inactive)
REMARK    1  A    between atoms: C_1  and  O_2
REMARK    2  A    between atoms: O_2  and  C_3
REMARK    3  A    between atoms: C_10  and  C_11
REMARK    4  A    between atoms: N_13  and  C_14
REMARK    5  A    between atoms: C_14  and  C_15
REMARK    6  A    between atoms: C_18  and  C_19
REMARK    7  A    between atoms: C_19  and  N_20
REMARK    8  A    between atoms: N_20  and  C_21
REMARK    9  A    between atoms: C_21  and  C_22
REMARK   10  A    between atoms: C_25  and  C_26
REMARK                            x       y       z     vdW  Elec       q    Type
REMARK                         _______ _______ _______ _____ _____    ______ ____
ROOT
ATOM      1  C   UNL     1      47.027   6.174  13.191  0.00  0.00    +0.000 A 
ATOM      2  C   UNL     1      46.690   6.923  12.055  0.00  0.00    +0.000 A 
ATOM      3  C   UNL     1      45.490   6.683  11.372  0.00  0.00    +0.000 A 
ATOM      4  C   UNL     1      44.597   5.695  11.813  0.00  0.00    +0.000 A 
ATOM      5  C   UNL     1      44.921   4.970  12.967  0.00  0.00    +0.000 A 
ATOM      6  C   UNL     1      46.119   5.211  13.652  0.00  0.00    +0.000 A 
ENDROOT
BRANCH   1   7
ATOM      7  C   UNL     1      48.315   6.433  13.932  0.00  0.00    +0.000 C 
BRANCH   7  10
ATOM      8  C   UNL     1      49.165   6.299  16.243  0.00  0.00    +0.000 C 
ATOM      9  O   UNL     1      50.327   6.437  15.872  0.00  0.00    +0.000 OA
ATOM     10  N   UNL     1      48.128   6.279  15.352  0.00  0.00    +0.000 N 
ATOM     11  H   UNL     1      47.189   6.094  15.673  0.00  0.00    +0.000 HD
BRANCH   8  19
ATOM     12  C   UNL     1      47.857   8.446  18.599  0.00  0.00    +0.000 A 
ATOM     13  N   UNL     1      47.383   9.065  19.698  0.00  0.00    +0.000 NA
ATOM     14  C   UNL     1      47.328   8.367  20.835  0.00  0.00    +0.000 A 
ATOM     15  N   UNL     1      47.690   7.098  21.015  0.00  0.00    +0.000 NA
ATOM     16  C   UNL     1      48.149   6.517  19.895  0.00  0.00    +0.000 A 
ATOM     17  S   UNL     1      48.655   4.898  19.937  0.00  0.00    +0.000 S 
ATOM     18  C   UNL     1      49.058   4.927  18.287  0.00  0.00    +0.000 A 
ATOM     19  C   UNL     1      48.823   6.152  17.670  0.00  0.00    +0.000 A 
ATOM     20  C   UNL     1      48.272   7.102  18.637  0.00  0.00    +0.000 A 
BRANCH  12  22
ATOM     21  C   UNL     1      48.959  10.079  17.336  0.00  0.00    +0.000 C 
ATOM     22  O   UNL     1      47.874   9.156  17.418  0.00  0.00    +0.000 OA
ENDBRANCH  12  22
ENDBRANCH   8  19
ENDBRANCH   7  10
ENDBRANCH   1   7
BRANCH   4  23
ATOM     23  C   UNL     1      43.308   5.426  11.065  0.00  0.00    +0.000 C 
BRANCH  23  24
ATOM     24  N   UNL     1      43.574   4.816   9.763  0.00  0.00    +0.000 NA
ATOM     25  H   UNL     1      44.292   5.362   9.286  0.00  0.00    +0.000 HD
BRANCH  24  26
ATOM     26  C   UNL     1      44.070   3.439   9.899  0.00  0.00    +0.000 C 
BRANCH  26  27
ATOM     27  C   UNL     1      45.118   3.111   8.849  0.00  0.00    +0.000 A 
ATOM     28  C   UNL     1      45.614   1.813   8.741  0.00  0.00    +0.000 A 
ATOM     29  C   UNL     1      46.549   1.523   7.750  0.00  0.00    +0.000 A 
ATOM     30  C   UNL     1      46.979   2.531   6.893  0.00  0.00    +0.000 A 
ATOM     31  C   UNL     1      47.977   2.272   5.808  0.00  0.00    +0.000 C 
ATOM     32  C   UNL     1      46.441   3.801   7.078  0.00  0.00    +0.000 A 
ATOM     33  N   UNL     1      45.525   4.111   8.027  0.00  0.00    +0.000 NA
ENDBRANCH  26  27
ENDBRANCH  24  26
ENDBRANCH  23  24
ENDBRANCH   4  23
TORSDOF 8
ENDMDL
MODEL 3
REMARK VINA RESULT:    -7.539      1.344      1.660
REMARK INTER + INTRA:         -12.412
REMARK INTER:                 -11.267
REMARK INTRA:                  -1.145
REMARK UNBOUND:                -1.347
REMARK  Name = 
REMARK  10 active torsions:
REMARK  status: ('A' for Active; 'I' for Inactive)
REMARK    1  A    between atoms: C_1  and  O_2
REMARK    2  A    between atoms: O_2  and  C_3
REMARK    3  A    between atoms: C_10  and  C_11
REMARK    4  A    between atoms: N_13  and  C_14
REMARK    5  A    between atoms: C_14  and  C_15
REMARK    6  A    between atoms: C_18  and  C_19
REMARK    7  A    between atoms: C_19  and  N_20
REMARK    8  A    between atoms: N_20  and  C_21
REMARK    9  A    between atoms: C_21  and  C_22
REMARK   10  A    between atoms: C_25  and  C_26
REMARK                            x       y       z     vdW  Elec       q    Type
REMARK                         _______ _______ _______ _____ _____    ______ ____
ROOT
ATOM      1  C   UNL     1      46.955   5.500  13.510  0.00  0.00    +0.000 A 
ATOM      2  C   UNL     1      47.078   4.119  13.309  0.00  0.00    +0.000 A 
ATOM      3  C   UNL     1      45.972   3.354  12.916  0.00  0.00    +0.000 A 
ATOM      4  C   UNL     1      44.721   3.953  12.706  0.00  0.00    +0.000 A 
ATOM      5  C   UNL     1      44.609   5.340  12.875  0.00  0.00    +0.000 A 
ATOM      6  C   UNL     1      45.714   6.105  13.266  0.00  0.00    +0.000 A 
ENDROOT
BRANCH   1   7
ATOM      7  C   UNL     1      48.144   6.328  13.929  0.00  0.00    +0.000 C 
BRANCH   7  10
ATOM      8  C   UNL     1      48.735   7.861  15.769  0.00  0.00    +0.000 C 
ATOM      9  O   UNL     1      49.661   8.348  15.126  0.00  0.00    +0.000 OA
ATOM     10  N   UNL     1      47.954   6.864  15.252  0.00  0.00    +0.000 N 
ATOM     11  H   UNL     1      47.245   6.430  15.825  0.00  0.00    +0.000 HD
BRANCH   8  19
ATOM     12  C   UNL     1      48.031   6.236  18.724  0.00  0.00    +0.000 A 
ATOM     13  N   UNL     1      47.715   5.865  19.981  0.00  0.00    +0.000 NA
ATOM     14  C   UNL     1      47.468   6.826  20.874  0.00  0.00    +0.000 A 
ATOM     15  N   UNL     1      47.502   8.141  20.667  0.00  0.00    +0.000 NA
ATOM     16  C   UNL     1      47.828   8.468  19.405  0.00  0.00    +0.000 A 
ATOM     17  S   UNL     1      47.922  10.102  18.960  0.00  0.00    +0.000 S 
ATOM     18  C   UNL     1      48.336   9.696  17.363  0.00  0.00    +0.000 A 
ATOM     19  C   UNL     1      48.412   8.327  17.130  0.00  0.00    +0.000 A 
ATOM     20  C   UNL     1      48.112   7.592  18.360  0.00  0.00    +0.000 A 
BRANCH  12  22
ATOM     21  C   UNL     1      47.240   4.345  17.596  0.00  0.00    +0.000 C 
ATOM     22  O   UNL     1      48.326   5.243  17.815  0.00  0.00    +0.000 OA
ENDBRANCH  12  22
ENDBRANCH   8  19
ENDBRANCH   7  10
ENDBRANCH   1   7
BRANCH   4  23
ATOM     23  C   UNL     1      43.523   3.123  12.295  0.00  0.00    +0.000 C 
BRANCH  23  24
ATOM     24  N   UNL     1      43.724   2.527  10.977  0.00  0.00    +0.000 NA
ATOM     25  H   UNL     1      42.893   1.988  10.730  0.00  0.00    +0.000 HD
BRANCH  24  26
ATOM     26  C   UNL     1      43.921   3.551   9.941  0.00  0.00    +0.000 C 
BRANCH  26  27
ATOM     27  C   UNL     1      44.994   3.146   8.944  0.00  0.00    +0.000 A 
ATOM     28  C   UNL     1      45.587   4.108   8.130  0.00  0.00    +0.000 A 
ATOM     29  C   UNL     1      46.592   3.725   7.245  0.00  0.00    +0.000 A 
ATOM     30  C   UNL     1      46.981   2.390   7.182  0.00  0.00    +0.000 A 
ATOM     31  C   UNL     1      48.059   1.926   6.254  0.00  0.00    +0.000 C 
ATOM     32  C   UNL     1      46.328   1.493   8.022  0.00  0.00    +0.000 A 
ATOM     33  N   UNL     1      45.353   1.839   8.897  0.00  0.00    +0.000 NA
ENDBRANCH  26  27
ENDBRANCH  24  26
ENDBRANCH  23  24
ENDBRANCH   4  23
TORSDOF 8
ENDMDL
MODEL 4
REMARK VINA RESULT:    -7.375      1.826      2.084
REMARK INTER + INTRA:         -12.171
REMARK INTER:                 -10.989
REMARK INTRA:                  -1.181
REMARK UNBOUND:                -1.347
REMARK  Name = 
REMARK  10 active torsions:
REMARK  status: ('A' for Active; 'I' for Inactive)
REMARK    1  A    between atoms: C_1  and  O_2
REMARK    2  A    between atoms: O_2  and  C_3
REMARK    3  A    between atoms: C_10  and  C_11
REMARK    4  A    between atoms: N_13  and  C_14
REMARK    5  A    between atoms: C_14  and  C_15
REMARK    6  A    between atoms: C_18  and  C_19
REMARK    7  A    between atoms: C_19  and  N_20
REMARK    8  A    between atoms: N_20  and  C_21
REMARK    9  A    between atoms: C_21  and  C_22
REMARK   10  A    between atoms: C_25  and  C_26
REMARK                            x       y       z     vdW  Elec       q    Type
REMARK                         _______ _______ _______ _____ _____    ______ ____
ROOT
ATOM      1  C   UNL     1      46.987   7.054  13.341  0.00  0.00    +0.000 A 
ATOM      2  C   UNL     1      47.253   5.684  13.463  0.00  0.00    +0.000 A 
ATOM      3  C   UNL     1      46.325   4.734  13.018  0.00  0.00    +0.000 A 
ATOM      4  C   UNL     1      45.114   5.131  12.433  0.00  0.00    +0.000 A 
ATOM      5  C   UNL     1      44.864   6.502  12.282  0.00  0.00    +0.000 A 
ATOM      6  C   UNL     1      45.792   7.452  12.725  0.00  0.00    +0.000 A 
ENDROOT
BRANCH   1   7
ATOM      7  C   UNL     1      47.985   8.080  13.815  0.00  0.00    +0.000 C 
BRANCH   7  10
ATOM      8  C   UNL     1      49.511   7.904  15.746  0.00  0.00    +0.000 C 
ATOM      9  O   UNL     1      49.017   8.891  16.283  0.00  0.00    +0.000 OA
ATOM     10  N   UNL     1      49.063   7.451  14.534  0.00  0.00    +0.000 N 
ATOM     11  H   UNL     1      49.530   6.681  14.079  0.00  0.00    +0.000 HD
BRANCH   8  19
ATOM     12  C   UNL     1      49.816   4.658  16.861  0.00  0.00    +0.000 A 
ATOM     13  N   UNL     1      50.194   3.475  17.383  0.00  0.00    +0.000 NA
ATOM     14  C   UNL     1      51.423   3.381  17.895  0.00  0.00    +0.000 A 
ATOM     15  N   UNL     1      52.345   4.341  17.949  0.00  0.00    +0.000 NA
ATOM     16  C   UNL     1      51.930   5.500  17.413  0.00  0.00    +0.000 A 
ATOM     17  S   UNL     1      52.977   6.836  17.392  0.00  0.00    +0.000 S 
ATOM     18  C   UNL     1      51.807   7.805  16.631  0.00  0.00    +0.000 A 
ATOM     19  C   UNL     1      50.608   7.147  16.378  0.00  0.00    +0.000 A 
ATOM     20  C   UNL     1      50.687   5.762  16.842  0.00  0.00    +0.000 A 
BRANCH  12  22
ATOM     21  C   UNL     1      47.682   3.708  16.736  0.00  0.00    +0.000 C 
ATOM     22  O   UNL     1      48.561   4.741  16.295  0.00  0.00    +0.000 OA
ENDBRANCH  12  22
ENDBRANCH   8  19
ENDBRANCH   7  10
ENDBRANCH   1   7
BRANCH   4  23
ATOM     23  C   UNL     1      44.104   4.104  11.966  0.00  0.00    +0.000 C 
BRANCH  23  24
ATOM     24  N   UNL     1      44.771   2.935  11.395  0.00  0.00    +0.000 NA
ATOM     25  H   UNL     1      44.705   2.163  12.060  0.00  0.00    +0.000 HD
BRANCH  24  26
ATOM     26  C   UNL     1      44.135   2.505  10.142  0.00  0.00    +0.000 C 
BRANCH  26  27
ATOM     27  C   UNL     1      45.125   2.475   8.989  0.00  0.00    +0.000 A 
ATOM     28  C   UNL     1      45.389   3.638   8.268  0.00  0.00    +0.000 A 
ATOM     29  C   UNL     1      46.324   3.601   7.236  0.00  0.00    +0.000 A 
ATOM     30  C   UNL     1      46.971   2.405   6.936  0.00  0.00    +0.000 A 
ATOM     31  C   UNL     1      47.987   2.312   5.842  0.00  0.00    +0.000 C 
ATOM     32  C   UNL     1      46.638   1.290   7.698  0.00  0.00    +0.000 A 
ATOM     33  N   UNL     1      45.739   1.298   8.712  0.00  0.00    +0.000 NA
ENDBRANCH  26  27
ENDBRANCH  24  26
ENDBRANCH  23  24
ENDBRANCH   4  23
TORSDOF 8
ENDMDL
MODEL 5
REMARK VINA RESULT:    -7.011      2.369      3.299
REMARK INTER + INTRA:         -11.636
REMARK INTER:                 -10.398
REMARK INTRA:                  -1.239
REMARK UNBOUND:                -1.347
REMARK  Name = 
REMARK  10 active torsions:
REMARK  status: ('A' for Active; 'I' for Inactive)
REMARK    1  A    between atoms: C_1  and  O_2
REMARK    2  A    between atoms: O_2  and  C_3
REMARK    3  A    between atoms: C_10  and  C_11
REMARK    4  A    between atoms: N_13  and  C_14
REMARK    5  A    between atoms: C_14  and  C_15
REMARK    6  A    between atoms: C_18  and  C_19
REMARK    7  A    between atoms: C_19  and  N_20
REMARK    8  A    between atoms: N_20  and  C_21
REMARK    9  A    between atoms: C_21  and  C_22
REMARK   10  A    between atoms: C_25  and  C_26
REMARK                            x       y       z     vdW  Elec       q    Type
REMARK                         _______ _______ _______ _____ _____    ______ ____
ROOT
ATOM      1  C   UNL     1      47.294   7.863  12.334  0.00  0.00    +0.000 A 
ATOM      2  C   UNL     1      46.105   8.605  12.340  0.00  0.00    +0.000 A 
ATOM      3  C   UNL     1      44.881   7.995  12.037  0.00  0.00    +0.000 A 
ATOM      4  C   UNL     1      44.816   6.627  11.730  0.00  0.00    +0.000 A 
ATOM      5  C   UNL     1      46.002   5.881  11.757  0.00  0.00    +0.000 A 
ATOM      6  C   UNL     1      47.225   6.490  12.062  0.00  0.00    +0.000 A 
ENDROOT
BRANCH   1   7
ATOM      7  C   UNL     1      48.613   8.515  12.664  0.00  0.00    +0.000 C 
BRANCH   7  10
ATOM      8  C   UNL     1      49.195   7.926  14.988  0.00  0.00    +0.000 C 
ATOM      9  O   UNL     1      48.442   8.784  15.441  0.00  0.00    +0.000 OA
ATOM     10  N   UNL     1      49.337   7.741  13.639  0.00  0.00    +0.000 N 
ATOM     11  H   UNL     1      50.013   7.079  13.289  0.00  0.00    +0.000 HD
BRANCH   8  19
ATOM     12  C   UNL     1      52.571   7.334  15.341  0.00  0.00    +0.000 A 
ATOM     13  N   UNL     1      53.806   6.908  15.671  0.00  0.00    +0.000 NA
ATOM     14  C   UNL     1      53.913   5.974  16.619  0.00  0.00    +0.000 A 
ATOM     15  N   UNL     1      52.921   5.402  17.297  0.00  0.00    +0.000 NA
ATOM     16  C   UNL     1      51.709   5.859  16.942  0.00  0.00    +0.000 A 
ATOM     17  S   UNL     1      50.324   5.242  17.705  0.00  0.00    +0.000 S 
ATOM     18  C   UNL     1      49.307   6.233  16.773  0.00  0.00    +0.000 A 
ATOM     19  C   UNL     1      49.984   7.046  15.870  0.00  0.00    +0.000 A 
ATOM     20  C   UNL     1      51.425   6.823  15.978  0.00  0.00    +0.000 A 
BRANCH  12  22
ATOM     21  C   UNL     1      52.669   9.634  14.928  0.00  0.00    +0.000 C 
ATOM     22  O   UNL     1      52.465   8.328  14.392  0.00  0.00    +0.000 OA
ENDBRANCH  12  22
ENDBRANCH   8  19
ENDBRANCH   7  10
ENDBRANCH   1   7
BRANCH   4  23
ATOM     23  C   UNL     1      43.495   5.972  11.388  0.00  0.00    +0.000 C 
BRANCH  23  24
ATOM     24  N   UNL     1      43.553   5.325  10.078  0.00  0.00    +0.000 NA
ATOM     25  H   UNL     1      44.348   5.702   9.561  0.00  0.00    +0.000 HD
BRANCH  24  26
ATOM     26  C   UNL     1      43.742   3.872  10.198  0.00  0.00    +0.000 C 
BRANCH  26  27
ATOM     27  C   UNL     1      44.772   3.354   9.208  0.00  0.00    +0.000 A 
ATOM     28  C   UNL     1      45.398   4.236   8.329  0.00  0.00    +0.000 A 
ATOM     29  C   UNL     1      46.365   3.750   7.452  0.00  0.00    +0.000 A 
ATOM     30  C   UNL     1      46.683   2.395   7.460  0.00  0.00    +0.000 A 
ATOM     31  C   UNL     1      47.717   1.822   6.543  0.00  0.00    +0.000 C 
ATOM     32  C   UNL     1      46.001   1.584   8.362  0.00  0.00    +0.000 A 
ATOM     33  N   UNL     1      45.063   2.030   9.232  0.00  0.00    +0.000 NA
ENDBRANCH  26  27
ENDBRANCH  24  26
ENDBRANCH  23  24
ENDBRANCH   4  23
TORSDOF 8
ENDMDL
MODEL 6
REMARK VINA RESULT:    -6.969      4.840      9.573
REMARK INTER + INTRA:         -11.575
REMARK INTER:                 -10.583
REMARK INTRA:                  -0.992
REMARK UNBOUND:                -1.347
REMARK  Name = 
REMARK  10 active torsions:
REMARK  status: ('A' for Active; 'I' for Inactive)
REMARK    1  A    between atoms: C_1  and  O_2
REMARK    2  A    between atoms: O_2  and  C_3
REMARK    3  A    between atoms: C_10  and  C_11
REMARK    4  A    between atoms: N_13  and  C_14
REMARK    5  A    between atoms: C_14  and  C_15
REMARK    6  A    between atoms: C_18  and  C_19
REMARK    7  A    between atoms: C_19  and  N_20
REMARK    8  A    between atoms: N_20  and  C_21
REMARK    9  A    between atoms: C_21  and  C_22
REMARK   10  A    between atoms: C_25  and  C_26
REMARK                            x       y       z     vdW  Elec       q    Type
REMARK                         _______ _______ _______ _____ _____    ______ ____
ROOT
ATOM      1  C   UNL     1      48.651   3.386  17.124  0.00  0.00    +0.000 A 
ATOM      2  C   UNL     1      49.276   4.588  17.480  0.00  0.00    +0.000 A 
ATOM      3  C   UNL     1      50.643   4.618  17.787  0.00  0.00    +0.000 A 
ATOM      4  C   UNL     1      51.417   3.449  17.738  0.00  0.00    +0.000 A 
ATOM      5  C   UNL     1      50.796   2.254  17.349  0.00  0.00    +0.000 A 
ATOM      6  C   UNL     1      49.431   2.225  17.040  0.00  0.00    +0.000 A 
ENDROOT
BRANCH   1   7
ATOM      7  C   UNL     1      47.181   3.350  16.788  0.00  0.00    +0.000 C 
BRANCH   7  10
ATOM      8  C   UNL     1      46.886   4.228  14.501  0.00  0.00    +0.000 C 
ATOM      9  O   UNL     1      47.234   3.163  13.999  0.00  0.00    +0.000 OA
ATOM     10  N   UNL     1      46.843   4.397  15.859  0.00  0.00    +0.000 N 
ATOM     11  H   UNL     1      46.623   5.302  16.248  0.00  0.00    +0.000 HD
BRANCH   8  19
ATOM     12  C   UNL     1      44.070   4.969  12.660  0.00  0.00    +0.000 A 
ATOM     13  N   UNL     1      43.115   5.493  11.868  0.00  0.00    +0.000 NA
ATOM     14  C   UNL     1      43.353   6.678  11.300  0.00  0.00    +0.000 A 
ATOM     15  N   UNL     1      44.448   7.425  11.432  0.00  0.00    +0.000 NA
ATOM     16  C   UNL     1      45.370   6.870  12.236  0.00  0.00    +0.000 A 
ATOM     17  S   UNL     1      46.831   7.684  12.521  0.00  0.00    +0.000 S 
ATOM     18  C   UNL     1      47.389   6.435  13.529  0.00  0.00    +0.000 A 
ATOM     19  C   UNL     1      46.492   5.381  13.671  0.00  0.00    +0.000 A 
ATOM     20  C   UNL     1      45.279   5.648  12.899  0.00  0.00    +0.000 A 
BRANCH  12  22
ATOM     21  C   UNL     1      43.576   2.703  12.355  0.00  0.00    +0.000 C 
ATOM     22  O   UNL     1      43.805   3.766  13.278  0.00  0.00    +0.000 OA
ENDBRANCH  12  22
ENDBRANCH   8  19
ENDBRANCH   7  10
ENDBRANCH   1   7
BRANCH   4  23
ATOM     23  C   UNL     1      52.890   3.480  18.085  0.00  0.00    +0.000 C 
BRANCH  23  24
ATOM     24  N   UNL     1      53.211   2.482  19.104  0.00  0.00    +0.000 NA
ATOM     25  H   UNL     1      52.591   1.679  18.983  0.00  0.00    +0.000 HD
BRANCH  24  26
ATOM     26  C   UNL     1      54.595   2.005  18.982  0.00  0.00    +0.000 C 
BRANCH  26  27
ATOM     27  C   UNL     1      54.662   0.619  18.363  0.00  0.00    +0.000 A 
ATOM     28  C   UNL     1      54.901   0.476  16.998  0.00  0.00    +0.000 A 
ATOM     29  C   UNL     1      54.992  -0.803  16.453  0.00  0.00    +0.000 A 
ATOM     30  C   UNL     1      54.836  -1.914  17.277  0.00  0.00    +0.000 A 
ATOM     31  C   UNL     1      54.931  -3.309  16.745  0.00  0.00    +0.000 C 
ATOM     32  C   UNL     1      54.588  -1.680  18.626  0.00  0.00    +0.000 A 
ATOM     33  N   UNL     1      54.502  -0.448  19.184  0.00  0.00    +0.000 NA
ENDBRANCH  26  27
ENDBRANCH  24  26
ENDBRANCH  23  24
ENDBRANCH   4  23
TORSDOF 8
ENDMDL
MODEL 7
REMARK VINA RESULT:    -6.633      2.227      2.756
REMARK INTER + INTRA:         -11.081
REMARK INTER:                  -9.593
REMARK INTRA:                  -1.489
REMARK UNBOUND:                -1.347
REMARK  Name = 
REMARK  10 active torsions:
REMARK  status: ('A' for Active; 'I' for Inactive)
REMARK    1  A    between atoms: C_1  and  O_2
REMARK    2  A    between atoms: O_2  and  C_3
REMARK    3  A    between atoms: C_10  and  C_11
REMARK    4  A    between atoms: N_13  and  C_14
REMARK    5  A    between atoms: C_14  and  C_15
REMARK    6  A    between atoms: C_18  and  C_19
REMARK    7  A    between atoms: C_19  and  N_20
REMARK    8  A    between atoms: N_20  and  C_21
REMARK    9  A    between atoms: C_21  and  C_22
REMARK   10  A    between atoms: C_25  and  C_26
REMARK                            x       y       z     vdW  Elec       q    Type
REMARK                         _______ _______ _______ _____ _____    ______ ____
ROOT
ATOM      1  C   UNL     1      47.601   8.557  12.522  0.00  0.00    +0.000 A 
ATOM      2  C   UNL     1      46.365   8.753  13.153  0.00  0.00    +0.000 A 
ATOM      3  C   UNL     1      45.273   7.929  12.855  0.00  0.00    +0.000 A 
ATOM      4  C   UNL     1      45.392   6.885  11.926  0.00  0.00    +0.000 A 
ATOM      5  C   UNL     1      46.637   6.670  11.320  0.00  0.00    +0.000 A 
ATOM      6  C   UNL     1      47.730   7.492  11.620  0.00  0.00    +0.000 A 
ENDROOT
BRANCH   1   7
ATOM      7  C   UNL     1      48.781   9.439  12.844  0.00  0.00    +0.000 C 
BRANCH   7  10
ATOM      8  C   UNL     1      50.698   8.179  13.750  0.00  0.00    +0.000 C 
ATOM      9  O   UNL     1      51.139   7.954  12.626  0.00  0.00    +0.000 OA
ATOM     10  N   UNL     1      49.546   8.893  13.935  0.00  0.00    +0.000 N 
ATOM     11  H   UNL     1      49.165   9.006  14.863  0.00  0.00    +0.000 HD
BRANCH   8  19
ATOM     12  C   UNL     1      49.612   6.715  16.673  0.00  0.00    +0.000 A 
ATOM     13  N   UNL     1      49.463   6.156  17.890  0.00  0.00    +0.000 NA
ATOM     14  C   UNL     1      50.557   5.973  18.633  0.00  0.00    +0.000 A 
ATOM     15  N   UNL     1      51.811   6.281  18.305  0.00  0.00    +0.000 NA
ATOM     16  C   UNL     1      51.915   6.827  17.082  0.00  0.00    +0.000 A 
ATOM     17  S   UNL     1      53.441   7.281  16.495  0.00  0.00    +0.000 S 
ATOM     18  C   UNL     1      52.771   7.839  15.037  0.00  0.00    +0.000 A 
ATOM     19  C   UNL     1      51.389   7.699  14.961  0.00  0.00    +0.000 A 
ATOM     20  C   UNL     1      50.879   7.086  16.188  0.00  0.00    +0.000 A 
BRANCH  12  22
ATOM     21  C   UNL     1      48.189   5.705  15.116  0.00  0.00    +0.000 C 
ATOM     22  O   UNL     1      48.487   6.864  15.891  0.00  0.00    +0.000 OA
ENDBRANCH  12  22
ENDBRANCH   8  19
ENDBRANCH   7  10
ENDBRANCH   1   7
BRANCH   4  23
ATOM     23  C   UNL     1      44.206   6.004  11.592  0.00  0.00    +0.000 C 
BRANCH  23  24
ATOM     24  N   UNL     1      44.276   5.529  10.212  0.00  0.00    +0.000 NA
ATOM     25  H   UNL     1      45.156   5.843   9.802  0.00  0.00    +0.000 HD
BRANCH  24  26
ATOM     26  C   UNL     1      44.243   4.061  10.141  0.00  0.00    +0.000 C 
BRANCH  26  27
ATOM     27  C   UNL     1      45.209   3.526   9.097  0.00  0.00    +0.000 A 
ATOM     28  C   UNL     1      45.419   2.153   8.982  0.00  0.00    +0.000 A 
ATOM     29  C   UNL     1      46.282   1.677   7.997  0.00  0.00    +0.000 A 
ATOM     30  C   UNL     1      46.926   2.578   7.153  0.00  0.00    +0.000 A 
ATOM     31  C   UNL     1      47.857   2.120   6.075  0.00  0.00    +0.000 C 
ATOM     32  C   UNL     1      46.667   3.931   7.345  0.00  0.00    +0.000 A 
ATOM     33  N   UNL     1      45.828   4.422   8.289  0.00  0.00    +0.000 NA
ENDBRANCH  26  27
ENDBRANCH  24  26
ENDBRANCH  23  24
ENDBRANCH   4  23
TORSDOF 8
ENDMDL
MODEL 8
REMARK VINA RESULT:    -6.416      3.702      9.238
REMARK INTER + INTRA:         -10.763
REMARK INTER:                  -9.199
REMARK INTRA:                  -1.564
REMARK UNBOUND:                -1.347
REMARK  Name = 
REMARK  10 active torsions:
REMARK  status: ('A' for Active; 'I' for Inactive)
REMARK    1  A    between atoms: C_1  and  O_2
REMARK    2  A    between atoms: O_2  and  C_3
REMARK    3  A    between atoms: C_10  and  C_11
REMARK    4  A    between atoms: N_13  and  C_14
REMARK    5  A    between atoms: C_14  and  C_15
REMARK    6  A    between atoms: C_18  and  C_19
REMARK    7  A    between atoms: C_19  and  N_20
REMARK    8  A    between atoms: N_20  and  C_21
REMARK    9  A    between atoms: C_21  and  C_22
REMARK   10  A    between atoms: C_25  and  C_26
REMARK                            x       y       z     vdW  Elec       q    Type
REMARK                         _______ _______ _______ _____ _____    ______ ____
ROOT
ATOM      1  C   UNL     1      48.821   3.236  17.322  0.00  0.00    +0.000 A 
ATOM      2  C   UNL     1      49.363   4.340  17.992  0.00  0.00    +0.000 A 
ATOM      3  C   UNL     1      50.713   4.356  18.366  0.00  0.00    +0.000 A 
ATOM      4  C   UNL     1      51.553   3.272  18.071  0.00  0.00    +0.000 A 
ATOM      5  C   UNL     1      51.017   2.184  17.371  0.00  0.00    +0.000 A 
ATOM      6  C   UNL     1      49.668   2.169  16.995  0.00  0.00    +0.000 A 
ENDROOT
BRANCH   1   7
ATOM      7  C   UNL     1      47.369   3.217  16.913  0.00  0.00    +0.000 C 
BRANCH   7  10
ATOM      8  C   UNL     1      47.066   4.121  14.638  0.00  0.00    +0.000 C 
ATOM      9  O   UNL     1      47.314   3.033  14.125  0.00  0.00    +0.000 OA
ATOM     10  N   UNL     1      47.081   4.290  15.996  0.00  0.00    +0.000 N 
ATOM     11  H   UNL     1      46.944   5.208  16.392  0.00  0.00    +0.000 HD
BRANCH   8  19
ATOM     12  C   UNL     1      44.349   4.973  12.699  0.00  0.00    +0.000 A 
ATOM     13  N   UNL     1      43.441   5.539  11.880  0.00  0.00    +0.000 NA
ATOM     14  C   UNL     1      43.730   6.731  11.354  0.00  0.00    +0.000 A 
ATOM     15  N   UNL     1      44.834   7.448  11.551  0.00  0.00    +0.000 NA
ATOM     16  C   UNL     1      45.708   6.853  12.378  0.00  0.00    +0.000 A 
ATOM     17  S   UNL     1      47.174   7.624  12.746  0.00  0.00    +0.000 S 
ATOM     18  C   UNL     1      47.660   6.338  13.744  0.00  0.00    +0.000 A 
ATOM     19  C   UNL     1      46.734   5.303  13.821  0.00  0.00    +0.000 A 
ATOM     20  C   UNL     1      45.561   5.618  13.005  0.00  0.00    +0.000 A 
BRANCH  12  22
ATOM     21  C   UNL     1      43.613   2.784  12.323  0.00  0.00    +0.000 C 
ATOM     22  O   UNL     1      44.030   3.761  13.275  0.00  0.00    +0.000 OA
ENDBRANCH  12  22
ENDBRANCH   8  19
ENDBRANCH   7  10
ENDBRANCH   1   7
BRANCH   4  23
ATOM     23  C   UNL     1      53.009   3.284  18.489  0.00  0.00    +0.000 C 
BRANCH  23  24
ATOM     24  N   UNL     1      53.874   3.654  17.370  0.00  0.00    +0.000 NA
ATOM     25  H   UNL     1      53.298   3.774  16.536  0.00  0.00    +0.000 HD
BRANCH  24  26
ATOM     26  C   UNL     1      54.574   4.921  17.621  0.00  0.00    +0.000 C 
BRANCH  26  27
ATOM     27  C   UNL     1      53.652   6.117  17.454  0.00  0.00    +0.000 A 
ATOM     28  C   UNL     1      53.079   6.387  16.212  0.00  0.00    +0.000 A 
ATOM     29  C   UNL     1      52.210   7.469  16.085  0.00  0.00    +0.000 A 
ATOM     30  C   UNL     1      51.935   8.265  17.194  0.00  0.00    +0.000 A 
ATOM     31  C   UNL     1      51.005   9.434  17.114  0.00  0.00    +0.000 C 
ATOM     32  C   UNL     1      52.560   7.931  18.391  0.00  0.00    +0.000 A 
ATOM     33  N   UNL     1      53.403   6.882  18.546  0.00  0.00    +0.000 NA
ENDBRANCH  26  27
ENDBRANCH  24  26
ENDBRANCH  23  24
ENDBRANCH   4  23
TORSDOF 8
ENDMDL
MODEL 9
REMARK VINA RESULT:    -6.186      2.001      2.846
REMARK INTER + INTRA:         -10.426
REMARK INTER:                 -10.113
REMARK INTRA:                  -0.313
REMARK UNBOUND:                -1.347
REMARK  Name = 
REMARK  10 active torsions:
REMARK  status: ('A' for Active; 'I' for Inactive)
REMARK    1  A    between atoms: C_1  and  O_2
REMARK    2  A    between atoms: O_2  and  C_3
REMARK    3  A    between atoms: C_10  and  C_11
REMARK    4  A    between atoms: N_13  and  C_14
REMARK    5  A    between atoms: C_14  and  C_15
REMARK    6  A    between atoms: C_18  and  C_19
REMARK    7  A    between atoms: C_19  and  N_20
REMARK    8  A    between atoms: N_20  and  C_21
REMARK    9  A    between atoms: C_21  and  C_22
REMARK   10  A    between atoms: C_25  and  C_26
REMARK                            x       y       z     vdW  Elec       q    Type
REMARK                         _______ _______ _______ _____ _____    ______ ____
ROOT
ATOM      1  C   UNL     1      46.422   4.537  13.913  0.00  0.00    +0.000 A 
ATOM      2  C   UNL     1      46.096   3.342  13.258  0.00  0.00    +0.000 A 
ATOM      3  C   UNL     1      45.012   3.285  12.373  0.00  0.00    +0.000 A 
ATOM      4  C   UNL     1      44.233   4.424  12.116  0.00  0.00    +0.000 A 
ATOM      5  C   UNL     1      44.581   5.626  12.747  0.00  0.00    +0.000 A 
ATOM      6  C   UNL     1      45.667   5.683  13.629  0.00  0.00    +0.000 A 
ENDROOT
BRANCH   1   7
ATOM      7  C   UNL     1      47.592   4.603  14.862  0.00  0.00    +0.000 C 
BRANCH   7  10
ATOM      8  C   UNL     1      48.827   6.313  16.140  0.00  0.00    +0.000 C 
ATOM      9  O   UNL     1      49.729   5.525  16.410  0.00  0.00    +0.000 OA
ATOM     10  N   UNL     1      47.745   5.933  15.393  0.00  0.00    +0.000 N 
ATOM     11  H   UNL     1      46.983   6.577  15.243  0.00  0.00    +0.000 HD
BRANCH   8  19
ATOM     12  C   UNL     1      47.556   7.933  18.903  0.00  0.00    +0.000 A 
ATOM     13  N   UNL     1      47.166   8.800  19.857  0.00  0.00    +0.000 NA
ATOM     14  C   UNL     1      47.494  10.085  19.708  0.00  0.00    +0.000 A 
ATOM     15  N   UNL     1      48.183  10.625  18.704  0.00  0.00    +0.000 NA
ATOM     16  C   UNL     1      48.559   9.727  17.780  0.00  0.00    +0.000 A 
ATOM     17  S   UNL     1      49.449  10.237  16.429  0.00  0.00    +0.000 S 
ATOM     18  C   UNL     1      49.509   8.657  15.808  0.00  0.00    +0.000 A 
ATOM     19  C   UNL     1      48.862   7.714  16.600  0.00  0.00    +0.000 A 
ATOM     20  C   UNL     1      48.298   8.359  17.786  0.00  0.00    +0.000 A 
BRANCH  12  22
ATOM     21  C   UNL     1      47.867   6.037  20.238  0.00  0.00    +0.000 C 
ATOM     22  O   UNL     1      47.253   6.600  19.081  0.00  0.00    +0.000 OA
ENDBRANCH  12  22
ENDBRANCH   8  19
ENDBRANCH   7  10
ENDBRANCH   1   7
BRANCH   4  23
ATOM     23  C   UNL     1      43.051   4.358  11.171  0.00  0.00    +0.000 C 
BRANCH  23  24
ATOM     24  N   UNL     1      43.440   4.747   9.817  0.00  0.00    +0.000 NA
ATOM     25  H   UNL     1      42.919   5.585   9.554  0.00  0.00    +0.000 HD
BRANCH  24  26
ATOM     26  C   UNL     1      44.873   5.062   9.731  0.00  0.00    +0.000 C 
BRANCH  26  27
ATOM     27  C   UNL     1      45.605   4.107   8.804  0.00  0.00    +0.000 A 
ATOM     28  C   UNL     1      45.456   2.730   8.961  0.00  0.00    +0.000 A 
ATOM     29  C   UNL     1      46.108   1.870   8.081  0.00  0.00    +0.000 A 
ATOM     30  C   UNL     1      46.904   2.397   7.067  0.00  0.00    +0.000 A 
ATOM     31  C   UNL     1      47.621   1.519   6.091  0.00  0.00    +0.000 C 
ATOM     32  C   UNL     1      47.007   3.782   6.990  0.00  0.00    +0.000 A 
ATOM     33  N   UNL     1      46.378   4.643   7.826  0.00  0.00    +0.000 NA
ENDBRANCH  26  27
ENDBRANCH  24  26
ENDBRANCH  23  24
ENDBRANCH   4  23
TORSDOF 8
ENDMDL
