MODEL 1
REMARK VINA RESULT:    -6.969      0.000      0.000
REMARK INTER + INTRA:          -9.206
REMARK INTER:                  -8.802
REMARK INTRA:                  -0.404
REMARK UNBOUND:                -0.404
REMARK  Name = 
REMARK  7 active torsions:
REMARK  status: ('A' for Active; 'I' for Inactive)
REMARK    1  A    between atoms: C_1  and  C_2
REMARK    2  A    between atoms: C_2  and  C_3
REMARK    3  A    between atoms: C_2  and  N_4
REMARK    4  A    between atoms: C_2  and  C_5
REMARK    5  A    between atoms: C_8  and  N_9
REMARK    6  A    between atoms: N_9  and  C_10
REMARK    7  A    between atoms: C_10  and  C_11
REMARK                            x       y       z     vdW  Elec       q    Type
REMARK                         _______ _______ _______ _____ _____    ______ ____
ROOT
ATOM      1  C   UNL     1      46.520   5.863  12.403  0.00  0.00    +0.000 A 
ATOM      2  C   UNL     1      45.975   4.634  12.773  0.00  0.00    +0.000 A 
ATOM      3  N   UNL     1      45.249   3.851  11.930  0.00  0.00    +0.000 NA
ATOM      4  C   UNL     1      45.046   4.324  10.685  0.00  0.00    +0.000 A 
ATOM      5  C   UNL     1      45.618   5.539  10.315  0.00  0.00    +0.000 A 
ATOM      6  N   UNL     1      46.347   6.328  11.142  0.00  0.00    +0.000 NA
ENDROOT
BRANCH   1   8
ATOM      7  C   UNL     1      46.838   8.101  13.539  0.00  0.00    +0.000 C 
ATOM      8  C   UNL     1      47.392   6.678  13.359  0.00  0.00    +0.000 C 
ATOM      9  C   UNL     1      48.841   6.778  12.831  0.00  0.00    +0.000 C 
BRANCH   8  10
ATOM     10  N   UNL     1      47.439   6.034  14.688  0.00  0.00    +0.000 NA
ATOM     11  H   UNL     1      48.403   5.776  14.899  0.00  0.00    +0.000 HD
ATOM     12  H   UNL     1      46.930   5.150  14.632  0.00  0.00    +0.000 HD
ENDBRANCH   8  10
ENDBRANCH   1   8
BRANCH   4  13
ATOM     13  N   UNL     1      44.342   3.496   9.808  0.00  0.00    +0.000 N 
ATOM     14  H   UNL     1      44.542   2.534  10.072  0.00  0.00    +0.000 HD
BRANCH  13  15
ATOM     15  C   UNL     1      44.584   3.711   8.388  0.00  0.00    +0.000 C 
BRANCH  15  16
ATOM     16  C   UNL     1      45.759   2.889   7.930  0.00  0.00    +0.000 A 
ATOM     17  C   UNL     1      45.810   1.523   8.225  0.00  0.00    +0.000 A 
ATOM     18  C   UNL     1      46.871   0.778   7.743  0.00  0.00    +0.000 A 
ATOM     19  N   UNL     1      47.869   1.292   6.993  0.00  0.00    +0.000 NA
ATOM     20  C   UNL     1      47.801   2.612   6.718  0.00  0.00    +0.000 A 
ATOM     21  C   UNL     1      46.781   3.442   7.156  0.00  0.00    +0.000 A 
ENDBRANCH  15  16
ENDBRANCH  13  15
ENDBRANCH   4  13
TORSDOF 5
ENDMDL
MODEL 2
REMARK VINA RESULT:    -6.724      1.367      6.391
REMARK INTER + INTRA:          -8.896
REMARK INTER:                  -8.451
REMARK INTRA:                  -0.445
REMARK UNBOUND:                -0.404
REMARK  Name = 
REMARK  7 active torsions:
REMARK  status: ('A' for Active; 'I' for Inactive)
REMARK    1  A    between atoms: C_1  and  C_2
REMARK    2  A    between atoms: C_2  and  C_3
REMARK    3  A    between atoms: C_2  and  N_4
REMARK    4  A    between atoms: C_2  and  C_5
REMARK    5  A    between atoms: C_8  and  N_9
REMARK    6  A    between atoms: N_9  and  C_10
REMARK    7  A    between atoms: C_10  and  C_11
REMARK                            x       y       z     vdW  Elec       q    Type
REMARK                         _______ _______ _______ _____ _____    ______ ____
ROOT
ATOM      1  C   UNL     1      46.371   3.009   7.635  0.00  0.00    +0.000 A 
ATOM      2  C   UNL     1      46.417   4.401   7.711  0.00  0.00    +0.000 A 
ATOM      3  N   UNL     1      45.738   5.124   8.642  0.00  0.00    +0.000 NA
ATOM      4  C   UNL     1      44.973   4.433   9.509  0.00  0.00    +0.000 A 
ATOM      5  C   UNL     1      44.956   3.040   9.444  0.00  0.00    +0.000 A 
ATOM      6  N   UNL     1      45.630   2.306   8.525  0.00  0.00    +0.000 NA
ENDROOT
BRANCH   1   8
ATOM      7  C   UNL     1      46.730   2.500   5.183  0.00  0.00    +0.000 C 
ATOM      8  C   UNL     1      47.208   2.230   6.619  0.00  0.00    +0.000 C 
ATOM      9  C   UNL     1      47.125   0.710   6.888  0.00  0.00    +0.000 C 
BRANCH   8  10
ATOM     10  N   UNL     1      48.629   2.627   6.711  0.00  0.00    +0.000 NA
ATOM     11  H   UNL     1      48.838   2.894   7.673  0.00  0.00    +0.000 HD
ATOM     12  H   UNL     1      48.758   3.478   6.161  0.00  0.00    +0.000 HD
ENDBRANCH   8  10
ENDBRANCH   1   8
BRANCH   4  13
ATOM     13  N   UNL     1      44.316   5.173  10.494  0.00  0.00    +0.000 N 
ATOM     14  H   UNL     1      43.397   5.412  10.130  0.00  0.00    +0.000 HD
BRANCH  13  15
ATOM     15  C   UNL     1      45.013   6.356  10.980  0.00  0.00    +0.000 C 
BRANCH  15  16
ATOM     16  C   UNL     1      45.985   5.978  12.065  0.00  0.00    +0.000 A 
ATOM     17  C   UNL     1      47.231   6.609  12.134  0.00  0.00    +0.000 A 
ATOM     18  C   UNL     1      48.083   6.286  13.175  0.00  0.00    +0.000 A 
ATOM     19  N   UNL     1      47.781   5.393  14.142  0.00  0.00    +0.000 NA
ATOM     20  C   UNL     1      46.574   4.797  14.059  0.00  0.00    +0.000 A 
ATOM     21  C   UNL     1      45.651   5.052  13.055  0.00  0.00    +0.000 A 
ENDBRANCH  15  16
ENDBRANCH  13  15
ENDBRANCH   4  13
TORSDOF 5
ENDMDL
MODEL 3
REMARK VINA RESULT:    -6.138      3.450      7.117
REMARK INTER + INTRA:          -8.157
REMARK INTER:                  -7.803
REMARK INTRA:                  -0.354
REMARK UNBOUND:                -0.404
REMARK  Name = 
REMARK  7 active torsions:
REMARK  status: ('A' for Active; 'I' for Inactive)
REMARK    1  A    between atoms: C_1  and  C_2
REMARK    2  A    between atoms: C_2  and  C_3
REMARK    3  A    between atoms: C_2  and  N_4
REMARK    4  A    between atoms: C_2  and  C_5
REMARK    5  A    between atoms: C_8  and  N_9
REMARK    6  A    between atoms: N_9  and  C_10
REMARK    7  A    between atoms: C_10  and  C_11
REMARK                            x       y       z     vdW  Elec       q    Type
REMARK                         _______ _______ _______ _____ _____    ______ ____
ROOT
ATOM      1  C   UNL     1      45.402   4.610  11.599  0.00  0.00    +0.000 A 
ATOM      2  C   UNL     1      45.413   3.668  12.627  0.00  0.00    +0.000 A 
ATOM      3  N   UNL     1      46.051   3.860  13.813  0.00  0.00    +0.000 NA
ATOM      4  C   UNL     1      46.716   5.022  13.965  0.00  0.00    +0.000 A 
ATOM      5  C   UNL     1      46.675   5.969  12.944  0.00  0.00    +0.000 A 
ATOM      6  N   UNL     1      46.040   5.795  11.759  0.00  0.00    +0.000 NA
ENDROOT
BRANCH   1   8
ATOM      7  C   UNL     1      44.183   2.916  10.171  0.00  0.00    +0.000 C 
ATOM      8  C   UNL     1      44.610   4.386  10.310  0.00  0.00    +0.000 C 
ATOM      9  C   UNL     1      45.452   4.773   9.073  0.00  0.00    +0.000 C 
BRANCH   8  10
ATOM     10  N   UNL     1      43.390   5.220  10.304  0.00  0.00    +0.000 NA
ATOM     11  H   UNL     1      43.064   5.340  11.263  0.00  0.00    +0.000 HD
ATOM     12  H   UNL     1      42.650   4.698   9.832  0.00  0.00    +0.000 HD
ENDBRANCH   8  10
ENDBRANCH   1   8
BRANCH   4  13
ATOM     13  N   UNL     1      47.328   5.236  15.201  0.00  0.00    +0.000 N 
ATOM     14  H   UNL     1      48.318   5.395  15.026  0.00  0.00    +0.000 HD
BRANCH  13  15
ATOM     15  C   UNL     1      47.132   4.199  16.204  0.00  0.00    +0.000 C 
BRANCH  15  16
ATOM     16  C   UNL     1      48.459   3.756  16.761  0.00  0.00    +0.000 A 
ATOM     17  C   UNL     1      48.862   2.425  16.621  0.00  0.00    +0.000 A 
ATOM     18  C   UNL     1      50.111   2.056  17.089  0.00  0.00    +0.000 A 
ATOM     19  N   UNL     1      50.976   2.912  17.673  0.00  0.00    +0.000 NA
ATOM     20  C   UNL     1      50.568   4.192  17.798  0.00  0.00    +0.000 A 
ATOM     21  C   UNL     1      49.337   4.659  17.362  0.00  0.00    +0.000 A 
ENDBRANCH  15  16
ENDBRANCH  13  15
ENDBRANCH   4  13
TORSDOF 5
ENDMDL
MODEL 4
REMARK VINA RESULT:    -6.095      2.830      4.496
REMARK INTER + INTRA:          -8.102
REMARK INTER:                  -7.832
REMARK INTRA:                  -0.270
REMARK UNBOUND:                -0.404
REMARK  Name = 
REMARK  7 active torsions:
REMARK  status: ('A' for Active; 'I' for Inactive)
REMARK    1  A    between atoms: C_1  and  C_2
REMARK    2  A    between atoms: C_2  and  C_3
REMARK    3  A    between atoms: C_2  and  N_4
REMARK    4  A    between atoms: C_2  and  C_5
REMARK    5  A    between atoms: C_8  and  N_9
REMARK    6  A    between atoms: N_9  and  C_10
REMARK    7  A    between atoms: C_10  and  C_11
REMARK                            x       y       z     vdW  Elec       q    Type
REMARK                         _______ _______ _______ _____ _____    ______ ____
ROOT
ATOM      1  C   UNL     1      47.609   4.393  15.980  0.00  0.00    +0.000 A 
ATOM      2  C   UNL     1      48.142   5.624  15.598  0.00  0.00    +0.000 A 
ATOM      3  N   UNL     1      47.965   6.167  14.363  0.00  0.00    +0.000 NA
ATOM      4  C   UNL     1      47.252   5.444  13.478  0.00  0.00    +0.000 A 
ATOM      5  C   UNL     1      46.699   4.228  13.878  0.00  0.00    +0.000 A 
ATOM      6  N   UNL     1      46.863   3.677  15.105  0.00  0.00    +0.000 NA
ENDROOT
BRANCH   1   8
ATOM      7  C   UNL     1      47.742   4.993  18.434  0.00  0.00    +0.000 C 
ATOM      8  C   UNL     1      47.768   3.853  17.403  0.00  0.00    +0.000 C 
ATOM      9  C   UNL     1      49.100   3.084  17.553  0.00  0.00    +0.000 C 
BRANCH   8  10
ATOM     10  N   UNL     1      46.670   2.919  17.724  0.00  0.00    +0.000 NA
ATOM     11  H   UNL     1      46.310   3.136  18.654  0.00  0.00    +0.000 HD
ATOM     12  H   UNL     1      47.062   1.979  17.800  0.00  0.00    +0.000 HD
ENDBRANCH   8  10
ENDBRANCH   1   8
BRANCH   4  13
ATOM     13  N   UNL     1      47.031   6.025  12.228  0.00  0.00    +0.000 N 
ATOM     14  H   UNL     1      47.538   6.906  12.210  0.00  0.00    +0.000 HD
BRANCH  13  15
ATOM     15  C   UNL     1      45.639   6.211  11.842  0.00  0.00    +0.000 C 
BRANCH  15  16
ATOM     16  C   UNL     1      45.246   5.191  10.807  0.00  0.00    +0.000 A 
ATOM     17  C   UNL     1      45.735   5.300   9.502  0.00  0.00    +0.000 A 
ATOM     18  C   UNL     1      45.406   4.318   8.585  0.00  0.00    +0.000 A 
ATOM     19  N   UNL     1      44.637   3.247   8.876  0.00  0.00    +0.000 NA
ATOM     20  C   UNL     1      44.176   3.159  10.141  0.00  0.00    +0.000 A 
ATOM     21  C   UNL     1      44.449   4.091  11.131  0.00  0.00    +0.000 A 
ENDBRANCH  15  16
ENDBRANCH  13  15
ENDBRANCH   4  13
TORSDOF 5
ENDMDL
MODEL 5
REMARK VINA RESULT:    -5.949      2.090      2.836
REMARK INTER + INTRA:          -7.918
REMARK INTER:                  -7.483
REMARK INTRA:                  -0.435
REMARK UNBOUND:                -0.404
REMARK  Name = 
REMARK  7 active torsions:
REMARK  status: ('A' for Active; 'I' for Inactive)
REMARK    1  A    between atoms: C_1  and  C_2
REMARK    2  A    between atoms: C_2  and  C_3
REMARK    3  A    between atoms: C_2  and  N_4
REMARK    4  A    between atoms: C_2  and  C_5
REMARK    5  A    between atoms: C_8  and  N_9
REMARK    6  A    between atoms: N_9  and  C_10
REMARK    7  A    between atoms: C_10  and  C_11
REMARK                            x       y       z     vdW  Elec       q    Type
REMARK                         _______ _______ _______ _____ _____    ______ ____
ROOT
ATOM      1  C   UNL     1      46.849   4.750  14.572  0.00  0.00    +0.000 A 
ATOM      2  C   UNL     1      47.463   5.600  13.652  0.00  0.00    +0.000 A 
ATOM      3  N   UNL     1      46.890   5.971  12.476  0.00  0.00    +0.000 NA
ATOM      4  C   UNL     1      45.674   5.459  12.203  0.00  0.00    +0.000 A 
ATOM      5  C   UNL     1      45.056   4.633  13.141  0.00  0.00    +0.000 A 
ATOM      6  N   UNL     1      45.612   4.258  14.319  0.00  0.00    +0.000 NA
ENDROOT
BRANCH   1   8
ATOM      7  C   UNL     1      48.528   5.484  16.316  0.00  0.00    +0.000 C 
ATOM      8  C   UNL     1      47.496   4.417  15.917  0.00  0.00    +0.000 C 
ATOM      9  C   UNL     1      48.205   3.045  15.861  0.00  0.00    +0.000 C 
BRANCH   8  10
ATOM     10  N   UNL     1      46.471   4.352  16.979  0.00  0.00    +0.000 NA
ATOM     11  H   UNL     1      45.717   5.000  16.754  0.00  0.00    +0.000 HD
ATOM     12  H   UNL     1      46.884   4.708  17.843  0.00  0.00    +0.000 HD
ENDBRANCH   8  10
ENDBRANCH   1   8
BRANCH   4  13
ATOM     13  N   UNL     1      45.068   5.880  11.018  0.00  0.00    +0.000 N 
ATOM     14  H   UNL     1      44.597   6.760  11.215  0.00  0.00    +0.000 HD
BRANCH  13  15
ATOM     15  C   UNL     1      44.164   4.930  10.386  0.00  0.00    +0.000 C 
BRANCH  15  16
ATOM     16  C   UNL     1      44.931   4.014   9.469  0.00  0.00    +0.000 A 
ATOM     17  C   UNL     1      44.852   2.629   9.644  0.00  0.00    +0.000 A 
ATOM     18  C   UNL     1      45.519   1.807   8.753  0.00  0.00    +0.000 A 
ATOM     19  N   UNL     1      46.244   2.264   7.711  0.00  0.00    +0.000 NA
ATOM     20  C   UNL     1      46.307   3.604   7.558  0.00  0.00    +0.000 A 
ATOM     21  C   UNL     1      45.676   4.509   8.397  0.00  0.00    +0.000 A 
ENDBRANCH  15  16
ENDBRANCH  13  15
ENDBRANCH   4  13
TORSDOF 5
ENDMDL
MODEL 6
REMARK VINA RESULT:    -5.858      3.427      7.759
REMARK INTER + INTRA:          -7.803
REMARK INTER:                  -7.515
REMARK INTRA:                  -0.288
REMARK UNBOUND:                -0.404
REMARK  Name = 
REMARK  7 active torsions:
REMARK  status: ('A' for Active; 'I' for Inactive)
REMARK    1  A    between atoms: C_1  and  C_2
REMARK    2  A    between atoms: C_2  and  C_3
REMARK    3  A    between atoms: C_2  and  N_4
REMARK    4  A    between atoms: C_2  and  C_5
REMARK    5  A    between atoms: C_8  and  N_9
REMARK    6  A    between atoms: N_9  and  C_10
REMARK    7  A    between atoms: C_10  and  C_11
REMARK                            x       y       z     vdW  Elec       q    Type
REMARK                         _______ _______ _______ _____ _____    ______ ____
ROOT
ATOM      1  C   UNL     1      45.374   4.544  11.418  0.00  0.00    +0.000 A 
ATOM      2  C   UNL     1      45.370   3.582  12.428  0.00  0.00    +0.000 A 
ATOM      3  N   UNL     1      45.933   3.775  13.651  0.00  0.00    +0.000 NA
ATOM      4  C   UNL     1      46.538   4.961  13.861  0.00  0.00    +0.000 A 
ATOM      5  C   UNL     1      46.512   5.927  12.856  0.00  0.00    +0.000 A 
ATOM      6  N   UNL     1      45.951   5.751  11.635  0.00  0.00    +0.000 NA
ENDROOT
BRANCH   1   8
ATOM      7  C   UNL     1      44.263   2.839   9.916  0.00  0.00    +0.000 C 
ATOM      8  C   UNL     1      44.664   4.314  10.083  0.00  0.00    +0.000 C 
ATOM      9  C   UNL     1      45.574   4.714   8.900  0.00  0.00    +0.000 C 
BRANCH   8  10
ATOM     10  N   UNL     1      43.436   5.133  10.006  0.00  0.00    +0.000 NA
ATOM     11  H   UNL     1      43.502   5.756   9.201  0.00  0.00    +0.000 HD
ATOM     12  H   UNL     1      43.411   5.748  10.821  0.00  0.00    +0.000 HD
ENDBRANCH   8  10
ENDBRANCH   1   8
BRANCH   4  13
ATOM     13  N   UNL     1      47.073   5.175  15.132  0.00  0.00    +0.000 N 
ATOM     14  H   UNL     1      47.910   5.741  15.018  0.00  0.00    +0.000 HD
BRANCH  13  15
ATOM     15  C   UNL     1      47.349   3.983  15.922  0.00  0.00    +0.000 C 
BRANCH  15  16
ATOM     16  C   UNL     1      47.959   4.365  17.244  0.00  0.00    +0.000 A 
ATOM     17  C   UNL     1      49.272   3.986  17.541  0.00  0.00    +0.000 A 
ATOM     18  C   UNL     1      49.829   4.400  18.738  0.00  0.00    +0.000 A 
ATOM     19  N   UNL     1      49.180   5.159  19.645  0.00  0.00    +0.000 NA
ATOM     20  C   UNL     1      47.914   5.517  19.339  0.00  0.00    +0.000 A 
ATOM     21  C   UNL     1      47.268   5.152  18.168  0.00  0.00    +0.000 A 
ENDBRANCH  15  16
ENDBRANCH  13  15
ENDBRANCH   4  13
TORSDOF 5
ENDMDL
MODEL 7
REMARK VINA RESULT:    -5.800      4.163      6.185
REMARK INTER + INTRA:          -7.730
REMARK INTER:                  -7.447
REMARK INTRA:                  -0.283
REMARK UNBOUND:                -0.404
REMARK  Name = 
REMARK  7 active torsions:
REMARK  status: ('A' for Active; 'I' for Inactive)
REMARK    1  A    between atoms: C_1  and  C_2
REMARK    2  A    between atoms: C_2  and  C_3
REMARK    3  A    between atoms: C_2  and  N_4
REMARK    4  A    between atoms: C_2  and  C_5
REMARK    5  A    between atoms: C_8  and  N_9
REMARK    6  A    between atoms: N_9  and  C_10
REMARK    7  A    between atoms: C_10  and  C_11
REMARK                            x       y       z     vdW  Elec       q    Type
REMARK                         _______ _______ _______ _____ _____    ______ ____
ROOT
ATOM      1  C   UNL     1      48.177   4.646  18.260  0.00  0.00    +0.000 A 
ATOM      2  C   UNL     1      47.463   3.504  17.898  0.00  0.00    +0.000 A 
ATOM      3  N   UNL     1      47.009   3.271  16.637  0.00  0.00    +0.000 NA
ATOM      4  C   UNL     1      47.259   4.222  15.716  0.00  0.00    +0.000 A 
ATOM      5  C   UNL     1      47.998   5.347  16.080  0.00  0.00    +0.000 A 
ATOM      6  N   UNL     1      48.461   5.590  17.330  0.00  0.00    +0.000 NA
ENDROOT
BRANCH   1   8
ATOM      7  C   UNL     1      48.087   6.044  20.366  0.00  0.00    +0.000 C 
ATOM      8  C   UNL     1      48.734   4.834  19.672  0.00  0.00    +0.000 C 
ATOM      9  C   UNL     1      50.264   5.048  19.635  0.00  0.00    +0.000 C 
BRANCH   8  10
ATOM     10  N   UNL     1      48.465   3.636  20.494  0.00  0.00    +0.000 NA
ATOM     11  H   UNL     1      48.078   3.929  21.392  0.00  0.00    +0.000 HD
ATOM     12  H   UNL     1      49.359   3.195  20.717  0.00  0.00    +0.000 HD
ENDBRANCH   8  10
ENDBRANCH   1   8
BRANCH   4  13
ATOM     13  N   UNL     1      46.835   3.959  14.412  0.00  0.00    +0.000 N 
ATOM     14  H   UNL     1      47.622   3.549  13.914  0.00  0.00    +0.000 HD
BRANCH  13  15
ATOM     15  C   UNL     1      46.278   5.086  13.677  0.00  0.00    +0.000 C 
BRANCH  15  16
ATOM     16  C   UNL     1      45.096   4.639  12.859  0.00  0.00    +0.000 A 
ATOM     17  C   UNL     1      44.021   5.511  12.655  0.00  0.00    +0.000 A 
ATOM     18  C   UNL     1      42.974   5.098  11.851  0.00  0.00    +0.000 A 
ATOM     19  N   UNL     1      42.926   3.896  11.240  0.00  0.00    +0.000 NA
ATOM     20  C   UNL     1      43.973   3.069  11.448  0.00  0.00    +0.000 A 
ATOM     21  C   UNL     1      45.068   3.390  12.236  0.00  0.00    +0.000 A 
ENDBRANCH  15  16
ENDBRANCH  13  15
ENDBRANCH   4  13
TORSDOF 5
ENDMDL
MODEL 8
REMARK VINA RESULT:    -5.292      4.046      6.313
REMARK INTER + INTRA:          -7.088
REMARK INTER:                  -6.823
REMARK INTRA:                  -0.265
REMARK UNBOUND:                -0.404
REMARK  Name = 
REMARK  7 active torsions:
REMARK  status: ('A' for Active; 'I' for Inactive)
REMARK    1  A    between atoms: C_1  and  C_2
REMARK    2  A    between atoms: C_2  and  C_3
REMARK    3  A    between atoms: C_2  and  N_4
REMARK    4  A    between atoms: C_2  and  C_5
REMARK    5  A    between atoms: C_8  and  N_9
REMARK    6  A    between atoms: N_9  and  C_10
REMARK    7  A    between atoms: C_10  and  C_11
REMARK                            x       y       z     vdW  Elec       q    Type
REMARK                         _______ _______ _______ _____ _____    ______ ____
ROOT
ATOM      1  C   UNL     1      49.835   4.259  17.318  0.00  0.00    +0.000 A 
ATOM      2  C   UNL     1      49.336   5.416  16.719  0.00  0.00    +0.000 A 
ATOM      3  N   UNL     1      48.191   5.446  15.986  0.00  0.00    +0.000 NA
ATOM      4  C   UNL     1      47.538   4.278  15.830  0.00  0.00    +0.000 A 
ATOM      5  C   UNL     1      48.029   3.133  16.455  0.00  0.00    +0.000 A 
ATOM      6  N   UNL     1      49.165   3.088  17.192  0.00  0.00    +0.000 NA
ENDROOT
BRANCH   1   8
ATOM      7  C   UNL     1      50.774   4.843  19.593  0.00  0.00    +0.000 C 
ATOM      8  C   UNL     1      51.087   4.283  18.196  0.00  0.00    +0.000 C 
ATOM      9  C   UNL     1      52.193   5.151  17.555  0.00  0.00    +0.000 C 
BRANCH   8  10
ATOM     10  N   UNL     1      51.626   2.917  18.361  0.00  0.00    +0.000 NA
ATOM     11  H   UNL     1      51.205   2.491  19.187  0.00  0.00    +0.000 HD
ATOM     12  H   UNL     1      52.622   2.990  18.575  0.00  0.00    +0.000 HD
ENDBRANCH   8  10
ENDBRANCH   1   8
BRANCH   4  13
ATOM     13  N   UNL     1      46.337   4.321  15.118  0.00  0.00    +0.000 N 
ATOM     14  H   UNL     1      45.976   3.371  15.074  0.00  0.00    +0.000 HD
BRANCH  13  15
ATOM     15  C   UNL     1      46.397   4.923  13.794  0.00  0.00    +0.000 C 
BRANCH  15  16
ATOM     16  C   UNL     1      45.181   4.538  12.993  0.00  0.00    +0.000 A 
ATOM     17  C   UNL     1      44.094   5.414  12.916  0.00  0.00    +0.000 A 
ATOM     18  C   UNL     1      43.013   5.063  12.127  0.00  0.00    +0.000 A 
ATOM     19  N   UNL     1      42.944   3.919  11.414  0.00  0.00    +0.000 NA
ATOM     20  C   UNL     1      44.005   3.088  11.500  0.00  0.00    +0.000 A 
ATOM     21  C   UNL     1      45.133   3.349  12.263  0.00  0.00    +0.000 A 
ENDBRANCH  15  16
ENDBRANCH  13  15
ENDBRANCH   4  13
TORSDOF 5
ENDMDL
MODEL 9
REMARK VINA RESULT:    -5.219      3.940      7.475
REMARK INTER + INTRA:          -6.995
REMARK INTER:                  -6.598
REMARK INTRA:                  -0.397
REMARK UNBOUND:                -0.404
REMARK  Name = 
REMARK  7 active torsions:
REMARK  status: ('A' for Active; 'I' for Inactive)
REMARK    1  A    between atoms: C_1  and  C_2
REMARK    2  A    between atoms: C_2  and  C_3
REMARK    3  A    between atoms: C_2  and  N_4
REMARK    4  A    between atoms: C_2  and  C_5
REMARK    5  A    between atoms: C_8  and  N_9
REMARK    6  A    between atoms: N_9  and  C_10
REMARK    7  A    between atoms: C_10  and  C_11
REMARK                            x       y       z     vdW  Elec       q    Type
REMARK                         _______ _______ _______ _____ _____    ______ ____
ROOT
ATOM      1  C   UNL     1      45.071   5.315  12.798  0.00  0.00    +0.000 A 
ATOM      2  C   UNL     1      46.094   4.470  13.230  0.00  0.00    +0.000 A 
ATOM      3  N   UNL     1      47.316   4.916  13.630  0.00  0.00    +0.000 NA
ATOM      4  C   UNL     1      47.526   6.245  13.575  0.00  0.00    +0.000 A 
ATOM      5  C   UNL     1      46.489   7.084  13.170  0.00  0.00    +0.000 A 
ATOM      6  N   UNL     1      45.266   6.656  12.773  0.00  0.00    +0.000 NA
ENDROOT
BRANCH   1   8
ATOM      7  C   UNL     1      43.652   3.244  12.490  0.00  0.00    +0.000 C 
ATOM      8  C   UNL     1      43.687   4.780  12.427  0.00  0.00    +0.000 C 
ATOM      9  C   UNL     1      43.290   5.223  11.001  0.00  0.00    +0.000 C 
BRANCH   8  10
ATOM     10  N   UNL     1      42.668   5.300  13.362  0.00  0.00    +0.000 NA
ATOM     11  H   UNL     1      43.116   5.532  14.248  0.00  0.00    +0.000 HD
ATOM     12  H   UNL     1      42.018   4.542  13.579  0.00  0.00    +0.000 HD
ENDBRANCH   8  10
ENDBRANCH   1   8
BRANCH   4  13
ATOM     13  N   UNL     1      48.763   6.703  14.032  0.00  0.00    +0.000 N 
ATOM     14  H   UNL     1      49.433   5.950  13.899  0.00  0.00    +0.000 HD
BRANCH  13  15
ATOM     15  C   UNL     1      48.798   7.202  15.400  0.00  0.00    +0.000 C 
BRANCH  15  16
ATOM     16  C   UNL     1      49.456   6.194  16.304  0.00  0.00    +0.000 A 
ATOM     17  C   UNL     1      50.837   6.243  16.514  0.00  0.00    +0.000 A 
ATOM     18  C   UNL     1      51.409   5.343  17.395  0.00  0.00    +0.000 A 
ATOM     19  N   UNL     1      50.708   4.412  18.076  0.00  0.00    +0.000 NA
ATOM     20  C   UNL     1      49.375   4.382  17.862  0.00  0.00    +0.000 A 
ATOM     21  C   UNL     1      48.710   5.240  16.999  0.00  0.00    +0.000 A 
ENDBRANCH  15  16
ENDBRANCH  13  15
ENDBRANCH   4  13
TORSDOF 5
ENDMDL
