MODEL 1
REMARK VINA RESULT:    -7.659      0.000      0.000
REMARK INTER + INTRA:         -10.088
REMARK INTER:                  -9.674
REMARK INTRA:                  -0.414
REMARK UNBOUND:                -0.414
REMARK  Name = 
REMARK  5 active torsions:
REMARK  status: ('A' for Active; 'I' for Inactive)
REMARK    1  A    between atoms: N_1  and  C_2
REMARK    2  A    between atoms: C_2  and  C_3
REMARK    3  A    between atoms: C_6  and  C_7
REMARK    4  A    between atoms: C_7  and  O_8
REMARK    5  A    between atoms: O_8  and  C_9
REMARK                            x       y       z     vdW  Elec       q    Type
REMARK                         _______ _______ _______ _____ _____    ______ ____
ROOT
ATOM      1  C   UNL     1      43.785   4.355  10.045  0.00  0.00    +0.000 C 
ENDROOT
BRANCH   1   5
ATOM      2  C   UNL     1      46.636   2.278   7.525  0.00  0.00    +0.000 A 
ATOM      3  C   UNL     1      45.816   1.568   8.412  0.00  0.00    +0.000 A 
ATOM      4  C   UNL     1      44.891   2.236   9.220  0.00  0.00    +0.000 A 
ATOM      5  C   UNL     1      44.763   3.628   9.151  0.00  0.00    +0.000 A 
ATOM      6  C   UNL     1      45.587   4.341   8.271  0.00  0.00    +0.000 A 
ATOM      7  C   UNL     1      46.512   3.671   7.464  0.00  0.00    +0.000 A 
BRANCH   2   8
ATOM      8  C   UNL     1      47.662   1.560   6.684  0.00  0.00    +0.000 C 
BRANCH   8   9
ATOM      9  N   UNL     1      48.664   2.476   6.150  0.00  0.00    +0.000 NA
ATOM     10  H   UNL     1      48.866   2.220   5.186  0.00  0.00    +0.000 HD
ATOM     11  H   UNL     1      49.531   2.350   6.670  0.00  0.00    +0.000 HD
ENDBRANCH   8   9
ENDBRANCH   2   8
ENDBRANCH   1   5
BRANCH   1  12
ATOM     12  O   UNL     1      43.885   3.797  11.352  0.00  0.00    +0.000 OA
BRANCH  12  13
ATOM     13  C   UNL     1      44.883   4.368  12.109  0.00  0.00    +0.000 A 
ATOM     14  N   UNL     1      45.098   5.679  12.040  0.00  0.00    +0.000 NA
ATOM     15  C   UNL     1      46.089   6.095  12.818  0.00  0.00    +0.000 A 
ATOM     16  N   UNL     1      46.837   5.333  13.610  0.00  0.00    +0.000 NA
ATOM     17  C   UNL     1      46.517   4.046  13.598  0.00  0.00    +0.000 A 
ATOM     18  N   UNL     1      47.254   3.203  14.404  0.00  0.00    +0.000 N 
ATOM     19  N   UNL     1      45.569   3.506  12.853  0.00  0.00    +0.000 NA
ATOM     20  H   UNL     1      48.160   3.603  14.607  0.00  0.00    +0.000 HD
ATOM     21  H   UNL     1      47.227   2.259  14.045  0.00  0.00    +0.000 HD
ENDBRANCH  12  13
ENDBRANCH   1  12
TORSDOF 5
ENDMDL
MODEL 2
REMARK VINA RESULT:    -7.577      0.578      1.553
REMARK INTER + INTRA:          -9.984
REMARK INTER:                  -9.584
REMARK INTRA:                  -0.400
REMARK UNBOUND:                -0.414
REMARK  Name = 
REMARK  5 active torsions:
REMARK  status: ('A' for Active; 'I' for Inactive)
REMARK    1  A    between atoms: N_1  and  C_2
REMARK    2  A    between atoms: C_2  and  C_3
REMARK    3  A    between atoms: C_6  and  C_7
REMARK    4  A    between atoms: C_7  and  O_8
REMARK    5  A    between atoms: O_8  and  C_9
REMARK                            x       y       z     vdW  Elec       q    Type
REMARK                         _______ _______ _______ _____ _____    ______ ____
ROOT
ATOM      1  C   UNL     1      43.843   4.194  10.295  0.00  0.00    +0.000 C 
ENDROOT
BRANCH   1   5
ATOM      2  C   UNL     1      46.601   2.341   7.512  0.00  0.00    +0.000 A 
ATOM      3  C   UNL     1      45.845   1.560   8.397  0.00  0.00    +0.000 A 
ATOM      4  C   UNL     1      44.950   2.156   9.289  0.00  0.00    +0.000 A 
ATOM      5  C   UNL     1      44.788   3.546   9.310  0.00  0.00    +0.000 A 
ATOM      6  C   UNL     1      45.548   4.329   8.432  0.00  0.00    +0.000 A 
ATOM      7  C   UNL     1      46.443   3.732   7.540  0.00  0.00    +0.000 A 
BRANCH   2   8
ATOM      8  C   UNL     1      47.597   1.699   6.577  0.00  0.00    +0.000 C 
BRANCH   8   9
ATOM      9  N   UNL     1      48.698   2.600   6.255  0.00  0.00    +0.000 NA
ATOM     10  H   UNL     1      49.470   2.057   5.876  0.00  0.00    +0.000 HD
ATOM     11  H   UNL     1      49.037   3.022   7.117  0.00  0.00    +0.000 HD
ENDBRANCH   8   9
ENDBRANCH   2   8
ENDBRANCH   1   5
BRANCH   1  12
ATOM     12  O   UNL     1      43.975   3.519  11.542  0.00  0.00    +0.000 OA
BRANCH  12  13
ATOM     13  C   UNL     1      44.985   4.027  12.328  0.00  0.00    +0.000 A 
ATOM     14  N   UNL     1      45.837   3.199  12.927  0.00  0.00    +0.000 NA
ATOM     15  C   UNL     1      46.757   3.820  13.654  0.00  0.00    +0.000 A 
ATOM     16  N   UNL     1      46.873   5.134  13.814  0.00  0.00    +0.000 NA
ATOM     17  C   UNL     1      45.972   5.851  13.157  0.00  0.00    +0.000 A 
ATOM     18  N   UNL     1      46.042   7.224  13.279  0.00  0.00    +0.000 N 
ATOM     19  N   UNL     1      44.995   5.352  12.420  0.00  0.00    +0.000 NA
ATOM     20  H   UNL     1      46.524   7.483  14.129  0.00  0.00    +0.000 HD
ATOM     21  H   UNL     1      45.139   7.640  13.106  0.00  0.00    +0.000 HD
ENDBRANCH  12  13
ENDBRANCH   1  12
TORSDOF 5
ENDMDL
MODEL 3
REMARK VINA RESULT:    -7.102      1.309      2.702
REMARK INTER + INTRA:          -9.384
REMARK INTER:                  -8.996
REMARK INTRA:                  -0.388
REMARK UNBOUND:                -0.414
REMARK  Name = 
REMARK  5 active torsions:
REMARK  status: ('A' for Active; 'I' for Inactive)
REMARK    1  A    between atoms: N_1  and  C_2
REMARK    2  A    between atoms: C_2  and  C_3
REMARK    3  A    between atoms: C_6  and  C_7
REMARK    4  A    between atoms: C_7  and  O_8
REMARK    5  A    between atoms: O_8  and  C_9
REMARK                            x       y       z     vdW  Elec       q    Type
REMARK                         _______ _______ _______ _____ _____    ______ ____
ROOT
ATOM      1  C   UNL     1      43.779   4.103  10.220  0.00  0.00    +0.000 C 
ENDROOT
BRANCH   1   5
ATOM      2  C   UNL     1      46.637   2.328   7.486  0.00  0.00    +0.000 A 
ATOM      3  C   UNL     1      46.422   3.713   7.496  0.00  0.00    +0.000 A 
ATOM      4  C   UNL     1      45.507   4.287   8.383  0.00  0.00    +0.000 A 
ATOM      5  C   UNL     1      44.791   3.488   9.282  0.00  0.00    +0.000 A 
ATOM      6  C   UNL     1      44.999   2.102   9.269  0.00  0.00    +0.000 A 
ATOM      7  C   UNL     1      45.915   1.529   8.381  0.00  0.00    +0.000 A 
BRANCH   2   8
ATOM      8  C   UNL     1      47.595   1.706   6.501  0.00  0.00    +0.000 C 
BRANCH   8   9
ATOM      9  N   UNL     1      48.708   2.596   6.188  0.00  0.00    +0.000 NA
ATOM     10  H   UNL     1      49.583   2.095   6.329  0.00  0.00    +0.000 HD
ATOM     11  H   UNL     1      48.706   3.366   6.855  0.00  0.00    +0.000 HD
ENDBRANCH   8   9
ENDBRANCH   2   8
ENDBRANCH   1   5
BRANCH   1  12
ATOM     12  O   UNL     1      44.365   4.169  11.517  0.00  0.00    +0.000 OA
BRANCH  12  13
ATOM     13  C   UNL     1      44.780   5.437  11.860  0.00  0.00    +0.000 A 
ATOM     14  N   UNL     1      45.797   5.595  12.702  0.00  0.00    +0.000 NA
ATOM     15  C   UNL     1      46.090   6.866  12.947  0.00  0.00    +0.000 A 
ATOM     16  N   UNL     1      45.469   7.925  12.438  0.00  0.00    +0.000 NA
ATOM     17  C   UNL     1      44.480   7.635  11.604  0.00  0.00    +0.000 A 
ATOM     18  N   UNL     1      43.799   8.693  11.037  0.00  0.00    +0.000 N 
ATOM     19  N   UNL     1      44.078   6.414  11.296  0.00  0.00    +0.000 NA
ATOM     20  H   UNL     1      43.891   9.524  11.605  0.00  0.00    +0.000 HD
ATOM     21  H   UNL     1      42.867   8.409  10.769  0.00  0.00    +0.000 HD
ENDBRANCH  12  13
ENDBRANCH   1  12
TORSDOF 5
ENDMDL
MODEL 4
REMARK VINA RESULT:    -6.973      1.813      6.133
REMARK INTER + INTRA:          -9.221
REMARK INTER:                  -9.002
REMARK INTRA:                  -0.219
REMARK UNBOUND:                -0.414
REMARK  Name = 
REMARK  5 active torsions:
REMARK  status: ('A' for Active; 'I' for Inactive)
REMARK    1  A    between atoms: N_1  and  C_2
REMARK    2  A    between atoms: C_2  and  C_3
REMARK    3  A    between atoms: C_6  and  C_7
REMARK    4  A    between atoms: C_7  and  O_8
REMARK    5  A    between atoms: O_8  and  C_9
REMARK                            x       y       z     vdW  Elec       q    Type
REMARK                         _______ _______ _______ _____ _____    ______ ____
ROOT
ATOM      1  C   UNL     1      44.236   4.126   9.237  0.00  0.00    +0.000 C 
ENDROOT
BRANCH   1   5
ATOM      2  C   UNL     1      46.241   5.081  12.960  0.00  0.00    +0.000 A 
ATOM      3  C   UNL     1      46.241   5.990  11.894  0.00  0.00    +0.000 A 
ATOM      4  C   UNL     1      45.589   5.686  10.696  0.00  0.00    +0.000 A 
ATOM      5  C   UNL     1      44.916   4.468  10.542  0.00  0.00    +0.000 A 
ATOM      6  C   UNL     1      44.921   3.554  11.604  0.00  0.00    +0.000 A 
ATOM      7  C   UNL     1      45.574   3.859  12.802  0.00  0.00    +0.000 A 
BRANCH   2   8
ATOM      8  C   UNL     1      46.979   5.392  14.238  0.00  0.00    +0.000 C 
BRANCH   8   9
ATOM      9  N   UNL     1      46.739   4.384  15.265  0.00  0.00    +0.000 NA
ATOM     10  H   UNL     1      46.217   3.612  14.855  0.00  0.00    +0.000 HD
ATOM     11  H   UNL     1      46.141   4.788  15.984  0.00  0.00    +0.000 HD
ENDBRANCH   8   9
ENDBRANCH   2   8
ENDBRANCH   1   5
BRANCH   1  12
ATOM     12  O   UNL     1      45.153   4.392   8.180  0.00  0.00    +0.000 OA
BRANCH  12  13
ATOM     13  C   UNL     1      45.860   3.279   7.783  0.00  0.00    +0.000 A 
ATOM     14  N   UNL     1      45.692   2.125   8.425  0.00  0.00    +0.000 NA
ATOM     15  C   UNL     1      46.435   1.138   7.942  0.00  0.00    +0.000 A 
ATOM     16  N   UNL     1      47.285   1.222   6.924  0.00  0.00    +0.000 NA
ATOM     17  C   UNL     1      47.354   2.421   6.362  0.00  0.00    +0.000 A 
ATOM     18  N   UNL     1      48.217   2.572   5.295  0.00  0.00    +0.000 N 
ATOM     19  N   UNL     1      46.685   3.488   6.763  0.00  0.00    +0.000 NA
ATOM     20  H   UNL     1      48.942   1.869   5.320  0.00  0.00    +0.000 HD
ATOM     21  H   UNL     1      48.500   3.537   5.206  0.00  0.00    +0.000 HD
ENDBRANCH  12  13
ENDBRANCH   1  12
TORSDOF 5
ENDMDL
MODEL 5
REMARK VINA RESULT:    -6.580      2.183      5.525
REMARK INTER + INTRA:          -8.725
REMARK INTER:                  -8.360
REMARK INTRA:                  -0.365
REMARK UNBOUND:                -0.414
REMARK  Name = 
REMARK  5 active torsions:
REMARK  status: ('A' for Active; 'I' for Inactive)
REMARK    1  A    between atoms: N_1  and  C_2
REMARK    2  A    between atoms: C_2  and  C_3
REMARK    3  A    between atoms: C_6  and  C_7
REMARK    4  A    between atoms: C_7  and  O_8
REMARK    5  A    between atoms: O_8  and  C_9
REMARK                            x       y       z     vdW  Elec       q    Type
REMARK                         _______ _______ _______ _____ _____    ______ ____
ROOT
ATOM      1  C   UNL     1      43.479   4.542  11.125  0.00  0.00    +0.000 C 
ENDROOT
BRANCH   1   5
ATOM      2  C   UNL     1      47.033   6.042  13.101  0.00  0.00    +0.000 A 
ATOM      3  C   UNL     1      46.530   4.770  13.404  0.00  0.00    +0.000 A 
ATOM      4  C   UNL     1      45.388   4.282  12.762  0.00  0.00    +0.000 A 
ATOM      5  C   UNL     1      44.730   5.055  11.798  0.00  0.00    +0.000 A 
ATOM      6  C   UNL     1      45.227   6.330  11.499  0.00  0.00    +0.000 A 
ATOM      7  C   UNL     1      46.369   6.817  12.142  0.00  0.00    +0.000 A 
BRANCH   2   8
ATOM      8  C   UNL     1      48.241   6.584  13.824  0.00  0.00    +0.000 C 
BRANCH   8   9
ATOM      9  N   UNL     1      49.407   6.662  12.951  0.00  0.00    +0.000 NA
ATOM     10  H   UNL     1      49.768   5.723  12.795  0.00  0.00    +0.000 HD
ATOM     11  H   UNL     1      50.142   7.177  13.434  0.00  0.00    +0.000 HD
ENDBRANCH   8   9
ENDBRANCH   2   8
ENDBRANCH   1   5
BRANCH   1  12
ATOM     12  O   UNL     1      43.625   4.732   9.721  0.00  0.00    +0.000 OA
BRANCH  12  13
ATOM     13  C   UNL     1      44.477   3.820   9.138  0.00  0.00    +0.000 A 
ATOM     14  N   UNL     1      44.396   2.534   9.467  0.00  0.00    +0.000 NA
ATOM     15  C   UNL     1      45.275   1.768   8.833  0.00  0.00    +0.000 A 
ATOM     16  N   UNL     1      46.177   2.179   7.948  0.00  0.00    +0.000 NA
ATOM     17  C   UNL     1      46.150   3.481   7.697  0.00  0.00    +0.000 A 
ATOM     18  N   UNL     1      47.060   3.969   6.782  0.00  0.00    +0.000 N 
ATOM     19  N   UNL     1      45.340   4.349   8.277  0.00  0.00    +0.000 NA
ATOM     20  H   UNL     1      47.856   3.351   6.705  0.00  0.00    +0.000 HD
ATOM     21  H   UNL     1      47.240   4.948   6.952  0.00  0.00    +0.000 HD
ENDBRANCH  12  13
ENDBRANCH   1  12
TORSDOF 5
ENDMDL
MODEL 6
REMARK VINA RESULT:    -6.234      2.260      3.139
REMARK INTER + INTRA:          -8.288
REMARK INTER:                  -7.975
REMARK INTRA:                  -0.313
REMARK UNBOUND:                -0.414
REMARK  Name = 
REMARK  5 active torsions:
REMARK  status: ('A' for Active; 'I' for Inactive)
REMARK    1  A    between atoms: N_1  and  C_2
REMARK    2  A    between atoms: C_2  and  C_3
REMARK    3  A    between atoms: C_6  and  C_7
REMARK    4  A    between atoms: C_7  and  O_8
REMARK    5  A    between atoms: O_8  and  C_9
REMARK                            x       y       z     vdW  Elec       q    Type
REMARK                         _______ _______ _______ _____ _____    ______ ____
ROOT
ATOM      1  C   UNL     1      45.222   4.884  13.201  0.00  0.00    +0.000 C 
ENDROOT
BRANCH   1   5
ATOM      2  C   UNL     1      45.309   3.937   8.971  0.00  0.00    +0.000 A 
ATOM      3  C   UNL     1      44.916   2.975   9.911  0.00  0.00    +0.000 A 
ATOM      4  C   UNL     1      44.881   3.282  11.275  0.00  0.00    +0.000 A 
ATOM      5  C   UNL     1      45.231   4.560  11.725  0.00  0.00    +0.000 A 
ATOM      6  C   UNL     1      45.632   5.521  10.788  0.00  0.00    +0.000 A 
ATOM      7  C   UNL     1      45.667   5.213   9.425  0.00  0.00    +0.000 A 
BRANCH   2   8
ATOM      8  C   UNL     1      45.386   3.594   7.505  0.00  0.00    +0.000 C 
BRANCH   8   9
ATOM      9  N   UNL     1      46.619   4.081   6.896  0.00  0.00    +0.000 NA
ATOM     10  H   UNL     1      46.643   3.794   5.920  0.00  0.00    +0.000 HD
ATOM     11  H   UNL     1      47.409   3.626   7.350  0.00  0.00    +0.000 HD
ENDBRANCH   8   9
ENDBRANCH   2   8
ENDBRANCH   1   5
BRANCH   1  12
ATOM     12  O   UNL     1      46.037   3.924  13.867  0.00  0.00    +0.000 OA
BRANCH  12  13
ATOM     13  C   UNL     1      46.865   4.482  14.816  0.00  0.00    +0.000 A 
ATOM     14  N   UNL     1      47.650   5.505  14.489  0.00  0.00    +0.000 NA
ATOM     15  C   UNL     1      48.395   5.943  15.496  0.00  0.00    +0.000 A 
ATOM     16  N   UNL     1      48.409   5.454  16.732  0.00  0.00    +0.000 NA
ATOM     17  C   UNL     1      47.575   4.443  16.933  0.00  0.00    +0.000 A 
ATOM     18  N   UNL     1      47.539   3.894  18.199  0.00  0.00    +0.000 N 
ATOM     19  N   UNL     1      46.799   3.903  16.010  0.00  0.00    +0.000 NA
ATOM     20  H   UNL     1      48.400   4.079  18.694  0.00  0.00    +0.000 HD
ATOM     21  H   UNL     1      47.217   2.937  18.158  0.00  0.00    +0.000 HD
ENDBRANCH  12  13
ENDBRANCH   1  12
TORSDOF 5
ENDMDL
MODEL 7
REMARK VINA RESULT:    -6.089      3.107      4.784
REMARK INTER + INTRA:          -8.104
REMARK INTER:                  -7.827
REMARK INTRA:                  -0.277
REMARK UNBOUND:                -0.414
REMARK  Name = 
REMARK  5 active torsions:
REMARK  status: ('A' for Active; 'I' for Inactive)
REMARK    1  A    between atoms: N_1  and  C_2
REMARK    2  A    between atoms: C_2  and  C_3
REMARK    3  A    between atoms: C_6  and  C_7
REMARK    4  A    between atoms: C_7  and  O_8
REMARK    5  A    between atoms: O_8  and  C_9
REMARK                            x       y       z     vdW  Elec       q    Type
REMARK                         _______ _______ _______ _____ _____    ______ ____
ROOT
ATOM      1  C   UNL     1      46.753   4.802  14.362  0.00  0.00    +0.000 C 
ENDROOT
BRANCH   1   5
ATOM      2  C   UNL     1      44.970   4.386  10.432  0.00  0.00    +0.000 A 
ATOM      3  C   UNL     1      44.968   3.314  11.335  0.00  0.00    +0.000 A 
ATOM      4  C   UNL     1      45.536   3.450  12.605  0.00  0.00    +0.000 A 
ATOM      5  C   UNL     1      46.112   4.663  13.001  0.00  0.00    +0.000 A 
ATOM      6  C   UNL     1      46.122   5.733  12.097  0.00  0.00    +0.000 A 
ATOM      7  C   UNL     1      45.554   5.597  10.827  0.00  0.00    +0.000 A 
BRANCH   2   8
ATOM      8  C   UNL     1      44.394   4.227   9.048  0.00  0.00    +0.000 C 
BRANCH   8   9
ATOM      9  N   UNL     1      45.378   4.520   8.012  0.00  0.00    +0.000 NA
ATOM     10  H   UNL     1      46.283   4.155   8.301  0.00  0.00    +0.000 HD
ATOM     11  H   UNL     1      45.484   5.530   7.940  0.00  0.00    +0.000 HD
ENDBRANCH   8   9
ENDBRANCH   2   8
ENDBRANCH   1   5
BRANCH   1  12
ATOM     12  O   UNL     1      47.216   3.516  14.764  0.00  0.00    +0.000 OA
BRANCH  12  13
ATOM     13  C   UNL     1      47.756   3.507  16.030  0.00  0.00    +0.000 A 
ATOM     14  N   UNL     1      48.789   2.714  16.303  0.00  0.00    +0.000 NA
ATOM     15  C   UNL     1      49.207   2.802  17.559  0.00  0.00    +0.000 A 
ATOM     16  N   UNL     1      48.692   3.582  18.504  0.00  0.00    +0.000 NA
ATOM     17  C   UNL     1      47.674   4.332  18.104  0.00  0.00    +0.000 A 
ATOM     18  N   UNL     1      47.098   5.168  19.039  0.00  0.00    +0.000 N 
ATOM     19  N   UNL     1      47.151   4.319  16.890  0.00  0.00    +0.000 NA
ATOM     20  H   UNL     1      47.275   4.833  19.976  0.00  0.00    +0.000 HD
ATOM     21  H   UNL     1      46.141   5.372  18.786  0.00  0.00    +0.000 HD
ENDBRANCH  12  13
ENDBRANCH   1  12
TORSDOF 5
ENDMDL
MODEL 8
REMARK VINA RESULT:    -6.039      3.143      4.873
REMARK INTER + INTRA:          -8.042
REMARK INTER:                  -7.782
REMARK INTRA:                  -0.260
REMARK UNBOUND:                -0.414
REMARK  Name = 
REMARK  5 active torsions:
REMARK  status: ('A' for Active; 'I' for Inactive)
REMARK    1  A    between atoms: N_1  and  C_2
REMARK    2  A    between atoms: C_2  and  C_3
REMARK    3  A    between atoms: C_6  and  C_7
REMARK    4  A    between atoms: C_7  and  O_8
REMARK    5  A    between atoms: O_8  and  C_9
REMARK                            x       y       z     vdW  Elec       q    Type
REMARK                         _______ _______ _______ _____ _____    ______ ____
ROOT
ATOM      1  C   UNL     1      46.714   4.518  14.393  0.00  0.00    +0.000 C 
ENDROOT
BRANCH   1   5
ATOM      2  C   UNL     1      44.943   4.422  10.438  0.00  0.00    +0.000 A 
ATOM      3  C   UNL     1      45.512   5.601  10.938  0.00  0.00    +0.000 A 
ATOM      4  C   UNL     1      46.090   5.631  12.210  0.00  0.00    +0.000 A 
ATOM      5  C   UNL     1      46.117   4.480  13.006  0.00  0.00    +0.000 A 
ATOM      6  C   UNL     1      45.541   3.302  12.511  0.00  0.00    +0.000 A 
ATOM      7  C   UNL     1      44.963   3.273  11.239  0.00  0.00    +0.000 A 
BRANCH   2   8
ATOM      8  C   UNL     1      44.283   4.401   9.082  0.00  0.00    +0.000 C 
BRANCH   8   9
ATOM      9  N   UNL     1      45.262   4.413   8.001  0.00  0.00    +0.000 NA
ATOM     10  H   UNL     1      46.176   4.648   8.383  0.00  0.00    +0.000 HD
ATOM     11  H   UNL     1      45.021   5.159   7.350  0.00  0.00    +0.000 HD
ENDBRANCH   8   9
ENDBRANCH   2   8
ENDBRANCH   1   5
BRANCH   1  12
ATOM     12  O   UNL     1      47.282   3.240  14.663  0.00  0.00    +0.000 OA
BRANCH  12  13
ATOM     13  C   UNL     1      47.909   3.175  15.888  0.00  0.00    +0.000 A 
ATOM     14  N   UNL     1      47.464   3.915  16.899  0.00  0.00    +0.000 NA
ATOM     15  C   UNL     1      48.161   3.757  18.018  0.00  0.00    +0.000 A 
ATOM     16  N   UNL     1      49.211   2.958  18.181  0.00  0.00    +0.000 NA
ATOM     17  C   UNL     1      49.549   2.266  17.102  0.00  0.00    +0.000 A 
ATOM     18  N   UNL     1      50.629   1.414  17.209  0.00  0.00    +0.000 N 
ATOM     19  N   UNL     1      48.951   2.351  15.927  0.00  0.00    +0.000 NA
ATOM     20  H   UNL     1      51.238   1.701  17.963  0.00  0.00    +0.000 HD
ATOM     21  H   UNL     1      51.046   1.258  16.302  0.00  0.00    +0.000 HD
ENDBRANCH  12  13
ENDBRANCH   1  12
TORSDOF 5
ENDMDL
MODEL 9
REMARK VINA RESULT:    -5.834      3.894      7.854
REMARK INTER + INTRA:          -7.783
REMARK INTER:                  -7.495
REMARK INTRA:                  -0.288
REMARK UNBOUND:                -0.414
REMARK  Name = 
REMARK  5 active torsions:
REMARK  status: ('A' for Active; 'I' for Inactive)
REMARK    1  A    between atoms: N_1  and  C_2
REMARK    2  A    between atoms: C_2  and  C_3
REMARK    3  A    between atoms: C_6  and  C_7
REMARK    4  A    between atoms: C_7  and  O_8
REMARK    5  A    between atoms: O_8  and  C_9
REMARK                            x       y       z     vdW  Elec       q    Type
REMARK                         _______ _______ _______ _____ _____    ______ ____
ROOT
ATOM      1  C   UNL     1      47.019   4.121  14.249  0.00  0.00    +0.000 C 
ENDROOT
BRANCH   1   5
ATOM      2  C   UNL     1      48.486   4.600  18.300  0.00  0.00    +0.000 A 
ATOM      3  C   UNL     1      47.905   3.393  17.888  0.00  0.00    +0.000 A 
ATOM      4  C   UNL     1      47.439   3.235  16.580  0.00  0.00    +0.000 A 
ATOM      5  C   UNL     1      47.550   4.280  15.655  0.00  0.00    +0.000 A 
ATOM      6  C   UNL     1      48.123   5.490  16.067  0.00  0.00    +0.000 A 
ATOM      7  C   UNL     1      48.589   5.647  17.375  0.00  0.00    +0.000 A 
BRANCH   2   8
ATOM      8  C   UNL     1      48.951   4.783  19.723  0.00  0.00    +0.000 C 
BRANCH   8   9
ATOM      9  N   UNL     1      48.424   3.749  20.606  0.00  0.00    +0.000 NA
ATOM     10  H   UNL     1      47.594   4.104  21.074  0.00  0.00    +0.000 HD
ATOM     11  H   UNL     1      49.110   3.562  21.335  0.00  0.00    +0.000 HD
ENDBRANCH   8   9
ENDBRANCH   2   8
ENDBRANCH   1   5
BRANCH   1  12
ATOM     12  O   UNL     1      46.012   5.108  14.045  0.00  0.00    +0.000 OA
BRANCH  12  13
ATOM     13  C   UNL     1      44.993   4.679  13.224  0.00  0.00    +0.000 A 
ATOM     14  N   UNL     1      44.967   3.416  12.806  0.00  0.00    +0.000 NA
ATOM     15  C   UNL     1      43.933   3.140  12.021  0.00  0.00    +0.000 A 
ATOM     16  N   UNL     1      42.985   3.991  11.645  0.00  0.00    +0.000 NA
ATOM     17  C   UNL     1      43.118   5.216  12.136  0.00  0.00    +0.000 A 
ATOM     18  N   UNL     1      42.160   6.146  11.786  0.00  0.00    +0.000 N 
ATOM     19  N   UNL     1      44.111   5.621  12.909  0.00  0.00    +0.000 NA
ATOM     20  H   UNL     1      41.704   5.883  10.923  0.00  0.00    +0.000 HD
ATOM     21  H   UNL     1      42.537   7.081  11.852  0.00  0.00    +0.000 HD
ENDBRANCH  12  13
ENDBRANCH   1  12
TORSDOF 5
ENDMDL
