MODEL 1
REMARK VINA RESULT:    -8.600      0.000      0.000
REMARK INTER + INTRA:         -12.000
REMARK INTER:                 -11.113
REMARK INTRA:                  -0.887
REMARK UNBOUND:                -0.887
REMARK  Name = 
REMARK  5 active torsions:
REMARK  status: ('A' for Active; 'I' for Inactive)
REMARK    1  A    between atoms: C_2  and  C_4
REMARK    2  A    between atoms: C_7  and  O_8
REMARK    3  A    between atoms: O_8  and  C_9
REMARK    4  A    between atoms: C_9  and  C_10
REMARK    5  A    between atoms: C_14  and  C_15
REMARK                            x       y       z     vdW  Elec       q    Type
REMARK                         _______ _______ _______ _____ _____    ______ ____
ROOT
ATOM      1  C   UNL     1      43.926   5.539  10.842  0.00  0.00    +0.000 C 
ENDROOT
BRANCH   1   2
ATOM      2  C   UNL     1      44.967   5.397  11.916  0.00  0.00    +0.000 A 
ATOM      3  C   UNL     1      44.789   4.515  12.975  0.00  0.00    +0.000 A 
ATOM      4  N   UNL     1      45.709   4.291  13.938  0.00  0.00    +0.000 NA
ATOM      5  C   UNL     1      46.875   4.971  13.839  0.00  0.00    +0.000 A 
ATOM      6  C   UNL     1      47.173   5.867  12.818  0.00  0.00    +0.000 A 
ATOM      7  C   UNL     1      46.188   6.070  11.846  0.00  0.00    +0.000 A 
BRANCH   6   8
ATOM      8  C   UNL     1      48.511   6.567  12.748  0.00  0.00    +0.000 C 
ATOM      9  C   UNL     1      48.940   7.127  14.113  0.00  0.00    +0.000 C 
ATOM     10  C   UNL     1      50.218   7.944  13.982  0.00  0.00    +0.000 C 
ATOM     11  O   UNL     1      50.061   8.977  13.011  0.00  0.00    +0.000 OA
ATOM     12  C   UNL     1      49.806   8.457  11.708  0.00  0.00    +0.000 C 
ATOM     13  C   UNL     1      48.499   7.681  11.687  0.00  0.00    +0.000 C 
ENDBRANCH   6   8
ENDBRANCH   1   2
BRANCH   1  14
ATOM     14  O   UNL     1      43.624   4.264  10.268  0.00  0.00    +0.000 OA
BRANCH  14  18
ATOM     15  C   UNL     1      46.424   2.474   7.750  0.00  0.00    +0.000 A 
ATOM     16  C   UNL     1      46.247   3.859   7.678  0.00  0.00    +0.000 A 
ATOM     17  C   UNL     1      45.313   4.494   8.499  0.00  0.00    +0.000 A 
ATOM     18  C   UNL     1      44.549   3.749   9.400  0.00  0.00    +0.000 A 
ATOM     19  C   UNL     1      44.709   2.361   9.454  0.00  0.00    +0.000 A 
ATOM     20  C   UNL     1      45.638   1.721   8.628  0.00  0.00    +0.000 A 
BRANCH  15  22
ATOM     21  N   UNL     1      48.486   2.527   6.467  0.00  0.00    +0.000 N 
ATOM     22  C   UNL     1      47.421   1.783   6.896  0.00  0.00    +0.000 C 
ATOM     23  O   UNL     1      47.320   0.595   6.617  0.00  0.00    +0.000 OA
ATOM     24  H   UNL     1      49.214   2.024   5.973  0.00  0.00    +0.000 HD
ATOM     25  H   UNL     1      48.732   3.410   6.890  0.00  0.00    +0.000 HD
ENDBRANCH  15  22
ENDBRANCH  14  18
ENDBRANCH   1  14
TORSDOF 5
ENDMDL
MODEL 2
REMARK VINA RESULT:    -8.435      1.192      1.776
REMARK INTER + INTRA:         -11.788
REMARK INTER:                 -10.899
REMARK INTRA:                  -0.889
REMARK UNBOUND:                -0.887
REMARK  Name = 
REMARK  5 active torsions:
REMARK  status: ('A' for Active; 'I' for Inactive)
REMARK    1  A    between atoms: C_2  and  C_4
REMARK    2  A    between atoms: C_7  and  O_8
REMARK    3  A    between atoms: O_8  and  C_9
REMARK    4  A    between atoms: C_9  and  C_10
REMARK    5  A    between atoms: C_14  and  C_15
REMARK                            x       y       z     vdW  Elec       q    Type
REMARK                         _______ _______ _______ _____ _____    ______ ____
ROOT
ATOM      1  C   UNL     1      43.375   4.460  11.209  0.00  0.00    +0.000 C 
ENDROOT
BRANCH   1   2
ATOM      2  C   UNL     1      44.561   4.737  12.089  0.00  0.00    +0.000 A 
ATOM      3  C   UNL     1      45.137   3.731  12.853  0.00  0.00    +0.000 A 
ATOM      4  N   UNL     1      46.241   3.895  13.615  0.00  0.00    +0.000 NA
ATOM      5  C   UNL     1      46.811   5.122  13.608  0.00  0.00    +0.000 A 
ATOM      6  C   UNL     1      46.334   6.201  12.872  0.00  0.00    +0.000 A 
ATOM      7  C   UNL     1      45.187   5.985  12.102  0.00  0.00    +0.000 A 
BRANCH   6   8
ATOM      8  C   UNL     1      47.041   7.538  12.881  0.00  0.00    +0.000 C 
ATOM      9  C   UNL     1      46.125   8.677  12.408  0.00  0.00    +0.000 C 
ATOM     10  C   UNL     1      46.902   9.981  12.295  0.00  0.00    +0.000 C 
ATOM     11  O   UNL     1      48.035   9.822  11.443  0.00  0.00    +0.000 OA
ATOM     12  C   UNL     1      48.964   8.869  11.954  0.00  0.00    +0.000 C 
ATOM     13  C   UNL     1      48.326   7.491  12.038  0.00  0.00    +0.000 C 
ENDBRANCH   6   8
ENDBRANCH   1   2
BRANCH   1  14
ATOM     14  O   UNL     1      43.691   4.742   9.842  0.00  0.00    +0.000 OA
BRANCH  14  18
ATOM     15  C   UNL     1      46.351   2.276   7.788  0.00  0.00    +0.000 A 
ATOM     16  C   UNL     1      45.429   1.688   8.659  0.00  0.00    +0.000 A 
ATOM     17  C   UNL     1      44.528   2.482   9.371  0.00  0.00    +0.000 A 
ATOM     18  C   UNL     1      44.540   3.870   9.217  0.00  0.00    +0.000 A 
ATOM     19  C   UNL     1      45.478   4.458   8.364  0.00  0.00    +0.000 A 
ATOM     20  C   UNL     1      46.387   3.668   7.655  0.00  0.00    +0.000 A 
BRANCH  15  22
ATOM     21  N   UNL     1      48.417   2.086   6.525  0.00  0.00    +0.000 N 
ATOM     22  C   UNL     1      47.308   1.450   7.011  0.00  0.00    +0.000 C 
ATOM     23  O   UNL     1      47.137   0.249   6.842  0.00  0.00    +0.000 OA
ATOM     24  H   UNL     1      49.116   1.497   6.087  0.00  0.00    +0.000 HD
ATOM     25  H   UNL     1      48.714   2.989   6.867  0.00  0.00    +0.000 HD
ENDBRANCH  15  22
ENDBRANCH  14  18
ENDBRANCH   1  14
TORSDOF 5
ENDMDL
MODEL 3
REMARK VINA RESULT:    -8.127      1.929      2.751
REMARK INTER + INTRA:         -11.389
REMARK INTER:                 -10.550
REMARK INTRA:                  -0.839
REMARK UNBOUND:                -0.887
REMARK  Name = 
REMARK  5 active torsions:
REMARK  status: ('A' for Active; 'I' for Inactive)
REMARK    1  A    between atoms: C_2  and  C_4
REMARK    2  A    between atoms: C_7  and  O_8
REMARK    3  A    between atoms: O_8  and  C_9
REMARK    4  A    between atoms: C_9  and  C_10
REMARK    5  A    between atoms: C_14  and  C_15
REMARK                            x       y       z     vdW  Elec       q    Type
REMARK                         _______ _______ _______ _____ _____    ______ ____
ROOT
ATOM      1  C   UNL     1      43.684   4.513  11.438  0.00  0.00    +0.000 C 
ENDROOT
BRANCH   1   2
ATOM      2  C   UNL     1      44.790   5.397  11.942  0.00  0.00    +0.000 A 
ATOM      3  C   UNL     1      44.877   6.729  11.554  0.00  0.00    +0.000 A 
ATOM      4  N   UNL     1      45.805   7.595  12.018  0.00  0.00    +0.000 NA
ATOM      5  C   UNL     1      46.687   7.116  12.925  0.00  0.00    +0.000 A 
ATOM      6  C   UNL     1      46.688   5.808  13.400  0.00  0.00    +0.000 A 
ATOM      7  C   UNL     1      45.712   4.948  12.888  0.00  0.00    +0.000 A 
BRANCH   6   8
ATOM      8  C   UNL     1      47.682   5.349  14.443  0.00  0.00    +0.000 C 
ATOM      9  C   UNL     1      47.046   4.387  15.460  0.00  0.00    +0.000 C 
ATOM     10  C   UNL     1      48.028   4.053  16.573  0.00  0.00    +0.000 C 
ATOM     11  O   UNL     1      48.509   5.243  17.197  0.00  0.00    +0.000 OA
ATOM     12  C   UNL     1      49.229   6.074  16.290  0.00  0.00    +0.000 C 
ATOM     13  C   UNL     1      48.325   6.546  15.163  0.00  0.00    +0.000 C 
ENDBRANCH   6   8
ENDBRANCH   1   2
BRANCH   1  14
ATOM     14  O   UNL     1      43.613   4.569  10.009  0.00  0.00    +0.000 OA
BRANCH  14  18
ATOM     15  C   UNL     1      46.367   2.397   7.756  0.00  0.00    +0.000 A 
ATOM     16  C   UNL     1      45.593   1.720   8.702  0.00  0.00    +0.000 A 
ATOM     17  C   UNL     1      44.666   2.414   9.482  0.00  0.00    +0.000 A 
ATOM     18  C   UNL     1      44.504   3.792   9.321  0.00  0.00    +0.000 A 
ATOM     19  C   UNL     1      45.297   4.473   8.392  0.00  0.00    +0.000 A 
ATOM     20  C   UNL     1      46.231   3.782   7.614  0.00  0.00    +0.000 A 
BRANCH  15  22
ATOM     21  N   UNL     1      48.444   2.384   6.497  0.00  0.00    +0.000 N 
ATOM     22  C   UNL     1      47.348   1.676   6.908  0.00  0.00    +0.000 C 
ATOM     23  O   UNL     1      47.206   0.495   6.617  0.00  0.00    +0.000 OA
ATOM     24  H   UNL     1      49.159   1.859   6.006  0.00  0.00    +0.000 HD
ATOM     25  H   UNL     1      48.717   3.254   6.930  0.00  0.00    +0.000 HD
ENDBRANCH  15  22
ENDBRANCH  14  18
ENDBRANCH   1  14
TORSDOF 5
ENDMDL
MODEL 4
REMARK VINA RESULT:    -7.506      2.199      6.410
REMARK INTER + INTRA:         -10.587
REMARK INTER:                  -9.697
REMARK INTRA:                  -0.890
REMARK UNBOUND:                -0.887
REMARK  Name = 
REMARK  5 active torsions:
REMARK  status: ('A' for Active; 'I' for Inactive)
REMARK    1  A    between atoms: C_2  and  C_4
REMARK    2  A    between atoms: C_7  and  O_8
REMARK    3  A    between atoms: O_8  and  C_9
REMARK    4  A    between atoms: C_9  and  C_10
REMARK    5  A    between atoms: C_14  and  C_15
REMARK                            x       y       z     vdW  Elec       q    Type
REMARK                         _______ _______ _______ _____ _____    ______ ____
ROOT
ATOM      1  C   UNL     1      43.196   6.043  11.279  0.00  0.00    +0.000 C 
ENDROOT
BRANCH   1   2
ATOM      2  C   UNL     1      43.565   4.640  10.886  0.00  0.00    +0.000 A 
ATOM      3  C   UNL     1      43.095   3.548  11.604  0.00  0.00    +0.000 A 
ATOM      4  N   UNL     1      43.334   2.260  11.269  0.00  0.00    +0.000 NA
ATOM      5  C   UNL     1      44.071   2.046  10.155  0.00  0.00    +0.000 A 
ATOM      6  C   UNL     1      44.583   3.058   9.349  0.00  0.00    +0.000 A 
ATOM      7  C   UNL     1      44.312   4.374   9.737  0.00  0.00    +0.000 A 
BRANCH   6   8
ATOM      8  C   UNL     1      45.369   2.748   8.095  0.00  0.00    +0.000 C 
ATOM      9  C   UNL     1      46.210   1.471   8.245  0.00  0.00    +0.000 C 
ATOM     10  C   UNL     1      47.094   1.262   7.024  0.00  0.00    +0.000 C 
ATOM     11  O   UNL     1      47.909   2.409   6.788  0.00  0.00    +0.000 OA
ATOM     12  C   UNL     1      47.134   3.571   6.502  0.00  0.00    +0.000 C 
ATOM     13  C   UNL     1      46.258   3.936   7.690  0.00  0.00    +0.000 C 
ENDBRANCH   6   8
ENDBRANCH   1   2
BRANCH   1  14
ATOM     14  O   UNL     1      43.688   6.340  12.589  0.00  0.00    +0.000 OA
BRANCH  14  18
ATOM     15  C   UNL     1      47.794   6.871  13.085  0.00  0.00    +0.000 A 
ATOM     16  C   UNL     1      47.062   7.870  12.435  0.00  0.00    +0.000 A 
ATOM     17  C   UNL     1      45.687   7.725  12.244  0.00  0.00    +0.000 A 
ATOM     18  C   UNL     1      45.031   6.579  12.699  0.00  0.00    +0.000 A 
ATOM     19  C   UNL     1      45.767   5.569  13.326  0.00  0.00    +0.000 A 
ATOM     20  C   UNL     1      47.146   5.708  13.514  0.00  0.00    +0.000 A 
BRANCH  15  22
ATOM     21  N   UNL     1      50.028   7.242  12.208  0.00  0.00    +0.000 N 
ATOM     22  C   UNL     1      49.253   7.012  13.311  0.00  0.00    +0.000 C 
ATOM     23  O   UNL     1      49.741   6.962  14.433  0.00  0.00    +0.000 OA
ATOM     24  H   UNL     1      51.006   7.441  12.380  0.00  0.00    +0.000 HD
ATOM     25  H   UNL     1      49.636   7.549  11.328  0.00  0.00    +0.000 HD
ENDBRANCH  15  22
ENDBRANCH  14  18
ENDBRANCH   1  14
TORSDOF 5
ENDMDL
MODEL 5
REMARK VINA RESULT:    -7.293      2.372      7.222
REMARK INTER + INTRA:         -10.312
REMARK INTER:                  -9.877
REMARK INTRA:                  -0.434
REMARK UNBOUND:                -0.887
REMARK  Name = 
REMARK  5 active torsions:
REMARK  status: ('A' for Active; 'I' for Inactive)
REMARK    1  A    between atoms: C_2  and  C_4
REMARK    2  A    between atoms: C_7  and  O_8
REMARK    3  A    between atoms: O_8  and  C_9
REMARK    4  A    between atoms: C_9  and  C_10
REMARK    5  A    between atoms: C_14  and  C_15
REMARK                            x       y       z     vdW  Elec       q    Type
REMARK                         _______ _______ _______ _____ _____    ______ ____
ROOT
ATOM      1  C   UNL     1      45.282   6.508  11.068  0.00  0.00    +0.000 C 
ENDROOT
BRANCH   1   2
ATOM      2  C   UNL     1      44.914   5.125  10.613  0.00  0.00    +0.000 A 
ATOM      3  C   UNL     1      43.879   4.422  11.220  0.00  0.00    +0.000 A 
ATOM      4  N   UNL     1      43.454   3.203  10.821  0.00  0.00    +0.000 NA
ATOM      5  C   UNL     1      44.081   2.657   9.754  0.00  0.00    +0.000 A 
ATOM      6  C   UNL     1      45.117   3.271   9.057  0.00  0.00    +0.000 A 
ATOM      7  C   UNL     1      45.526   4.529   9.509  0.00  0.00    +0.000 A 
BRANCH   6   8
ATOM      8  C   UNL     1      45.751   2.618   7.849  0.00  0.00    +0.000 C 
ATOM      9  C   UNL     1      46.312   1.225   8.175  0.00  0.00    +0.000 C 
ATOM     10  C   UNL     1      47.064   0.655   6.981  0.00  0.00    +0.000 C 
ATOM     11  O   UNL     1      48.088   1.552   6.553  0.00  0.00    +0.000 OA
ATOM     12  C   UNL     1      47.560   2.800   6.109  0.00  0.00    +0.000 C 
ATOM     13  C   UNL     1      46.846   3.514   7.247  0.00  0.00    +0.000 C 
ENDBRANCH   6   8
ENDBRANCH   1   2
BRANCH   1  14
ATOM     14  O   UNL     1      46.682   6.582  11.359  0.00  0.00    +0.000 OA
BRANCH  14  18
ATOM     15  C   UNL     1      48.023   5.686  15.203  0.00  0.00    +0.000 A 
ATOM     16  C   UNL     1      47.119   4.814  14.589  0.00  0.00    +0.000 A 
ATOM     17  C   UNL     1      46.641   5.085  13.306  0.00  0.00    +0.000 A 
ATOM     18  C   UNL     1      47.063   6.228  12.625  0.00  0.00    +0.000 A 
ATOM     19  C   UNL     1      47.948   7.112  13.249  0.00  0.00    +0.000 A 
ATOM     20  C   UNL     1      48.424   6.849  14.537  0.00  0.00    +0.000 A 
BRANCH  15  22
ATOM     21  N   UNL     1      47.898   5.993  17.609  0.00  0.00    +0.000 N 
ATOM     22  C   UNL     1      48.554   5.410  16.561  0.00  0.00    +0.000 C 
ATOM     23  O   UNL     1      49.511   4.667  16.742  0.00  0.00    +0.000 OA
ATOM     24  H   UNL     1      48.200   5.719  18.537  0.00  0.00    +0.000 HD
ATOM     25  H   UNL     1      46.970   6.382  17.515  0.00  0.00    +0.000 HD
ENDBRANCH  15  22
ENDBRANCH  14  18
ENDBRANCH   1  14
TORSDOF 5
ENDMDL
MODEL 6
REMARK VINA RESULT:    -6.708      2.824      7.571
REMARK INTER + INTRA:          -9.555
REMARK INTER:                  -8.882
REMARK INTRA:                  -0.674
REMARK UNBOUND:                -0.887
REMARK  Name = 
REMARK  5 active torsions:
REMARK  status: ('A' for Active; 'I' for Inactive)
REMARK    1  A    between atoms: C_2  and  C_4
REMARK    2  A    between atoms: C_7  and  O_8
REMARK    3  A    between atoms: O_8  and  C_9
REMARK    4  A    between atoms: C_9  and  C_10
REMARK    5  A    between atoms: C_14  and  C_15
REMARK                            x       y       z     vdW  Elec       q    Type
REMARK                         _______ _______ _______ _____ _____    ______ ____
ROOT
ATOM      1  C   UNL     1      46.190   6.852  12.854  0.00  0.00    +0.000 C 
ENDROOT
BRANCH   1   2
ATOM      2  C   UNL     1      45.189   5.949  12.191  0.00  0.00    +0.000 A 
ATOM      3  C   UNL     1      43.877   5.878  12.643  0.00  0.00    +0.000 A 
ATOM      4  N   UNL     1      42.911   5.138  12.056  0.00  0.00    +0.000 NA
ATOM      5  C   UNL     1      43.264   4.440  10.952  0.00  0.00    +0.000 A 
ATOM      6  C   UNL     1      44.540   4.444  10.398  0.00  0.00    +0.000 A 
ATOM      7  C   UNL     1      45.507   5.221  11.043  0.00  0.00    +0.000 A 
BRANCH   6   8
ATOM      8  C   UNL     1      44.857   3.668   9.140  0.00  0.00    +0.000 C 
ATOM      9  C   UNL     1      45.324   2.237   9.449  0.00  0.00    +0.000 C 
ATOM     10  C   UNL     1      45.768   1.529   8.177  0.00  0.00    +0.000 C 
ATOM     11  O   UNL     1      46.776   2.282   7.504  0.00  0.00    +0.000 OA
ATOM     12  C   UNL     1      46.303   3.560   7.083  0.00  0.00    +0.000 C 
ATOM     13  C   UNL     1      45.901   4.404   8.283  0.00  0.00    +0.000 C 
ENDBRANCH   6   8
ENDBRANCH   1   2
BRANCH   1  14
ATOM     14  O   UNL     1      47.425   6.159  13.063  0.00  0.00    +0.000 OA
BRANCH  14  18
ATOM     15  C   UNL     1      48.204   5.043  17.004  0.00  0.00    +0.000 A 
ATOM     16  C   UNL     1      48.821   6.191  16.498  0.00  0.00    +0.000 A 
ATOM     17  C   UNL     1      48.592   6.593  15.180  0.00  0.00    +0.000 A 
ATOM     18  C   UNL     1      47.742   5.850  14.357  0.00  0.00    +0.000 A 
ATOM     19  C   UNL     1      47.145   4.688  14.856  0.00  0.00    +0.000 A 
ATOM     20  C   UNL     1      47.378   4.279  16.173  0.00  0.00    +0.000 A 
BRANCH  15  22
ATOM     21  N   UNL     1      47.429   4.891  19.300  0.00  0.00    +0.000 N 
ATOM     22  C   UNL     1      48.423   4.608  18.405  0.00  0.00    +0.000 C 
ATOM     23  O   UNL     1      49.427   3.992  18.741  0.00  0.00    +0.000 OA
ATOM     24  H   UNL     1      47.537   4.501  20.229  0.00  0.00    +0.000 HD
ATOM     25  H   UNL     1      46.497   5.150  19.008  0.00  0.00    +0.000 HD
ENDBRANCH  15  22
ENDBRANCH  14  18
ENDBRANCH   1  14
TORSDOF 5
ENDMDL
MODEL 7
REMARK VINA RESULT:    -6.261      2.498      6.809
REMARK INTER + INTRA:          -8.978
REMARK INTER:                  -8.219
REMARK INTRA:                  -0.759
REMARK UNBOUND:                -0.887
REMARK  Name = 
REMARK  5 active torsions:
REMARK  status: ('A' for Active; 'I' for Inactive)
REMARK    1  A    between atoms: C_2  and  C_4
REMARK    2  A    between atoms: C_7  and  O_8
REMARK    3  A    between atoms: O_8  and  C_9
REMARK    4  A    between atoms: C_9  and  C_10
REMARK    5  A    between atoms: C_14  and  C_15
REMARK                            x       y       z     vdW  Elec       q    Type
REMARK                         _______ _______ _______ _____ _____    ______ ____
ROOT
ATOM      1  C   UNL     1      46.047   6.569  13.184  0.00  0.00    +0.000 C 
ENDROOT
BRANCH   1   2
ATOM      2  C   UNL     1      45.034   5.765  12.420  0.00  0.00    +0.000 A 
ATOM      3  C   UNL     1      43.695   5.758  12.794  0.00  0.00    +0.000 A 
ATOM      4  N   UNL     1      42.722   5.110  12.116  0.00  0.00    +0.000 NA
ATOM      5  C   UNL     1      43.096   4.442  11.000  0.00  0.00    +0.000 A 
ATOM      6  C   UNL     1      44.400   4.391  10.520  0.00  0.00    +0.000 A 
ATOM      7  C   UNL     1      45.374   5.073  11.257  0.00  0.00    +0.000 A 
BRANCH   6   8
ATOM      8  C   UNL     1      44.743   3.656   9.244  0.00  0.00    +0.000 C 
ATOM      9  C   UNL     1      45.246   2.230   9.519  0.00  0.00    +0.000 C 
ATOM     10  C   UNL     1      45.714   1.566   8.232  0.00  0.00    +0.000 C 
ATOM     11  O   UNL     1      46.705   2.362   7.584  0.00  0.00    +0.000 OA
ATOM     12  C   UNL     1      46.201   3.637   7.193  0.00  0.00    +0.000 C 
ATOM     13  C   UNL     1      45.772   4.439   8.412  0.00  0.00    +0.000 C 
ENDBRANCH   6   8
ENDBRANCH   1   2
BRANCH   1  14
ATOM     14  O   UNL     1      46.070   7.920  12.712  0.00  0.00    +0.000 OA
BRANCH  14  18
ATOM     15  C   UNL     1      49.850   9.144  11.449  0.00  0.00    +0.000 A 
ATOM     16  C   UNL     1      48.862  10.114  11.644  0.00  0.00    +0.000 A 
ATOM     17  C   UNL     1      47.582   9.742  12.059  0.00  0.00    +0.000 A 
ATOM     18  C   UNL     1      47.279   8.398  12.282  0.00  0.00    +0.000 A 
ATOM     19  C   UNL     1      48.260   7.426  12.063  0.00  0.00    +0.000 A 
ATOM     20  C   UNL     1      49.541   7.794  11.640  0.00  0.00    +0.000 A 
BRANCH  15  22
ATOM     21  N   UNL     1      52.026   8.507  10.578  0.00  0.00    +0.000 N 
ATOM     22  C   UNL     1      51.221   9.519  11.022  0.00  0.00    +0.000 C 
ATOM     23  O   UNL     1      51.605  10.682  11.030  0.00  0.00    +0.000 OA
ATOM     24  H   UNL     1      52.922   8.782  10.192  0.00  0.00    +0.000 HD
ATOM     25  H   UNL     1      51.660   7.604  10.312  0.00  0.00    +0.000 HD
ENDBRANCH  15  22
ENDBRANCH  14  18
ENDBRANCH   1  14
TORSDOF 5
ENDMDL
MODEL 8
REMARK VINA RESULT:    -6.249      3.262      5.203
REMARK INTER + INTRA:          -8.963
REMARK INTER:                  -8.204
REMARK INTRA:                  -0.759
REMARK UNBOUND:                -0.887
REMARK  Name = 
REMARK  5 active torsions:
REMARK  status: ('A' for Active; 'I' for Inactive)
REMARK    1  A    between atoms: C_2  and  C_4
REMARK    2  A    between atoms: C_7  and  O_8
REMARK    3  A    between atoms: O_8  and  C_9
REMARK    4  A    between atoms: C_9  and  C_10
REMARK    5  A    between atoms: C_14  and  C_15
REMARK                            x       y       z     vdW  Elec       q    Type
REMARK                         _______ _______ _______ _____ _____    ______ ____
ROOT
ATOM      1  C   UNL     1      47.873   7.681  12.200  0.00  0.00    +0.000 C 
ENDROOT
BRANCH   1   2
ATOM      2  C   UNL     1      48.716   7.399  13.411  0.00  0.00    +0.000 A 
ATOM      3  C   UNL     1      49.953   8.009  13.581  0.00  0.00    +0.000 A 
ATOM      4  N   UNL     1      50.733   7.851  14.674  0.00  0.00    +0.000 NA
ATOM      5  C   UNL     1      50.254   7.053  15.655  0.00  0.00    +0.000 A 
ATOM      6  C   UNL     1      49.025   6.402  15.604  0.00  0.00    +0.000 A 
ATOM      7  C   UNL     1      48.255   6.593  14.453  0.00  0.00    +0.000 A 
BRANCH   6   8
ATOM      8  C   UNL     1      48.533   5.552  16.754  0.00  0.00    +0.000 C 
ATOM      9  C   UNL     1      49.692   5.010  17.606  0.00  0.00    +0.000 C 
ATOM     10  C   UNL     1      49.177   4.049  18.667  0.00  0.00    +0.000 C 
ATOM     11  O   UNL     1      48.419   2.997  18.071  0.00  0.00    +0.000 OA
ATOM     12  C   UNL     1      47.258   3.482  17.401  0.00  0.00    +0.000 C 
ATOM     13  C   UNL     1      47.647   4.400  16.253  0.00  0.00    +0.000 C 
ENDBRANCH   6   8
ENDBRANCH   1   2
BRANCH   1  14
ATOM     14  O   UNL     1      46.484   7.535  12.513  0.00  0.00    +0.000 OA
BRANCH  14  18
ATOM     15  C   UNL     1      44.566   4.037  11.302  0.00  0.00    +0.000 A 
ATOM     16  C   UNL     1      45.198   4.824  10.335  0.00  0.00    +0.000 A 
ATOM     17  C   UNL     1      45.844   6.006  10.701  0.00  0.00    +0.000 A 
ATOM     18  C   UNL     1      45.864   6.412  12.036  0.00  0.00    +0.000 A 
ATOM     19  C   UNL     1      45.210   5.638  13.000  0.00  0.00    +0.000 A 
ATOM     20  C   UNL     1      44.556   4.457  12.637  0.00  0.00    +0.000 A 
BRANCH  15  22
ATOM     21  N   UNL     1      44.379   2.097   9.853  0.00  0.00    +0.000 N 
ATOM     22  C   UNL     1      43.886   2.770  10.937  0.00  0.00    +0.000 C 
ATOM     23  O   UNL     1      42.951   2.325  11.592  0.00  0.00    +0.000 OA
ATOM     24  H   UNL     1      43.979   1.184   9.672  0.00  0.00    +0.000 HD
ATOM     25  H   UNL     1      45.292   2.293   9.466  0.00  0.00    +0.000 HD
ENDBRANCH  15  22
ENDBRANCH  14  18
ENDBRANCH   1  14
TORSDOF 5
ENDMDL
MODEL 9
REMARK VINA RESULT:    -6.162      4.878      8.518
REMARK INTER + INTRA:          -8.851
REMARK INTER:                  -8.256
REMARK INTRA:                  -0.594
REMARK UNBOUND:                -0.887
REMARK  Name = 
REMARK  5 active torsions:
REMARK  status: ('A' for Active; 'I' for Inactive)
REMARK    1  A    between atoms: C_2  and  C_4
REMARK    2  A    between atoms: C_7  and  O_8
REMARK    3  A    between atoms: O_8  and  C_9
REMARK    4  A    between atoms: C_9  and  C_10
REMARK    5  A    between atoms: C_14  and  C_15
REMARK                            x       y       z     vdW  Elec       q    Type
REMARK                         _______ _______ _______ _____ _____    ______ ____
ROOT
ATOM      1  C   UNL     1      47.696   3.865  16.345  0.00  0.00    +0.000 C 
ENDROOT
BRANCH   1   2
ATOM      2  C   UNL     1      47.399   4.809  15.214  0.00  0.00    +0.000 A 
ATOM      3  C   UNL     1      48.163   5.952  15.014  0.00  0.00    +0.000 A 
ATOM      4  N   UNL     1      47.993   6.809  13.983  0.00  0.00    +0.000 NA
ATOM      5  C   UNL     1      47.018   6.507  13.094  0.00  0.00    +0.000 A 
ATOM      6  C   UNL     1      46.201   5.384  13.180  0.00  0.00    +0.000 A 
ATOM      7  C   UNL     1      46.412   4.530  14.267  0.00  0.00    +0.000 A 
BRANCH   6   8
ATOM      8  C   UNL     1      45.153   5.088  12.131  0.00  0.00    +0.000 C 
ATOM      9  C   UNL     1      43.741   5.460  12.607  0.00  0.00    +0.000 C 
ATOM     10  C   UNL     1      42.697   5.023  11.590  0.00  0.00    +0.000 C 
ATOM     11  O   UNL     1      42.813   3.627  11.314  0.00  0.00    +0.000 OA
ATOM     12  C   UNL     1      44.073   3.296  10.734  0.00  0.00    +0.000 C 
ATOM     13  C   UNL     1      45.206   3.613  11.697  0.00  0.00    +0.000 C 
ENDBRANCH   6   8
ENDBRANCH   1   2
BRANCH   1  14
ATOM     14  O   UNL     1      48.770   4.369  17.146  0.00  0.00    +0.000 OA
BRANCH  14  18
ATOM     15  C   UNL     1      52.155   2.017  17.771  0.00  0.00    +0.000 A 
ATOM     16  C   UNL     1      50.981   1.398  17.330  0.00  0.00    +0.000 A 
ATOM     17  C   UNL     1      49.825   2.151  17.117  0.00  0.00    +0.000 A 
ATOM     18  C   UNL     1      49.832   3.529  17.343  0.00  0.00    +0.000 A 
ATOM     19  C   UNL     1      51.000   4.143  17.807  0.00  0.00    +0.000 A 
ATOM     20  C   UNL     1      52.158   3.391  18.028  0.00  0.00    +0.000 A 
BRANCH  15  22
ATOM     21  N   UNL     1      53.254  -0.108  18.191  0.00  0.00    +0.000 N 
ATOM     22  C   UNL     1      53.398   1.237  17.989  0.00  0.00    +0.000 C 
ATOM     23  O   UNL     1      54.505   1.761  17.956  0.00  0.00    +0.000 OA
ATOM     24  H   UNL     1      54.109  -0.650  18.235  0.00  0.00    +0.000 HD
ATOM     25  H   UNL     1      52.401  -0.599  17.962  0.00  0.00    +0.000 HD
ENDBRANCH  15  22
ENDBRANCH  14  18
ENDBRANCH   1  14
TORSDOF 5
ENDMDL
