MODEL 1
REMARK VINA RESULT:    -7.801      0.000      0.000
REMARK INTER + INTRA:         -12.793
REMARK INTER:                 -11.677
REMARK INTRA:                  -1.116
REMARK UNBOUND:                -1.116
REMARK  Name = 
REMARK  9 active torsions:
REMARK  status: ('A' for Active; 'I' for Inactive)
REMARK    1  A    between atoms: C_2  and  C_3
REMARK    2  A    between atoms: C_6  and  N_7
REMARK    3  A    between atoms: N_7  and  C_8
REMARK    4  A    between atoms: C_8  and  C_9
REMARK    5  A    between atoms: C_9  and  C_10
REMARK    6  A    between atoms: C_9  and  C_12
REMARK    7  A    between atoms: C_10  and  O_11
REMARK    8  A    between atoms: C_16  and  C_17
REMARK    9  A    between atoms: C_17  and  C_18
REMARK                            x       y       z     vdW  Elec       q    Type
REMARK                         _______ _______ _______ _____ _____    ______ ____
ROOT
ATOM      1  C   UNL     1      43.968   4.954  12.114  0.00  0.00    +0.000 C 
ENDROOT
BRANCH   1   2
ATOM      2  C   UNL     1      45.406   5.409  12.354  0.00  0.00    +0.000 A 
ATOM      3  C   UNL     1      46.036   6.267  11.445  0.00  0.00    +0.000 A 
ATOM      4  C   UNL     1      47.272   6.840  11.755  0.00  0.00    +0.000 A 
ATOM      5  C   UNL     1      47.888   6.567  12.978  0.00  0.00    +0.000 A 
ATOM      6  C   UNL     1      47.301   5.675  13.882  0.00  0.00    +0.000 A 
ATOM      7  C   UNL     1      46.074   5.089  13.548  0.00  0.00    +0.000 A 
BRANCH   6   8
ATOM      8  C   UNL     1      47.947   5.369  15.212  0.00  0.00    +0.000 C 
BRANCH   8   9
ATOM      9  C   UNL     1      47.209   4.248  15.929  0.00  0.00    +0.000 C 
ATOM     10  C   UNL     1      47.170   4.388  17.459  0.00  0.00    +0.000 C 
ATOM     11  O   UNL     1      47.673   3.044  17.639  0.00  0.00    +0.000 OA
ATOM     12  C   UNL     1      47.958   2.938  16.224  0.00  0.00    +0.000 C 
ENDBRANCH   8   9
ENDBRANCH   6   8
ENDBRANCH   1   2
BRANCH   1  13
ATOM     13  C   UNL     1      44.001   3.508  11.567  0.00  0.00    +0.000 C 
BRANCH  13  14
ATOM     14  N   UNL     1      43.802   3.433  10.119  0.00  0.00    +0.000 N 
ATOM     15  H   UNL     1      43.294   4.243   9.771  0.00  0.00    +0.000 HD
BRANCH  14  19
ATOM     16  C   UNL     1      46.766   2.432   7.298  0.00  0.00    +0.000 A 
ATOM     17  C   UNL     1      46.202   1.426   8.083  0.00  0.00    +0.000 A 
ATOM     18  C   UNL     1      45.243   1.745   9.054  0.00  0.00    +0.000 A 
ATOM     19  C   UNL     1      44.840   3.066   9.264  0.00  0.00    +0.000 A 
ATOM     20  C   UNL     1      45.408   4.060   8.455  0.00  0.00    +0.000 A 
ATOM     21  C   UNL     1      46.371   3.754   7.491  0.00  0.00    +0.000 A 
BRANCH  16  23
ATOM     22  N   UNL     1      48.507   1.834   5.473  0.00  0.00    +0.000 NA
ATOM     23  C   UNL     1      47.729   2.102   6.292  0.00  0.00    +0.000 C 
ENDBRANCH  16  23
ENDBRANCH  14  19
ENDBRANCH  13  14
ENDBRANCH   1  13
BRANCH   1  24
ATOM     24  C   UNL     1      43.142   5.900  11.228  0.00  0.00    +0.000 C 
BRANCH  24  25
ATOM     25  O   UNL     1      41.912   6.280  11.839  0.00  0.00    +0.000 OA
ATOM     26  H   UNL     1      41.761   7.214  11.610  0.00  0.00    +0.000 HD
ENDBRANCH  24  25
ENDBRANCH   1  24
TORSDOF 9
ENDMDL
MODEL 2
REMARK VINA RESULT:    -7.582      2.546      5.002
REMARK INTER + INTRA:         -12.466
REMARK INTER:                 -11.364
REMARK INTRA:                  -1.102
REMARK UNBOUND:                -1.116
REMARK  Name = 
REMARK  9 active torsions:
REMARK  status: ('A' for Active; 'I' for Inactive)
REMARK    1  A    between atoms: C_2  and  C_3
REMARK    2  A    between atoms: C_6  and  N_7
REMARK    3  A    between atoms: N_7  and  C_8
REMARK    4  A    between atoms: C_8  and  C_9
REMARK    5  A    between atoms: C_9  and  C_10
REMARK    6  A    between atoms: C_9  and  C_12
REMARK    7  A    between atoms: C_10  and  O_11
REMARK    8  A    between atoms: C_16  and  C_17
REMARK    9  A    between atoms: C_17  and  C_18
REMARK                            x       y       z     vdW  Elec       q    Type
REMARK                         _______ _______ _______ _____ _____    ______ ____
ROOT
ATOM      1  C   UNL     1      45.414   5.096  11.737  0.00  0.00    +0.000 C 
ENDROOT
BRANCH   1   2
ATOM      2  C   UNL     1      45.875   6.525  12.013  0.00  0.00    +0.000 A 
ATOM      3  C   UNL     1      47.229   6.800  12.239  0.00  0.00    +0.000 A 
ATOM      4  C   UNL     1      47.681   8.120  12.296  0.00  0.00    +0.000 A 
ATOM      5  C   UNL     1      46.788   9.179  12.123  0.00  0.00    +0.000 A 
ATOM      6  C   UNL     1      45.423   8.931  11.944  0.00  0.00    +0.000 A 
ATOM      7  C   UNL     1      44.979   7.604  11.913  0.00  0.00    +0.000 A 
BRANCH   6   8
ATOM      8  C   UNL     1      44.440  10.061  11.750  0.00  0.00    +0.000 C 
BRANCH   8   9
ATOM      9  C   UNL     1      43.480   9.757  10.610  0.00  0.00    +0.000 C 
ATOM     10  C   UNL     1      43.596  10.708   9.409  0.00  0.00    +0.000 C 
ATOM     11  O   UNL     1      42.175  10.974   9.425  0.00  0.00    +0.000 OA
ATOM     12  C   UNL     1      42.039  10.286  10.692  0.00  0.00    +0.000 C 
ENDBRANCH   8   9
ENDBRANCH   6   8
ENDBRANCH   1   2
BRANCH   1  13
ATOM     13  C   UNL     1      44.072   5.158  10.970  0.00  0.00    +0.000 C 
BRANCH  13  14
ATOM     14  N   UNL     1      43.836   3.990  10.121  0.00  0.00    +0.000 N 
ATOM     15  H   UNL     1      42.951   4.066   9.622  0.00  0.00    +0.000 HD
BRANCH  14  19
ATOM     16  C   UNL     1      46.721   2.515   7.430  0.00  0.00    +0.000 A 
ATOM     17  C   UNL     1      46.066   1.628   8.283  0.00  0.00    +0.000 A 
ATOM     18  C   UNL     1      45.132   2.105   9.212  0.00  0.00    +0.000 A 
ATOM     19  C   UNL     1      44.844   3.468   9.312  0.00  0.00    +0.000 A 
ATOM     20  C   UNL     1      45.503   4.342   8.436  0.00  0.00    +0.000 A 
ATOM     21  C   UNL     1      46.442   3.878   7.512  0.00  0.00    +0.000 A 
BRANCH  16  23
ATOM     22  N   UNL     1      48.421   1.629   5.685  0.00  0.00    +0.000 NA
ATOM     23  C   UNL     1      47.659   2.025   6.466  0.00  0.00    +0.000 C 
ENDBRANCH  16  23
ENDBRANCH  14  19
ENDBRANCH  13  14
ENDBRANCH   1  13
BRANCH   1  24
ATOM     24  C   UNL     1      45.338   4.201  12.984  0.00  0.00    +0.000 C 
BRANCH  24  25
ATOM     25  O   UNL     1      45.261   2.816  12.653  0.00  0.00    +0.000 OA
ATOM     26  H   UNL     1      44.643   2.411  13.287  0.00  0.00    +0.000 HD
ENDBRANCH  24  25
ENDBRANCH   1  24
TORSDOF 9
ENDMDL
MODEL 3
REMARK VINA RESULT:    -7.315      1.991      2.580
REMARK INTER + INTRA:         -12.065
REMARK INTER:                 -11.073
REMARK INTRA:                  -0.992
REMARK UNBOUND:                -1.116
REMARK  Name = 
REMARK  9 active torsions:
REMARK  status: ('A' for Active; 'I' for Inactive)
REMARK    1  A    between atoms: C_2  and  C_3
REMARK    2  A    between atoms: C_6  and  N_7
REMARK    3  A    between atoms: N_7  and  C_8
REMARK    4  A    between atoms: C_8  and  C_9
REMARK    5  A    between atoms: C_9  and  C_10
REMARK    6  A    between atoms: C_9  and  C_12
REMARK    7  A    between atoms: C_10  and  O_11
REMARK    8  A    between atoms: C_16  and  C_17
REMARK    9  A    between atoms: C_17  and  C_18
REMARK                            x       y       z     vdW  Elec       q    Type
REMARK                         _______ _______ _______ _____ _____    ______ ____
ROOT
ATOM      1  C   UNL     1      45.399   4.861  11.736  0.00  0.00    +0.000 C 
ENDROOT
BRANCH   1   2
ATOM      2  C   UNL     1      45.960   6.241  12.076  0.00  0.00    +0.000 A 
ATOM      3  C   UNL     1      45.097   7.329  12.255  0.00  0.00    +0.000 A 
ATOM      4  C   UNL     1      45.583   8.539  12.756  0.00  0.00    +0.000 A 
ATOM      5  C   UNL     1      46.932   8.674  13.087  0.00  0.00    +0.000 A 
ATOM      6  C   UNL     1      47.823   7.616  12.873  0.00  0.00    +0.000 A 
ATOM      7  C   UNL     1      47.328   6.417  12.347  0.00  0.00    +0.000 A 
BRANCH   6   8
ATOM      8  C   UNL     1      49.285   7.738  13.229  0.00  0.00    +0.000 C 
BRANCH   8   9
ATOM      9  C   UNL     1      49.477   7.760  14.738  0.00  0.00    +0.000 C 
ATOM     10  C   UNL     1      50.873   7.325  15.209  0.00  0.00    +0.000 C 
ATOM     11  O   UNL     1      50.312   6.363  16.132  0.00  0.00    +0.000 OA
ATOM     12  C   UNL     1      48.995   6.556  15.564  0.00  0.00    +0.000 C 
ENDBRANCH   8   9
ENDBRANCH   6   8
ENDBRANCH   1   2
BRANCH   1  13
ATOM     13  C   UNL     1      43.993   5.048  11.120  0.00  0.00    +0.000 C 
BRANCH  13  14
ATOM     14  N   UNL     1      43.717   4.125  10.018  0.00  0.00    +0.000 N 
ATOM     15  H   UNL     1      42.959   4.465   9.430  0.00  0.00    +0.000 HD
BRANCH  14  19
ATOM     16  C   UNL     1      46.689   2.548   7.483  0.00  0.00    +0.000 A 
ATOM     17  C   UNL     1      45.980   1.689   8.322  0.00  0.00    +0.000 A 
ATOM     18  C   UNL     1      45.015   2.200   9.201  0.00  0.00    +0.000 A 
ATOM     19  C   UNL     1      44.749   3.569   9.263  0.00  0.00    +0.000 A 
ATOM     20  C   UNL     1      45.463   4.415   8.402  0.00  0.00    +0.000 A 
ATOM     21  C   UNL     1      46.433   3.917   7.530  0.00  0.00    +0.000 A 
BRANCH  16  23
ATOM     22  N   UNL     1      48.442   1.597   5.828  0.00  0.00    +0.000 NA
ATOM     23  C   UNL     1      47.658   2.023   6.571  0.00  0.00    +0.000 C 
ENDBRANCH  16  23
ENDBRANCH  14  19
ENDBRANCH  13  14
ENDBRANCH   1  13
BRANCH   1  24
ATOM     24  C   UNL     1      45.402   3.868  12.908  0.00  0.00    +0.000 C 
BRANCH  24  25
ATOM     25  O   UNL     1      44.896   2.589  12.536  0.00  0.00    +0.000 OA
ATOM     26  H   UNL     1      45.645   1.968  12.578  0.00  0.00    +0.000 HD
ENDBRANCH  24  25
ENDBRANCH   1  24
TORSDOF 9
ENDMDL
MODEL 4
REMARK VINA RESULT:    -7.281      3.459      7.274
REMARK INTER + INTRA:         -12.015
REMARK INTER:                 -11.032
REMARK INTRA:                  -0.983
REMARK UNBOUND:                -1.116
REMARK  Name = 
REMARK  9 active torsions:
REMARK  status: ('A' for Active; 'I' for Inactive)
REMARK    1  A    between atoms: C_2  and  C_3
REMARK    2  A    between atoms: C_6  and  N_7
REMARK    3  A    between atoms: N_7  and  C_8
REMARK    4  A    between atoms: C_8  and  C_9
REMARK    5  A    between atoms: C_9  and  C_10
REMARK    6  A    between atoms: C_9  and  C_12
REMARK    7  A    between atoms: C_10  and  O_11
REMARK    8  A    between atoms: C_16  and  C_17
REMARK    9  A    between atoms: C_17  and  C_18
REMARK                            x       y       z     vdW  Elec       q    Type
REMARK                         _______ _______ _______ _____ _____    ______ ____
ROOT
ATOM      1  C   UNL     1      44.248   5.598  11.490  0.00  0.00    +0.000 C 
ENDROOT
BRANCH   1   2
ATOM      2  C   UNL     1      44.590   4.418  10.583  0.00  0.00    +0.000 A 
ATOM      3  C   UNL     1      43.983   3.173  10.785  0.00  0.00    +0.000 A 
ATOM      4  C   UNL     1      44.140   2.151   9.846  0.00  0.00    +0.000 A 
ATOM      5  C   UNL     1      44.899   2.363   8.694  0.00  0.00    +0.000 A 
ATOM      6  C   UNL     1      45.553   3.583   8.492  0.00  0.00    +0.000 A 
ATOM      7  C   UNL     1      45.408   4.591   9.453  0.00  0.00    +0.000 A 
BRANCH   6   8
ATOM      8  C   UNL     1      46.375   3.836   7.251  0.00  0.00    +0.000 C 
BRANCH   8   9
ATOM      9  C   UNL     1      46.640   2.539   6.501  0.00  0.00    +0.000 C 
ATOM     10  C   UNL     1      47.884   1.772   6.977  0.00  0.00    +0.000 C 
ATOM     11  O   UNL     1      48.399   1.682   5.629  0.00  0.00    +0.000 OA
ATOM     12  C   UNL     1      47.383   2.598   5.157  0.00  0.00    +0.000 C 
ENDBRANCH   8   9
ENDBRANCH   6   8
ENDBRANCH   1   2
BRANCH   1  13
ATOM     13  C   UNL     1      45.227   5.589  12.688  0.00  0.00    +0.000 C 
BRANCH  13  14
ATOM     14  N   UNL     1      45.514   6.925  13.210  0.00  0.00    +0.000 N 
ATOM     15  H   UNL     1      45.569   6.923  14.227  0.00  0.00    +0.000 HD
BRANCH  14  19
ATOM     16  C   UNL     1      48.697   9.224  11.684  0.00  0.00    +0.000 A 
ATOM     17  C   UNL     1      47.594   9.870  12.242  0.00  0.00    +0.000 A 
ATOM     18  C   UNL     1      46.507   9.123  12.719  0.00  0.00    +0.000 A 
ATOM     19  C   UNL     1      46.500   7.728  12.640  0.00  0.00    +0.000 A 
ATOM     20  C   UNL     1      47.625   7.098  12.089  0.00  0.00    +0.000 A 
ATOM     21  C   UNL     1      48.708   7.834  11.603  0.00  0.00    +0.000 A 
BRANCH  16  23
ATOM     22  N   UNL     1      50.722  10.603  10.837  0.00  0.00    +0.000 NA
ATOM     23  C   UNL     1      49.815   9.987  11.218  0.00  0.00    +0.000 C 
ENDBRANCH  16  23
ENDBRANCH  14  19
ENDBRANCH  13  14
ENDBRANCH   1  13
BRANCH   1  24
ATOM     24  C   UNL     1      42.777   5.654  11.933  0.00  0.00    +0.000 C 
BRANCH  24  25
ATOM     25  O   UNL     1      42.635   5.588  13.350  0.00  0.00    +0.000 OA
ATOM     26  H   UNL     1      42.089   4.805  13.541  0.00  0.00    +0.000 HD
ENDBRANCH  24  25
ENDBRANCH   1  24
TORSDOF 9
ENDMDL
MODEL 5
REMARK VINA RESULT:    -7.164      2.861      4.130
REMARK INTER + INTRA:         -11.839
REMARK INTER:                 -10.719
REMARK INTRA:                  -1.121
REMARK UNBOUND:                -1.116
REMARK  Name = 
REMARK  9 active torsions:
REMARK  status: ('A' for Active; 'I' for Inactive)
REMARK    1  A    between atoms: C_2  and  C_3
REMARK    2  A    between atoms: C_6  and  N_7
REMARK    3  A    between atoms: N_7  and  C_8
REMARK    4  A    between atoms: C_8  and  C_9
REMARK    5  A    between atoms: C_9  and  C_10
REMARK    6  A    between atoms: C_9  and  C_12
REMARK    7  A    between atoms: C_10  and  O_11
REMARK    8  A    between atoms: C_16  and  C_17
REMARK    9  A    between atoms: C_17  and  C_18
REMARK                            x       y       z     vdW  Elec       q    Type
REMARK                         _______ _______ _______ _____ _____    ______ ____
ROOT
ATOM      1  C   UNL     1      45.240   5.112  11.922  0.00  0.00    +0.000 C 
ENDROOT
BRANCH   1   2
ATOM      2  C   UNL     1      45.886   6.495  11.976  0.00  0.00    +0.000 A 
ATOM      3  C   UNL     1      45.180   7.585  12.500  0.00  0.00    +0.000 A 
ATOM      4  C   UNL     1      45.828   8.800  12.732  0.00  0.00    +0.000 A 
ATOM      5  C   UNL     1      47.188   8.938  12.449  0.00  0.00    +0.000 A 
ATOM      6  C   UNL     1      47.904   7.879  11.881  0.00  0.00    +0.000 A 
ATOM      7  C   UNL     1      47.236   6.674  11.630  0.00  0.00    +0.000 A 
BRANCH   6   8
ATOM      8  C   UNL     1      49.377   8.005  11.572  0.00  0.00    +0.000 C 
BRANCH   8   9
ATOM      9  C   UNL     1      49.879   9.407  11.881  0.00  0.00    +0.000 C 
ATOM     10  C   UNL     1      51.060   9.867  11.012  0.00  0.00    +0.000 C 
ATOM     11  O   UNL     1      51.832  10.235  12.177  0.00  0.00    +0.000 OA
ATOM     12  C   UNL     1      50.862   9.603  13.046  0.00  0.00    +0.000 C 
ENDBRANCH   8   9
ENDBRANCH   6   8
ENDBRANCH   1   2
BRANCH   1  13
ATOM     13  C   UNL     1      43.966   5.205  11.051  0.00  0.00    +0.000 C 
BRANCH  13  14
ATOM     14  N   UNL     1      43.695   3.985  10.290  0.00  0.00    +0.000 N 
ATOM     15  H   UNL     1      42.729   3.953   9.970  0.00  0.00    +0.000 HD
BRANCH  14  19
ATOM     16  C   UNL     1      46.545   2.492   7.571  0.00  0.00    +0.000 A 
ATOM     17  C   UNL     1      46.269   3.859   7.591  0.00  0.00    +0.000 A 
ATOM     18  C   UNL     1      45.296   4.369   8.461  0.00  0.00    +0.000 A 
ATOM     19  C   UNL     1      44.579   3.528   9.315  0.00  0.00    +0.000 A 
ATOM     20  C   UNL     1      44.880   2.159   9.289  0.00  0.00    +0.000 A 
ATOM     21  C   UNL     1      45.842   1.640   8.419  0.00  0.00    +0.000 A 
BRANCH  16  23
ATOM     22  N   UNL     1      48.373   1.560   5.988  0.00  0.00    +0.000 NA
ATOM     23  C   UNL     1      47.554   1.976   6.698  0.00  0.00    +0.000 C 
ENDBRANCH  16  23
ENDBRANCH  14  19
ENDBRANCH  13  14
ENDBRANCH   1  13
BRANCH   1  24
ATOM     24  C   UNL     1      44.967   4.485  13.298  0.00  0.00    +0.000 C 
BRANCH  24  25
ATOM     25  O   UNL     1      43.952   3.486  13.247  0.00  0.00    +0.000 OA
ATOM     26  H   UNL     1      43.148   3.883  13.627  0.00  0.00    +0.000 HD
ENDBRANCH  24  25
ENDBRANCH   1  24
TORSDOF 9
ENDMDL
MODEL 6
REMARK VINA RESULT:    -7.156      2.297      3.493
REMARK INTER + INTRA:         -11.827
REMARK INTER:                 -10.889
REMARK INTRA:                  -0.937
REMARK UNBOUND:                -1.116
REMARK  Name = 
REMARK  9 active torsions:
REMARK  status: ('A' for Active; 'I' for Inactive)
REMARK    1  A    between atoms: C_2  and  C_3
REMARK    2  A    between atoms: C_6  and  N_7
REMARK    3  A    between atoms: N_7  and  C_8
REMARK    4  A    between atoms: C_8  and  C_9
REMARK    5  A    between atoms: C_9  and  C_10
REMARK    6  A    between atoms: C_9  and  C_12
REMARK    7  A    between atoms: C_10  and  O_11
REMARK    8  A    between atoms: C_16  and  C_17
REMARK    9  A    between atoms: C_17  and  C_18
REMARK                            x       y       z     vdW  Elec       q    Type
REMARK                         _______ _______ _______ _____ _____    ______ ____
ROOT
ATOM      1  C   UNL     1      43.691   5.022  12.222  0.00  0.00    +0.000 C 
ENDROOT
BRANCH   1   2
ATOM      2  C   UNL     1      45.008   5.571  12.767  0.00  0.00    +0.000 A 
ATOM      3  C   UNL     1      46.015   4.696  13.194  0.00  0.00    +0.000 A 
ATOM      4  C   UNL     1      47.286   5.183  13.507  0.00  0.00    +0.000 A 
ATOM      5  C   UNL     1      47.567   6.546  13.390  0.00  0.00    +0.000 A 
ATOM      6  C   UNL     1      46.565   7.445  13.011  0.00  0.00    +0.000 A 
ATOM      7  C   UNL     1      45.288   6.947  12.725  0.00  0.00    +0.000 A 
BRANCH   6   8
ATOM      8  C   UNL     1      46.848   8.922  12.874  0.00  0.00    +0.000 C 
BRANCH   8   9
ATOM      9  C   UNL     1      48.343   9.197  12.945  0.00  0.00    +0.000 C 
ATOM     10  C   UNL     1      48.708  10.669  13.192  0.00  0.00    +0.000 C 
ATOM     11  O   UNL     1      49.605  10.684  12.059  0.00  0.00    +0.000 OA
ATOM     12  C   UNL     1      49.125   9.386  11.635  0.00  0.00    +0.000 C 
ENDBRANCH   8   9
ENDBRANCH   6   8
ENDBRANCH   1   2
BRANCH   1  13
ATOM     13  C   UNL     1      43.957   3.615  11.637  0.00  0.00    +0.000 C 
BRANCH  13  14
ATOM     14  N   UNL     1      43.763   3.545  10.188  0.00  0.00    +0.000 N 
ATOM     15  H   UNL     1      43.282   4.371   9.837  0.00  0.00    +0.000 HD
BRANCH  14  19
ATOM     16  C   UNL     1      46.709   2.450   7.384  0.00  0.00    +0.000 A 
ATOM     17  C   UNL     1      46.110   1.463   8.166  0.00  0.00    +0.000 A 
ATOM     18  C   UNL     1      45.157   1.812   9.133  0.00  0.00    +0.000 A 
ATOM     19  C   UNL     1      44.793   3.145   9.338  0.00  0.00    +0.000 A 
ATOM     20  C   UNL     1      45.396   4.120   8.532  0.00  0.00    +0.000 A 
ATOM     21  C   UNL     1      46.354   3.783   7.573  0.00  0.00    +0.000 A 
BRANCH  16  23
ATOM     22  N   UNL     1      48.445   1.799   5.572  0.00  0.00    +0.000 NA
ATOM     23  C   UNL     1      47.667   2.089   6.383  0.00  0.00    +0.000 C 
ENDBRANCH  16  23
ENDBRANCH  14  19
ENDBRANCH  13  14
ENDBRANCH   1  13
BRANCH   1  24
ATOM     24  C   UNL     1      42.981   5.950  11.224  0.00  0.00    +0.000 C 
BRANCH  24  25
ATOM     25  O   UNL     1      41.862   6.615  11.804  0.00  0.00    +0.000 OA
ATOM     26  H   UNL     1      41.162   6.628  11.128  0.00  0.00    +0.000 HD
ENDBRANCH  24  25
ENDBRANCH   1  24
TORSDOF 9
ENDMDL
MODEL 7
REMARK VINA RESULT:    -7.120      1.423      1.794
REMARK INTER + INTRA:         -11.774
REMARK INTER:                 -10.741
REMARK INTRA:                  -1.033
REMARK UNBOUND:                -1.116
REMARK  Name = 
REMARK  9 active torsions:
REMARK  status: ('A' for Active; 'I' for Inactive)
REMARK    1  A    between atoms: C_2  and  C_3
REMARK    2  A    between atoms: C_6  and  N_7
REMARK    3  A    between atoms: N_7  and  C_8
REMARK    4  A    between atoms: C_8  and  C_9
REMARK    5  A    between atoms: C_9  and  C_10
REMARK    6  A    between atoms: C_9  and  C_12
REMARK    7  A    between atoms: C_10  and  O_11
REMARK    8  A    between atoms: C_16  and  C_17
REMARK    9  A    between atoms: C_17  and  C_18
REMARK                            x       y       z     vdW  Elec       q    Type
REMARK                         _______ _______ _______ _____ _____    ______ ____
ROOT
ATOM      1  C   UNL     1      43.891   4.926  12.012  0.00  0.00    +0.000 C 
ENDROOT
BRANCH   1   2
ATOM      2  C   UNL     1      45.316   5.442  12.206  0.00  0.00    +0.000 A 
ATOM      3  C   UNL     1      45.920   6.234  11.223  0.00  0.00    +0.000 A 
ATOM      4  C   UNL     1      47.139   6.867  11.478  0.00  0.00    +0.000 A 
ATOM      5  C   UNL     1      47.763   6.720  12.718  0.00  0.00    +0.000 A 
ATOM      6  C   UNL     1      47.203   5.895  13.700  0.00  0.00    +0.000 A 
ATOM      7  C   UNL     1      45.993   5.247  13.422  0.00  0.00    +0.000 A 
BRANCH   6   8
ATOM      8  C   UNL     1      47.858   5.726  15.049  0.00  0.00    +0.000 C 
BRANCH   8   9
ATOM      9  C   UNL     1      48.979   6.738  15.240  0.00  0.00    +0.000 C 
ATOM     10  C   UNL     1      49.902   6.449  16.433  0.00  0.00    +0.000 C 
ATOM     11  O   UNL     1      49.732   7.789  16.947  0.00  0.00    +0.000 OA
ATOM     12  C   UNL     1      48.677   8.045  15.990  0.00  0.00    +0.000 C 
ENDBRANCH   8   9
ENDBRANCH   6   8
ENDBRANCH   1   2
BRANCH   1  13
ATOM     13  C   UNL     1      43.968   3.476  11.480  0.00  0.00    +0.000 C 
BRANCH  13  14
ATOM     14  N   UNL     1      43.773   3.379  10.033  0.00  0.00    +0.000 N 
ATOM     15  H   UNL     1      43.240   4.170   9.676  0.00  0.00    +0.000 HD
BRANCH  14  19
ATOM     16  C   UNL     1      46.770   2.441   7.226  0.00  0.00    +0.000 A 
ATOM     17  C   UNL     1      46.239   1.427   8.024  0.00  0.00    +0.000 A 
ATOM     18  C   UNL     1      45.270   1.727   8.991  0.00  0.00    +0.000 A 
ATOM     19  C   UNL     1      44.823   3.036   9.183  0.00  0.00    +0.000 A 
ATOM     20  C   UNL     1      45.359   4.038   8.362  0.00  0.00    +0.000 A 
ATOM     21  C   UNL     1      46.332   3.751   7.402  0.00  0.00    +0.000 A 
BRANCH  16  23
ATOM     22  N   UNL     1      48.536   1.880   5.413  0.00  0.00    +0.000 NA
ATOM     23  C   UNL     1      47.744   2.130   6.224  0.00  0.00    +0.000 C 
ENDBRANCH  16  23
ENDBRANCH  14  19
ENDBRANCH  13  14
ENDBRANCH   1  13
BRANCH   1  24
ATOM     24  C   UNL     1      43.004   5.827  11.139  0.00  0.00    +0.000 C 
BRANCH  24  25
ATOM     25  O   UNL     1      41.988   6.483  11.893  0.00  0.00    +0.000 OA
ATOM     26  H   UNL     1      41.294   5.823  12.063  0.00  0.00    +0.000 HD
ENDBRANCH  24  25
ENDBRANCH   1  24
TORSDOF 9
ENDMDL
MODEL 8
REMARK VINA RESULT:    -7.064      3.256      7.741
REMARK INTER + INTRA:         -11.690
REMARK INTER:                 -11.031
REMARK INTRA:                  -0.659
REMARK UNBOUND:                -1.116
REMARK  Name = 
REMARK  9 active torsions:
REMARK  status: ('A' for Active; 'I' for Inactive)
REMARK    1  A    between atoms: C_2  and  C_3
REMARK    2  A    between atoms: C_6  and  N_7
REMARK    3  A    between atoms: N_7  and  C_8
REMARK    4  A    between atoms: C_8  and  C_9
REMARK    5  A    between atoms: C_9  and  C_10
REMARK    6  A    between atoms: C_9  and  C_12
REMARK    7  A    between atoms: C_10  and  O_11
REMARK    8  A    between atoms: C_16  and  C_17
REMARK    9  A    between atoms: C_17  and  C_18
REMARK                            x       y       z     vdW  Elec       q    Type
REMARK                         _______ _______ _______ _____ _____    ______ ____
ROOT
ATOM      1  C   UNL     1      44.383   6.066  11.343  0.00  0.00    +0.000 C 
ENDROOT
BRANCH   1   2
ATOM      2  C   UNL     1      44.720   4.817  10.531  0.00  0.00    +0.000 A 
ATOM      3  C   UNL     1      44.111   3.593  10.833  0.00  0.00    +0.000 A 
ATOM      4  C   UNL     1      44.263   2.500   9.977  0.00  0.00    +0.000 A 
ATOM      5  C   UNL     1      45.020   2.619   8.810  0.00  0.00    +0.000 A 
ATOM      6  C   UNL     1      45.677   3.817   8.511  0.00  0.00    +0.000 A 
ATOM      7  C   UNL     1      45.536   4.898   9.390  0.00  0.00    +0.000 A 
BRANCH   6   8
ATOM      8  C   UNL     1      46.496   3.969   7.252  0.00  0.00    +0.000 C 
BRANCH   8   9
ATOM      9  C   UNL     1      46.663   2.631   6.548  0.00  0.00    +0.000 C 
ATOM     10  C   UNL     1      47.923   1.851   6.953  0.00  0.00    +0.000 C 
ATOM     11  O   UNL     1      48.318   1.682   5.573  0.00  0.00    +0.000 OA
ATOM     12  C   UNL     1      47.289   2.605   5.144  0.00  0.00    +0.000 C 
ENDBRANCH   8   9
ENDBRANCH   6   8
ENDBRANCH   1   2
BRANCH   1  13
ATOM     13  C   UNL     1      44.971   5.895  12.763  0.00  0.00    +0.000 C 
BRANCH  13  14
ATOM     14  N   UNL     1      46.427   5.749  12.772  0.00  0.00    +0.000 N 
ATOM     15  H   UNL     1      46.876   6.461  12.200  0.00  0.00    +0.000 HD
BRANCH  14  19
ATOM     16  C   UNL     1      48.262   5.076  16.504  0.00  0.00    +0.000 A 
ATOM     17  C   UNL     1      48.628   6.194  15.754  0.00  0.00    +0.000 A 
ATOM     18  C   UNL     1      48.057   6.413  14.493  0.00  0.00    +0.000 A 
ATOM     19  C   UNL     1      47.124   5.522  13.958  0.00  0.00    +0.000 A 
ATOM     20  C   UNL     1      46.760   4.412  14.733  0.00  0.00    +0.000 A 
ATOM     21  C   UNL     1      47.330   4.179  15.987  0.00  0.00    +0.000 A 
BRANCH  16  23
ATOM     22  N   UNL     1      49.292   4.694  18.852  0.00  0.00    +0.000 NA
ATOM     23  C   UNL     1      48.829   4.865  17.801  0.00  0.00    +0.000 C 
ENDBRANCH  16  23
ENDBRANCH  14  19
ENDBRANCH  13  14
ENDBRANCH   1  13
BRANCH   1  24
ATOM     24  C   UNL     1      42.889   6.426  11.365  0.00  0.00    +0.000 C 
BRANCH  24  25
ATOM     25  O   UNL     1      42.651   7.778  10.980  0.00  0.00    +0.000 OA
ATOM     26  H   UNL     1      42.550   8.290  11.801  0.00  0.00    +0.000 HD
ENDBRANCH  24  25
ENDBRANCH   1  24
TORSDOF 9
ENDMDL
MODEL 9
REMARK VINA RESULT:    -6.114      3.666      7.745
REMARK INTER + INTRA:         -10.268
REMARK INTER:                  -9.811
REMARK INTRA:                  -0.456
REMARK UNBOUND:                -1.116
REMARK  Name = 
REMARK  9 active torsions:
REMARK  status: ('A' for Active; 'I' for Inactive)
REMARK    1  A    between atoms: C_2  and  C_3
REMARK    2  A    between atoms: C_6  and  N_7
REMARK    3  A    between atoms: N_7  and  C_8
REMARK    4  A    between atoms: C_8  and  C_9
REMARK    5  A    between atoms: C_9  and  C_10
REMARK    6  A    between atoms: C_9  and  C_12
REMARK    7  A    between atoms: C_10  and  O_11
REMARK    8  A    between atoms: C_16  and  C_17
REMARK    9  A    between atoms: C_17  and  C_18
REMARK                            x       y       z     vdW  Elec       q    Type
REMARK                         _______ _______ _______ _____ _____    ______ ____
ROOT
ATOM      1  C   UNL     1      45.212   6.281  11.177  0.00  0.00    +0.000 C 
ENDROOT
BRANCH   1   2
ATOM      2  C   UNL     1      45.106   4.905  10.522  0.00  0.00    +0.000 A 
ATOM      3  C   UNL     1      44.434   3.863  11.173  0.00  0.00    +0.000 A 
ATOM      4  C   UNL     1      44.165   2.669  10.501  0.00  0.00    +0.000 A 
ATOM      5  C   UNL     1      44.560   2.504   9.172  0.00  0.00    +0.000 A 
ATOM      6  C   UNL     1      45.274   3.512   8.515  0.00  0.00    +0.000 A 
ATOM      7  C   UNL     1      45.559   4.694   9.209  0.00  0.00    +0.000 A 
BRANCH   6   8
ATOM      8  C   UNL     1      45.706   3.357   7.077  0.00  0.00    +0.000 C 
BRANCH   8   9
ATOM      9  C   UNL     1      47.174   2.963   6.990  0.00  0.00    +0.000 C 
ATOM     10  C   UNL     1      47.688   2.736   5.560  0.00  0.00    +0.000 C 
ATOM     11  O   UNL     1      48.223   1.439   5.910  0.00  0.00    +0.000 OA
ATOM     12  C   UNL     1      47.559   1.489   7.195  0.00  0.00    +0.000 C 
ENDBRANCH   8   9
ENDBRANCH   6   8
ENDBRANCH   1   2
BRANCH   1  13
ATOM     13  C   UNL     1      45.891   6.112  12.556  0.00  0.00    +0.000 C 
BRANCH  13  14
ATOM     14  N   UNL     1      47.337   5.909  12.468  0.00  0.00    +0.000 N 
ATOM     15  H   UNL     1      47.659   5.942  11.502  0.00  0.00    +0.000 HD
BRANCH  14  19
ATOM     16  C   UNL     1      50.219   7.744  14.932  0.00  0.00    +0.000 A 
ATOM     17  C   UNL     1      49.207   6.982  15.515  0.00  0.00    +0.000 A 
ATOM     18  C   UNL     1      48.216   6.397  14.715  0.00  0.00    +0.000 A 
ATOM     19  C   UNL     1      48.214   6.568  13.329  0.00  0.00    +0.000 A 
ATOM     20  C   UNL     1      49.248   7.325  12.761  0.00  0.00    +0.000 A 
ATOM     21  C   UNL     1      50.234   7.921  13.550  0.00  0.00    +0.000 A 
BRANCH  16  23
ATOM     22  N   UNL     1      52.071   8.792  16.413  0.00  0.00    +0.000 NA
ATOM     23  C   UNL     1      51.242   8.323  15.748  0.00  0.00    +0.000 C 
ENDBRANCH  16  23
ENDBRANCH  14  19
ENDBRANCH  13  14
ENDBRANCH   1  13
BRANCH   1  24
ATOM     24  C   UNL     1      43.882   7.045  11.265  0.00  0.00    +0.000 C 
BRANCH  24  25
ATOM     25  O   UNL     1      42.818   6.359  10.611  0.00  0.00    +0.000 OA
ATOM     26  H   UNL     1      42.658   5.543  11.116  0.00  0.00    +0.000 HD
ENDBRANCH  24  25
ENDBRANCH   1  24
TORSDOF 9
ENDMDL
