MODEL 1
REMARK VINA RESULT:    -7.571      0.000      0.000
REMARK INTER + INTRA:          -9.949
REMARK INTER:                  -9.341
REMARK INTRA:                  -0.608
REMARK UNBOUND:                -0.608
REMARK  Name = 
REMARK  4 active torsions:
REMARK  status: ('A' for Active; 'I' for Inactive)
REMARK    1  A    between atoms: C_2  and  C_4
REMARK    2  A    between atoms: C_7  and  C_8
REMARK    3  A    between atoms: C_8  and  O_9
REMARK    4  A    between atoms: O_9  and  C_10
REMARK                            x       y       z     vdW  Elec       q    Type
REMARK                         _______ _______ _______ _____ _____    ______ ____
ROOT
ATOM      1  C   UNL     1      46.438   2.327   7.769  0.00  0.00    +0.000 A 
ATOM      2  C   UNL     1      46.410   3.720   7.634  0.00  0.00    +0.000 A 
ATOM      3  C   UNL     1      45.540   4.482   8.424  0.00  0.00    +0.000 A 
ATOM      4  C   UNL     1      44.697   3.864   9.359  0.00  0.00    +0.000 A 
ATOM      5  C   UNL     1      44.710   2.466   9.464  0.00  0.00    +0.000 A 
ATOM      6  C   UNL     1      45.574   1.703   8.674  0.00  0.00    +0.000 A 
ENDROOT
BRANCH   1   8
ATOM      7  N   UNL     1      48.416   2.082   6.361  0.00  0.00    +0.000 N 
ATOM      8  C   UNL     1      47.342   1.474   6.951  0.00  0.00    +0.000 C 
ATOM      9  O   UNL     1      47.165   0.268   6.841  0.00  0.00    +0.000 OA
ATOM     10  H   UNL     1      49.079   1.469   5.907  0.00  0.00    +0.000 HD
ATOM     11  H   UNL     1      48.736   2.999   6.638  0.00  0.00    +0.000 HD
ENDBRANCH   1   8
BRANCH   4  12
ATOM     12  C   UNL     1      43.767   4.688  10.220  0.00  0.00    +0.000 C 
BRANCH  12  13
ATOM     13  O   UNL     1      44.060   4.438  11.592  0.00  0.00    +0.000 OA
BRANCH  13  14
ATOM     14  C   UNL     1      45.190   5.021  12.101  0.00  0.00    +0.000 A 
ATOM     15  C   UNL     1      45.741   6.239  11.695  0.00  0.00    +0.000 A 
ATOM     16  C   UNL     1      46.903   6.724  12.306  0.00  0.00    +0.000 A 
ATOM     17  C   UNL     1      47.520   5.996  13.320  0.00  0.00    +0.000 A 
ATOM     18  C   UNL     1      46.979   4.779  13.725  0.00  0.00    +0.000 A 
ATOM     19  C   UNL     1      45.818   4.295  13.116  0.00  0.00    +0.000 A 
ENDBRANCH  13  14
ENDBRANCH  12  13
ENDBRANCH   4  12
TORSDOF 4
ENDMDL
MODEL 2
REMARK VINA RESULT:    -7.437      2.893      6.029
REMARK INTER + INTRA:          -9.784
REMARK INTER:                  -9.311
REMARK INTRA:                  -0.473
REMARK UNBOUND:                -0.608
REMARK  Name = 
REMARK  4 active torsions:
REMARK  status: ('A' for Active; 'I' for Inactive)
REMARK    1  A    between atoms: C_2  and  C_4
REMARK    2  A    between atoms: C_7  and  C_8
REMARK    3  A    between atoms: C_8  and  O_9
REMARK    4  A    between atoms: O_9  and  C_10
REMARK                            x       y       z     vdW  Elec       q    Type
REMARK                         _______ _______ _______ _____ _____    ______ ____
ROOT
ATOM      1  C   UNL     1      46.405   4.869  13.159  0.00  0.00    +0.000 A 
ATOM      2  C   UNL     1      46.370   5.877  12.188  0.00  0.00    +0.000 A 
ATOM      3  C   UNL     1      45.656   5.681  11.000  0.00  0.00    +0.000 A 
ATOM      4  C   UNL     1      44.963   4.483  10.772  0.00  0.00    +0.000 A 
ATOM      5  C   UNL     1      45.030   3.467  11.737  0.00  0.00    +0.000 A 
ATOM      6  C   UNL     1      45.746   3.659  12.921  0.00  0.00    +0.000 A 
ENDROOT
BRANCH   1   8
ATOM      7  N   UNL     1      46.725   4.296  15.508  0.00  0.00    +0.000 N 
ATOM      8  C   UNL     1      47.152   5.029  14.435  0.00  0.00    +0.000 C 
ATOM      9  O   UNL     1      48.136   5.753  14.521  0.00  0.00    +0.000 OA
ATOM     10  H   UNL     1      47.312   4.331  16.331  0.00  0.00    +0.000 HD
ATOM     11  H   UNL     1      46.100   3.509  15.410  0.00  0.00    +0.000 HD
ENDBRANCH   1   8
BRANCH   4  12
ATOM     12  C   UNL     1      44.182   4.276   9.495  0.00  0.00    +0.000 C 
BRANCH  12  13
ATOM     13  O   UNL     1      45.056   4.448   8.382  0.00  0.00    +0.000 OA
BRANCH  13  14
ATOM     14  C   UNL     1      45.787   3.357   7.994  0.00  0.00    +0.000 A 
ATOM     15  C   UNL     1      45.629   2.051   8.464  0.00  0.00    +0.000 A 
ATOM     16  C   UNL     1      46.444   1.024   7.977  0.00  0.00    +0.000 A 
ATOM     17  C   UNL     1      47.420   1.295   7.021  0.00  0.00    +0.000 A 
ATOM     18  C   UNL     1      47.586   2.595   6.552  0.00  0.00    +0.000 A 
ATOM     19  C   UNL     1      46.771   3.621   7.039  0.00  0.00    +0.000 A 
ENDBRANCH  13  14
ENDBRANCH  12  13
ENDBRANCH   4  12
TORSDOF 4
ENDMDL
MODEL 3
REMARK VINA RESULT:    -7.316      2.869      5.947
REMARK INTER + INTRA:          -9.634
REMARK INTER:                  -9.071
REMARK INTRA:                  -0.564
REMARK UNBOUND:                -0.608
REMARK  Name = 
REMARK  4 active torsions:
REMARK  status: ('A' for Active; 'I' for Inactive)
REMARK    1  A    between atoms: C_2  and  C_4
REMARK    2  A    between atoms: C_7  and  C_8
REMARK    3  A    between atoms: C_8  and  O_9
REMARK    4  A    between atoms: O_9  and  C_10
REMARK                            x       y       z     vdW  Elec       q    Type
REMARK                         _______ _______ _______ _____ _____    ______ ____
ROOT
ATOM      1  C   UNL     1      46.346   4.351  13.257  0.00  0.00    +0.000 A 
ATOM      2  C   UNL     1      45.623   3.226  12.845  0.00  0.00    +0.000 A 
ATOM      3  C   UNL     1      44.945   3.240  11.620  0.00  0.00    +0.000 A 
ATOM      4  C   UNL     1      44.990   4.371  10.791  0.00  0.00    +0.000 A 
ATOM      5  C   UNL     1      45.692   5.505  11.227  0.00  0.00    +0.000 A 
ATOM      6  C   UNL     1      46.365   5.494  12.451  0.00  0.00    +0.000 A 
ENDROOT
BRANCH   1   8
ATOM      7  N   UNL     1      47.309   5.614  15.110  0.00  0.00    +0.000 N 
ATOM      8  C   UNL     1      47.080   4.386  14.551  0.00  0.00    +0.000 C 
ATOM      9  O   UNL     1      47.431   3.361  15.121  0.00  0.00    +0.000 OA
ATOM     10  H   UNL     1      47.706   5.610  16.041  0.00  0.00    +0.000 HD
ATOM     11  H   UNL     1      46.816   6.443  14.812  0.00  0.00    +0.000 HD
ENDBRANCH   1   8
BRANCH   4  12
ATOM     12  C   UNL     1      44.269   4.381   9.462  0.00  0.00    +0.000 C 
BRANCH  12  13
ATOM     13  O   UNL     1      44.296   3.068   8.909  0.00  0.00    +0.000 OA
BRANCH  13  14
ATOM     14  C   UNL     1      45.394   2.733   8.163  0.00  0.00    +0.000 A 
ATOM     15  C   UNL     1      46.077   3.573   7.281  0.00  0.00    +0.000 A 
ATOM     16  C   UNL     1      47.194   3.101   6.582  0.00  0.00    +0.000 A 
ATOM     17  C   UNL     1      47.632   1.790   6.760  0.00  0.00    +0.000 A 
ATOM     18  C   UNL     1      46.953   0.947   7.635  0.00  0.00    +0.000 A 
ATOM     19  C   UNL     1      45.838   1.419   8.332  0.00  0.00    +0.000 A 
ENDBRANCH  13  14
ENDBRANCH  12  13
ENDBRANCH   4  12
TORSDOF 4
ENDMDL
MODEL 4
REMARK VINA RESULT:    -6.894      2.958      6.282
REMARK INTER + INTRA:          -9.113
REMARK INTER:                  -8.587
REMARK INTRA:                  -0.527
REMARK UNBOUND:                -0.608
REMARK  Name = 
REMARK  4 active torsions:
REMARK  status: ('A' for Active; 'I' for Inactive)
REMARK    1  A    between atoms: C_2  and  C_4
REMARK    2  A    between atoms: C_7  and  C_8
REMARK    3  A    between atoms: C_8  and  O_9
REMARK    4  A    between atoms: O_9  and  C_10
REMARK                            x       y       z     vdW  Elec       q    Type
REMARK                         _______ _______ _______ _____ _____    ______ ____
ROOT
ATOM      1  C   UNL     1      46.139   6.359  12.647  0.00  0.00    +0.000 A 
ATOM      2  C   UNL     1      46.090   5.093  13.242  0.00  0.00    +0.000 A 
ATOM      3  C   UNL     1      45.480   4.026  12.571  0.00  0.00    +0.000 A 
ATOM      4  C   UNL     1      44.921   4.210  11.298  0.00  0.00    +0.000 A 
ATOM      5  C   UNL     1      44.946   5.489  10.723  0.00  0.00    +0.000 A 
ATOM      6  C   UNL     1      45.551   6.556  11.393  0.00  0.00    +0.000 A 
ENDROOT
BRANCH   1   8
ATOM      7  N   UNL     1      46.020   8.656  13.460  0.00  0.00    +0.000 N 
ATOM      8  C   UNL     1      46.774   7.523  13.321  0.00  0.00    +0.000 C 
ATOM      9  O   UNL     1      47.909   7.465  13.775  0.00  0.00    +0.000 OA
ATOM     10  H   UNL     1      46.427   9.394  14.019  0.00  0.00    +0.000 HD
ATOM     11  H   UNL     1      45.017   8.655  13.339  0.00  0.00    +0.000 HD
ENDBRANCH   1   8
BRANCH   4  12
ATOM     12  C   UNL     1      44.273   3.056  10.568  0.00  0.00    +0.000 C 
BRANCH  12  13
ATOM     13  O   UNL     1      44.287   3.324   9.168  0.00  0.00    +0.000 OA
BRANCH  13  14
ATOM     14  C   UNL     1      45.306   2.769   8.441  0.00  0.00    +0.000 A 
ATOM     15  C   UNL     1      45.729   1.439   8.500  0.00  0.00    +0.000 A 
ATOM     16  C   UNL     1      46.786   1.001   7.694  0.00  0.00    +0.000 A 
ATOM     17  C   UNL     1      47.424   1.886   6.829  0.00  0.00    +0.000 A 
ATOM     18  C   UNL     1      47.010   3.214   6.769  0.00  0.00    +0.000 A 
ATOM     19  C   UNL     1      45.955   3.652   7.573  0.00  0.00    +0.000 A 
ENDBRANCH  13  14
ENDBRANCH  12  13
ENDBRANCH   4  12
TORSDOF 4
ENDMDL
MODEL 5
REMARK VINA RESULT:    -5.402      3.306      5.145
REMARK INTER + INTRA:          -7.273
REMARK INTER:                  -6.838
REMARK INTRA:                  -0.435
REMARK UNBOUND:                -0.608
REMARK  Name = 
REMARK  4 active torsions:
REMARK  status: ('A' for Active; 'I' for Inactive)
REMARK    1  A    between atoms: C_2  and  C_4
REMARK    2  A    between atoms: C_7  and  C_8
REMARK    3  A    between atoms: C_8  and  O_9
REMARK    4  A    between atoms: O_9  and  C_10
REMARK                            x       y       z     vdW  Elec       q    Type
REMARK                         _______ _______ _______ _____ _____    ______ ____
ROOT
ATOM      1  C   UNL     1      45.067   4.581  11.237  0.00  0.00    +0.000 A 
ATOM      2  C   UNL     1      45.606   5.845  10.969  0.00  0.00    +0.000 A 
ATOM      3  C   UNL     1      46.511   6.425  11.866  0.00  0.00    +0.000 A 
ATOM      4  C   UNL     1      46.893   5.747  13.034  0.00  0.00    +0.000 A 
ATOM      5  C   UNL     1      46.324   4.496  13.309  0.00  0.00    +0.000 A 
ATOM      6  C   UNL     1      45.418   3.917  12.417  0.00  0.00    +0.000 A 
ENDROOT
BRANCH   1   8
ATOM      7  N   UNL     1      43.996   4.431   9.051  0.00  0.00    +0.000 N 
ATOM      8  C   UNL     1      44.101   3.924  10.317  0.00  0.00    +0.000 C 
ATOM      9  O   UNL     1      43.452   2.942  10.656  0.00  0.00    +0.000 OA
ATOM     10  H   UNL     1      43.421   3.903   8.407  0.00  0.00    +0.000 HD
ATOM     11  H   UNL     1      44.687   5.054   8.660  0.00  0.00    +0.000 HD
ENDBRANCH   1   8
BRANCH   4  12
ATOM     12  C   UNL     1      47.880   6.368  13.996  0.00  0.00    +0.000 C 
BRANCH  12  13
ATOM     13  O   UNL     1      48.345   5.366  14.896  0.00  0.00    +0.000 OA
BRANCH  13  14
ATOM     14  C   UNL     1      48.322   5.674  16.230  0.00  0.00    +0.000 A 
ATOM     15  C   UNL     1      48.866   6.816  16.821  0.00  0.00    +0.000 A 
ATOM     16  C   UNL     1      48.767   7.009  18.203  0.00  0.00    +0.000 A 
ATOM     17  C   UNL     1      48.128   6.063  19.001  0.00  0.00    +0.000 A 
ATOM     18  C   UNL     1      47.588   4.920  18.419  0.00  0.00    +0.000 A 
ATOM     19  C   UNL     1      47.686   4.727  17.039  0.00  0.00    +0.000 A 
ENDBRANCH  13  14
ENDBRANCH  12  13
ENDBRANCH   4  12
TORSDOF 4
ENDMDL
MODEL 6
REMARK VINA RESULT:    -5.344      5.416      8.060
REMARK INTER + INTRA:          -7.201
REMARK INTER:                  -6.748
REMARK INTRA:                  -0.453
REMARK UNBOUND:                -0.608
REMARK  Name = 
REMARK  4 active torsions:
REMARK  status: ('A' for Active; 'I' for Inactive)
REMARK    1  A    between atoms: C_2  and  C_4
REMARK    2  A    between atoms: C_7  and  C_8
REMARK    3  A    between atoms: C_8  and  O_9
REMARK    4  A    between atoms: O_9  and  C_10
REMARK                            x       y       z     vdW  Elec       q    Type
REMARK                         _______ _______ _______ _____ _____    ______ ____
ROOT
ATOM      1  C   UNL     1      50.845   2.403  17.388  0.00  0.00    +0.000 A 
ATOM      2  C   UNL     1      49.806   1.741  16.723  0.00  0.00    +0.000 A 
ATOM      3  C   UNL     1      48.631   2.429  16.398  0.00  0.00    +0.000 A 
ATOM      4  C   UNL     1      48.484   3.785  16.726  0.00  0.00    +0.000 A 
ATOM      5  C   UNL     1      49.517   4.432  17.420  0.00  0.00    +0.000 A 
ATOM      6  C   UNL     1      50.688   3.745  17.749  0.00  0.00    +0.000 A 
ENDROOT
BRANCH   1   8
ATOM      7  N   UNL     1      52.028   0.397  18.114  0.00  0.00    +0.000 N 
ATOM      8  C   UNL     1      52.111   1.714  17.757  0.00  0.00    +0.000 C 
ATOM      9  O   UNL     1      53.194   2.284  17.704  0.00  0.00    +0.000 OA
ATOM     10  H   UNL     1      52.909  -0.083  18.249  0.00  0.00    +0.000 HD
ATOM     11  H   UNL     1      51.212  -0.165  17.918  0.00  0.00    +0.000 HD
ENDBRANCH   1   8
BRANCH   4  12
ATOM     12  C   UNL     1      47.220   4.532  16.364  0.00  0.00    +0.000 C 
BRANCH  12  13
ATOM     13  O   UNL     1      46.658   3.953  15.190  0.00  0.00    +0.000 OA
BRANCH  13  14
ATOM     14  C   UNL     1      46.576   4.754  14.083  0.00  0.00    +0.000 A 
ATOM     15  C   UNL     1      47.463   5.777  13.739  0.00  0.00    +0.000 A 
ATOM     16  C   UNL     1      47.263   6.520  12.571  0.00  0.00    +0.000 A 
ATOM     17  C   UNL     1      46.177   6.247  11.742  0.00  0.00    +0.000 A 
ATOM     18  C   UNL     1      45.286   5.232  12.081  0.00  0.00    +0.000 A 
ATOM     19  C   UNL     1      45.486   4.491  13.248  0.00  0.00    +0.000 A 
ENDBRANCH  13  14
ENDBRANCH  12  13
ENDBRANCH   4  12
TORSDOF 4
ENDMDL
MODEL 7
REMARK VINA RESULT:    -5.122      5.055      8.261
REMARK INTER + INTRA:          -6.927
REMARK INTER:                  -6.590
REMARK INTRA:                  -0.337
REMARK UNBOUND:                -0.608
REMARK  Name = 
REMARK  4 active torsions:
REMARK  status: ('A' for Active; 'I' for Inactive)
REMARK    1  A    between atoms: C_2  and  C_4
REMARK    2  A    between atoms: C_7  and  C_8
REMARK    3  A    between atoms: C_8  and  O_9
REMARK    4  A    between atoms: O_9  and  C_10
REMARK                            x       y       z     vdW  Elec       q    Type
REMARK                         _______ _______ _______ _____ _____    ______ ____
ROOT
ATOM      1  C   UNL     1      48.622   4.520  18.037  0.00  0.00    +0.000 A 
ATOM      2  C   UNL     1      47.752   3.535  17.554  0.00  0.00    +0.000 A 
ATOM      3  C   UNL     1      47.184   3.665  16.280  0.00  0.00    +0.000 A 
ATOM      4  C   UNL     1      47.485   4.773  15.474  0.00  0.00    +0.000 A 
ATOM      5  C   UNL     1      48.333   5.770  15.979  0.00  0.00    +0.000 A 
ATOM      6  C   UNL     1      48.896   5.644  17.251  0.00  0.00    +0.000 A 
ENDROOT
BRANCH   1   8
ATOM      7  N   UNL     1      48.565   3.737  20.347  0.00  0.00    +0.000 N 
ATOM      8  C   UNL     1      49.247   4.427  19.383  0.00  0.00    +0.000 C 
ATOM      9  O   UNL     1      50.348   4.909  19.617  0.00  0.00    +0.000 OA
ATOM     10  H   UNL     1      49.056   3.588  21.218  0.00  0.00    +0.000 HD
ATOM     11  H   UNL     1      47.800   3.116  20.126  0.00  0.00    +0.000 HD
ENDBRANCH   1   8
BRANCH   4  12
ATOM     12  C   UNL     1      46.882   4.908  14.095  0.00  0.00    +0.000 C 
BRANCH  12  13
ATOM     13  O   UNL     1      45.627   4.233  14.068  0.00  0.00    +0.000 OA
BRANCH  13  14
ATOM     14  C   UNL     1      44.784   4.534  13.031  0.00  0.00    +0.000 A 
ATOM     15  C   UNL     1      43.422   4.823  13.135  0.00  0.00    +0.000 A 
ATOM     16  C   UNL     1      42.675   5.119  11.990  0.00  0.00    +0.000 A 
ATOM     17  C   UNL     1      43.284   5.128  10.737  0.00  0.00    +0.000 A 
ATOM     18  C   UNL     1      44.641   4.836  10.626  0.00  0.00    +0.000 A 
ATOM     19  C   UNL     1      45.386   4.540  11.770  0.00  0.00    +0.000 A 
ENDBRANCH  13  14
ENDBRANCH  12  13
ENDBRANCH   4  12
TORSDOF 4
ENDMDL
MODEL 8
REMARK VINA RESULT:    -5.070      3.159      4.725
REMARK INTER + INTRA:          -6.863
REMARK INTER:                  -6.320
REMARK INTRA:                  -0.542
REMARK UNBOUND:                -0.608
REMARK  Name = 
REMARK  4 active torsions:
REMARK  status: ('A' for Active; 'I' for Inactive)
REMARK    1  A    between atoms: C_2  and  C_4
REMARK    2  A    between atoms: C_7  and  C_8
REMARK    3  A    between atoms: C_8  and  O_9
REMARK    4  A    between atoms: O_9  and  C_10
REMARK                            x       y       z     vdW  Elec       q    Type
REMARK                         _______ _______ _______ _____ _____    ______ ____
ROOT
ATOM      1  C   UNL     1      44.495   4.159  11.417  0.00  0.00    +0.000 A 
ATOM      2  C   UNL     1      44.378   4.655  12.721  0.00  0.00    +0.000 A 
ATOM      3  C   UNL     1      44.951   5.887  13.055  0.00  0.00    +0.000 A 
ATOM      4  C   UNL     1      45.640   6.640  12.092  0.00  0.00    +0.000 A 
ATOM      5  C   UNL     1      45.779   6.121  10.797  0.00  0.00    +0.000 A 
ATOM      6  C   UNL     1      45.210   4.889  10.462  0.00  0.00    +0.000 A 
ENDROOT
BRANCH   1   8
ATOM      7  N   UNL     1      44.473   2.211   9.948  0.00  0.00    +0.000 N 
ATOM      8  C   UNL     1      43.905   2.855  11.013  0.00  0.00    +0.000 C 
ATOM      9  O   UNL     1      42.976   2.349  11.630  0.00  0.00    +0.000 OA
ATOM     10  H   UNL     1      44.134   1.277   9.762  0.00  0.00    +0.000 HD
ATOM     11  H   UNL     1      45.383   2.461   9.590  0.00  0.00    +0.000 HD
ENDBRANCH   1   8
BRANCH   4  12
ATOM     12  C   UNL     1      46.248   7.977  12.451  0.00  0.00    +0.000 C 
BRANCH  12  13
ATOM     13  O   UNL     1      47.636   7.798  12.720  0.00  0.00    +0.000 OA
BRANCH  13  14
ATOM     14  C   UNL     1      48.028   7.875  14.030  0.00  0.00    +0.000 A 
ATOM     15  C   UNL     1      48.016   9.022  14.826  0.00  0.00    +0.000 A 
ATOM     16  C   UNL     1      48.440   8.959  16.158  0.00  0.00    +0.000 A 
ATOM     17  C   UNL     1      48.881   7.753  16.699  0.00  0.00    +0.000 A 
ATOM     18  C   UNL     1      48.900   6.608  15.909  0.00  0.00    +0.000 A 
ATOM     19  C   UNL     1      48.475   6.670  14.579  0.00  0.00    +0.000 A 
ENDBRANCH  13  14
ENDBRANCH  12  13
ENDBRANCH   4  12
TORSDOF 4
ENDMDL
MODEL 9
REMARK VINA RESULT:    -5.068      3.221      5.281
REMARK INTER + INTRA:          -6.861
REMARK INTER:                  -6.378
REMARK INTRA:                  -0.483
REMARK UNBOUND:                -0.608
REMARK  Name = 
REMARK  4 active torsions:
REMARK  status: ('A' for Active; 'I' for Inactive)
REMARK    1  A    between atoms: C_2  and  C_4
REMARK    2  A    between atoms: C_7  and  C_8
REMARK    3  A    between atoms: C_8  and  O_9
REMARK    4  A    between atoms: O_9  and  C_10
REMARK                            x       y       z     vdW  Elec       q    Type
REMARK                         _______ _______ _______ _____ _____    ______ ____
ROOT
ATOM      1  C   UNL     1      44.872   4.471  11.577  0.00  0.00    +0.000 A 
ATOM      2  C   UNL     1      45.520   3.695  12.545  0.00  0.00    +0.000 A 
ATOM      3  C   UNL     1      46.476   4.278  13.385  0.00  0.00    +0.000 A 
ATOM      4  C   UNL     1      46.790   5.641  13.272  0.00  0.00    +0.000 A 
ATOM      5  C   UNL     1      46.158   6.403  12.279  0.00  0.00    +0.000 A 
ATOM      6  C   UNL     1      45.206   5.822  11.437  0.00  0.00    +0.000 A 
ENDROOT
BRANCH   1   8
ATOM      7  N   UNL     1      43.834   4.356   9.372  0.00  0.00    +0.000 N 
ATOM      8  C   UNL     1      43.850   3.897  10.660  0.00  0.00    +0.000 C 
ATOM      9  O   UNL     1      43.080   3.017  11.023  0.00  0.00    +0.000 OA
ATOM     10  H   UNL     1      43.211   3.874   8.737  0.00  0.00    +0.000 HD
ATOM     11  H   UNL     1      44.604   4.873   8.974  0.00  0.00    +0.000 HD
ENDBRANCH   1   8
BRANCH   4  12
ATOM     12  C   UNL     1      47.814   6.273  14.187  0.00  0.00    +0.000 C 
BRANCH  12  13
ATOM     13  O   UNL     1      49.053   6.384  13.492  0.00  0.00    +0.000 OA
BRANCH  13  14
ATOM     14  C   UNL     1      49.391   7.624  13.021  0.00  0.00    +0.000 A 
ATOM     15  C   UNL     1      49.720   7.942  11.702  0.00  0.00    +0.000 A 
ATOM     16  C   UNL     1      50.042   9.258  11.354  0.00  0.00    +0.000 A 
ATOM     17  C   UNL     1      50.039  10.262  12.321  0.00  0.00    +0.000 A 
ATOM     18  C   UNL     1      49.716   9.950  13.638  0.00  0.00    +0.000 A 
ATOM     19  C   UNL     1      49.394   8.636  13.985  0.00  0.00    +0.000 A 
ENDBRANCH  13  14
ENDBRANCH  12  13
ENDBRANCH   4  12
TORSDOF 4
ENDMDL
