MODEL 1
REMARK VINA RESULT:    -9.186      0.000      0.000
REMARK INTER + INTRA:         -11.623
REMARK INTER:                 -11.066
REMARK INTRA:                  -0.557
REMARK UNBOUND:                -0.557
REMARK  Name = 
REMARK  4 active torsions:
REMARK  status: ('A' for Active; 'I' for Inactive)
REMARK    1  A    between atoms: C_2  and  C_4
REMARK    2  A    between atoms: N_8  and  C_9
REMARK    3  A    between atoms: C_9  and  C_10
REMARK    4  A    between atoms: C_18  and  O_19
REMARK                            x       y       z     vdW  Elec       q    Type
REMARK                         _______ _______ _______ _____ _____    ______ ____
ROOT
ATOM      1  C   UNL     1      43.511   4.833  11.030  0.00  0.00    +0.000 C 
ENDROOT
BRANCH   1   2
ATOM      2  C   UNL     1      44.484   5.704  11.786  0.00  0.00    +0.000 A 
ATOM      3  C   UNL     1      44.386   7.092  11.756  0.00  0.00    +0.000 A 
ATOM      4  C   UNL     1      45.292   7.825  12.502  0.00  0.00    +0.000 A 
ATOM      5  N   UNL     1      46.273   7.279  13.259  0.00  0.00    +0.000 NA
ATOM      6  C   UNL     1      46.385   5.935  13.296  0.00  0.00    +0.000 A 
ATOM      7  N   UNL     1      47.389   5.361  14.060  0.00  0.00    +0.000 N 
ATOM      8  C   UNL     1      48.572   6.157  14.390  0.00  0.00    +0.000 C 
ATOM      9  C   UNL     1      48.645   6.468  15.882  0.00  0.00    +0.000 C 
ATOM     10  C   UNL     1      48.448   5.221  16.739  0.00  0.00    +0.000 C 
ATOM     11  C   UNL     1      47.172   4.482  16.351  0.00  0.00    +0.000 C 
ATOM     12  C   UNL     1      47.120   4.167  14.858  0.00  0.00    +0.000 C 
ATOM     13  C   UNL     1      45.513   5.136  12.549  0.00  0.00    +0.000 A 
BRANCH  10  14
ATOM     14  O   UNL     1      49.576   4.352  16.656  0.00  0.00    +0.000 OA
ATOM     15  H   UNL     1      49.926   4.371  15.750  0.00  0.00    +0.000 HD
ENDBRANCH  10  14
ENDBRANCH   1   2
BRANCH   1  20
ATOM     16  C   UNL     1      46.389   2.257   7.725  0.00  0.00    +0.000 A 
ATOM     17  C   UNL     1      45.624   1.777   8.782  0.00  0.00    +0.000 A 
ATOM     18  C   UNL     1      44.757   2.648   9.447  0.00  0.00    +0.000 A 
ATOM     19  C   UNL     1      44.679   3.984   9.059  0.00  0.00    +0.000 A 
ATOM     20  N   UNL     1      43.776   4.882   9.606  0.00  0.00    +0.000 N 
ATOM     21  N   UNL     1      45.439   4.464   8.055  0.00  0.00    +0.000 NA
ATOM     22  C   UNL     1      46.277   3.604   7.413  0.00  0.00    +0.000 A 
ATOM     23  H   UNL     1      44.011   5.805   9.245  0.00  0.00    +0.000 HD
BRANCH  16  25
ATOM     24  N   UNL     1      48.425   2.006   6.417  0.00  0.00    +0.000 N 
ATOM     25  C   UNL     1      47.307   1.408   6.936  0.00  0.00    +0.000 C 
ATOM     26  O   UNL     1      47.099   0.216   6.781  0.00  0.00    +0.000 OA
ATOM     27  H   UNL     1      49.093   1.385   5.978  0.00  0.00    +0.000 HD
ATOM     28  H   UNL     1      48.761   2.902   6.736  0.00  0.00    +0.000 HD
ENDBRANCH  16  25
ENDBRANCH   1  20
TORSDOF 4
ENDMDL
MODEL 2
REMARK VINA RESULT:    -8.992      1.911      2.849
REMARK INTER + INTRA:         -11.390
REMARK INTER:                 -10.845
REMARK INTRA:                  -0.544
REMARK UNBOUND:                -0.557
REMARK  Name = 
REMARK  4 active torsions:
REMARK  status: ('A' for Active; 'I' for Inactive)
REMARK    1  A    between atoms: C_2  and  C_4
REMARK    2  A    between atoms: N_8  and  C_9
REMARK    3  A    between atoms: C_9  and  C_10
REMARK    4  A    between atoms: C_18  and  O_19
REMARK                            x       y       z     vdW  Elec       q    Type
REMARK                         _______ _______ _______ _____ _____    ______ ____
ROOT
ATOM      1  C   UNL     1      43.724   4.685  11.401  0.00  0.00    +0.000 C 
ENDROOT
BRANCH   1   2
ATOM      2  C   UNL     1      44.976   4.795  12.236  0.00  0.00    +0.000 A 
ATOM      3  C   UNL     1      45.532   3.680  12.857  0.00  0.00    +0.000 A 
ATOM      4  C   UNL     1      46.700   3.850  13.577  0.00  0.00    +0.000 A 
ATOM      5  N   UNL     1      47.339   5.036  13.722  0.00  0.00    +0.000 NA
ATOM      6  C   UNL     1      46.813   6.128  13.130  0.00  0.00    +0.000 A 
ATOM      7  N   UNL     1      47.451   7.349  13.275  0.00  0.00    +0.000 N 
ATOM      8  C   UNL     1      48.345   7.551  14.415  0.00  0.00    +0.000 C 
ATOM      9  C   UNL     1      49.799   7.691  13.977  0.00  0.00    +0.000 C 
ATOM     10  C   UNL     1      49.963   8.699  12.843  0.00  0.00    +0.000 C 
ATOM     11  C   UNL     1      49.023   8.383  11.685  0.00  0.00    +0.000 C 
ATOM     12  C   UNL     1      47.571   8.260  12.139  0.00  0.00    +0.000 C 
ATOM     13  C   UNL     1      45.622   6.028  12.402  0.00  0.00    +0.000 A 
BRANCH  10  14
ATOM     14  O   UNL     1      49.761  10.034  13.304  0.00  0.00    +0.000 OA
ATOM     15  H   UNL     1      49.684  10.027  14.273  0.00  0.00    +0.000 HD
ENDBRANCH  10  14
ENDBRANCH   1   2
BRANCH   1  20
ATOM     16  C   UNL     1      46.454   2.578   7.665  0.00  0.00    +0.000 A 
ATOM     17  C   UNL     1      45.647   1.963   8.616  0.00  0.00    +0.000 A 
ATOM     18  C   UNL     1      44.834   2.752   9.434  0.00  0.00    +0.000 A 
ATOM     19  C   UNL     1      44.853   4.140   9.303  0.00  0.00    +0.000 A 
ATOM     20  N   UNL     1      44.007   4.980  10.011  0.00  0.00    +0.000 N 
ATOM     21  N   UNL     1      45.654   4.744   8.405  0.00  0.00    +0.000 NA
ATOM     22  C   UNL     1      46.437   3.964   7.611  0.00  0.00    +0.000 A 
ATOM     23  H   UNL     1      44.308   5.936   9.827  0.00  0.00    +0.000 HD
BRANCH  16  25
ATOM     24  N   UNL     1      48.350   2.516   6.141  0.00  0.00    +0.000 N 
ATOM     25  C   UNL     1      47.320   1.829   6.730  0.00  0.00    +0.000 C 
ATOM     26  O   UNL     1      47.150   0.641   6.514  0.00  0.00    +0.000 OA
ATOM     27  H   UNL     1      48.994   1.960   5.594  0.00  0.00    +0.000 HD
ATOM     28  H   UNL     1      48.677   3.406   6.485  0.00  0.00    +0.000 HD
ENDBRANCH  16  25
ENDBRANCH   1  20
TORSDOF 4
ENDMDL
MODEL 3
REMARK VINA RESULT:    -6.932      3.373      8.457
REMARK INTER + INTRA:          -8.908
REMARK INTER:                  -8.307
REMARK INTRA:                  -0.601
REMARK UNBOUND:                -0.557
REMARK  Name = 
REMARK  4 active torsions:
REMARK  status: ('A' for Active; 'I' for Inactive)
REMARK    1  A    between atoms: C_2  and  C_4
REMARK    2  A    between atoms: N_8  and  C_9
REMARK    3  A    between atoms: C_9  and  C_10
REMARK    4  A    between atoms: C_18  and  O_19
REMARK                            x       y       z     vdW  Elec       q    Type
REMARK                         _______ _______ _______ _____ _____    ______ ____
ROOT
ATOM      1  C   UNL     1      49.270   7.055  14.019  0.00  0.00    +0.000 C 
ENDROOT
BRANCH   1   2
ATOM      2  C   UNL     1      47.821   7.112  13.602  0.00  0.00    +0.000 A 
ATOM      3  C   UNL     1      47.201   8.323  13.306  0.00  0.00    +0.000 A 
ATOM      4  C   UNL     1      45.880   8.296  12.897  0.00  0.00    +0.000 A 
ATOM      5  N   UNL     1      45.147   7.165  12.766  0.00  0.00    +0.000 NA
ATOM      6  C   UNL     1      45.731   5.983  13.052  0.00  0.00    +0.000 A 
ATOM      7  N   UNL     1      44.991   4.817  12.931  0.00  0.00    +0.000 N 
ATOM      8  C   UNL     1      43.531   4.893  12.993  0.00  0.00    +0.000 C 
ATOM      9  C   UNL     1      42.889   4.552  11.652  0.00  0.00    +0.000 C 
ATOM     10  C   UNL     1      43.442   3.257  11.063  0.00  0.00    +0.000 C 
ATOM     11  C   UNL     1      44.965   3.287  11.000  0.00  0.00    +0.000 C 
ATOM     12  C   UNL     1      45.591   3.617  12.353  0.00  0.00    +0.000 C 
ATOM     13  C   UNL     1      47.058   5.942  13.490  0.00  0.00    +0.000 A 
BRANCH  10  14
ATOM     14  O   UNL     1      42.992   2.121  11.800  0.00  0.00    +0.000 OA
ATOM     15  H   UNL     1      43.060   1.331  11.239  0.00  0.00    +0.000 HD
ENDBRANCH  10  14
ENDBRANCH   1   2
BRANCH   1  20
ATOM     16  C   UNL     1      48.453   5.841  18.888  0.00  0.00    +0.000 A 
ATOM     17  C   UNL     1      48.955   5.051  17.859  0.00  0.00    +0.000 A 
ATOM     18  C   UNL     1      49.277   5.647  16.637  0.00  0.00    +0.000 A 
ATOM     19  C   UNL     1      49.076   7.015  16.454  0.00  0.00    +0.000 A 
ATOM     20  N   UNL     1      49.459   7.691  15.306  0.00  0.00    +0.000 N 
ATOM     21  N   UNL     1      48.562   7.780  17.436  0.00  0.00    +0.000 NA
ATOM     22  C   UNL     1      48.257   7.188  18.623  0.00  0.00    +0.000 A 
ATOM     23  H   UNL     1      49.089   8.637  15.376  0.00  0.00    +0.000 HD
BRANCH  16  25
ATOM     24  N   UNL     1      48.605   4.074  20.553  0.00  0.00    +0.000 N 
ATOM     25  C   UNL     1      48.117   5.312  20.227  0.00  0.00    +0.000 C 
ATOM     26  O   UNL     1      47.462   5.962  21.024  0.00  0.00    +0.000 OA
ATOM     27  H   UNL     1      48.458   3.781  21.511  0.00  0.00    +0.000 HD
ATOM     28  H   UNL     1      49.351   3.629  20.039  0.00  0.00    +0.000 HD
ENDBRANCH  16  25
ENDBRANCH   1  20
TORSDOF 4
ENDMDL
MODEL 4
REMARK VINA RESULT:    -6.512      3.710      5.508
REMARK INTER + INTRA:          -8.402
REMARK INTER:                  -8.010
REMARK INTRA:                  -0.393
REMARK UNBOUND:                -0.557
REMARK  Name = 
REMARK  4 active torsions:
REMARK  status: ('A' for Active; 'I' for Inactive)
REMARK    1  A    between atoms: C_2  and  C_4
REMARK    2  A    between atoms: N_8  and  C_9
REMARK    3  A    between atoms: C_9  and  C_10
REMARK    4  A    between atoms: C_18  and  O_19
REMARK                            x       y       z     vdW  Elec       q    Type
REMARK                         _______ _______ _______ _____ _____    ______ ____
ROOT
ATOM      1  C   UNL     1      48.554   7.540  13.455  0.00  0.00    +0.000 C 
ENDROOT
BRANCH   1   2
ATOM      2  C   UNL     1      49.411   7.248  14.663  0.00  0.00    +0.000 A 
ATOM      3  C   UNL     1      50.643   7.871  14.844  0.00  0.00    +0.000 A 
ATOM      4  C   UNL     1      51.356   7.582  15.992  0.00  0.00    +0.000 A 
ATOM      5  N   UNL     1      50.935   6.727  16.955  0.00  0.00    +0.000 NA
ATOM      6  C   UNL     1      49.745   6.111  16.794  0.00  0.00    +0.000 A 
ATOM      7  N   UNL     1      49.304   5.228  17.767  0.00  0.00    +0.000 N 
ATOM      8  C   UNL     1      50.286   4.602  18.654  0.00  0.00    +0.000 C 
ATOM      9  C   UNL     1      50.138   5.088  20.092  0.00  0.00    +0.000 C 
ATOM     10  C   UNL     1      48.693   5.017  20.578  0.00  0.00    +0.000 C 
ATOM     11  C   UNL     1      47.752   5.730  19.612  0.00  0.00    +0.000 C 
ATOM     12  C   UNL     1      47.904   5.223  18.180  0.00  0.00    +0.000 C 
ATOM     13  C   UNL     1      48.982   6.345  15.646  0.00  0.00    +0.000 A 
BRANCH  10  14
ATOM     14  O   UNL     1      48.280   3.665  20.775  0.00  0.00    +0.000 OA
ATOM     15  H   UNL     1      47.342   3.653  21.031  0.00  0.00    +0.000 HD
ENDBRANCH  10  14
ENDBRANCH   1   2
BRANCH   1  20
ATOM     16  C   UNL     1      44.659   4.457  12.376  0.00  0.00    +0.000 A 
ATOM     17  C   UNL     1      45.978   4.133  12.672  0.00  0.00    +0.000 A 
ATOM     18  C   UNL     1      46.841   5.134  13.126  0.00  0.00    +0.000 A 
ATOM     19  C   UNL     1      46.380   6.442  13.260  0.00  0.00    +0.000 A 
ATOM     20  N   UNL     1      47.148   7.467  13.793  0.00  0.00    +0.000 N 
ATOM     21  N   UNL     1      45.112   6.770  12.946  0.00  0.00    +0.000 NA
ATOM     22  C   UNL     1      44.280   5.785  12.509  0.00  0.00    +0.000 A 
ATOM     23  H   UNL     1      46.628   8.333  13.661  0.00  0.00    +0.000 HD
BRANCH  16  25
ATOM     24  N   UNL     1      43.702   2.223  12.504  0.00  0.00    +0.000 N 
ATOM     25  C   UNL     1      43.661   3.464  11.924  0.00  0.00    +0.000 C 
ATOM     26  O   UNL     1      42.812   3.744  11.094  0.00  0.00    +0.000 OA
ATOM     27  H   UNL     1      42.944   1.598  12.263  0.00  0.00    +0.000 HD
ATOM     28  H   UNL     1      44.204   2.039  13.360  0.00  0.00    +0.000 HD
ENDBRANCH  16  25
ENDBRANCH   1  20
TORSDOF 4
ENDMDL
MODEL 5
REMARK VINA RESULT:    -6.311      3.432      8.033
REMARK INTER + INTRA:          -8.160
REMARK INTER:                  -7.786
REMARK INTRA:                  -0.374
REMARK UNBOUND:                -0.557
REMARK  Name = 
REMARK  4 active torsions:
REMARK  status: ('A' for Active; 'I' for Inactive)
REMARK    1  A    between atoms: C_2  and  C_4
REMARK    2  A    between atoms: N_8  and  C_9
REMARK    3  A    between atoms: C_9  and  C_10
REMARK    4  A    between atoms: C_18  and  O_19
REMARK                            x       y       z     vdW  Elec       q    Type
REMARK                         _______ _______ _______ _____ _____    ______ ____
ROOT
ATOM      1  C   UNL     1      48.526   7.895  14.292  0.00  0.00    +0.000 C 
ENDROOT
BRANCH   1   2
ATOM      2  C   UNL     1      47.231   7.776  13.526  0.00  0.00    +0.000 A 
ATOM      3  C   UNL     1      46.714   8.851  12.808  0.00  0.00    +0.000 A 
ATOM      4  C   UNL     1      45.541   8.658  12.101  0.00  0.00    +0.000 A 
ATOM      5  N   UNL     1      44.859   7.488  12.063  0.00  0.00    +0.000 NA
ATOM      6  C   UNL     1      45.344   6.437  12.755  0.00  0.00    +0.000 A 
ATOM      7  N   UNL     1      44.653   5.235  12.732  0.00  0.00    +0.000 N 
ATOM      8  C   UNL     1      43.226   5.244  12.409  0.00  0.00    +0.000 C 
ATOM      9  C   UNL     1      42.945   4.570  11.070  0.00  0.00    +0.000 C 
ATOM     10  C   UNL     1      43.623   3.207  10.960  0.00  0.00    +0.000 C 
ATOM     11  C   UNL     1      45.112   3.305  11.273  0.00  0.00    +0.000 C 
ATOM     12  C   UNL     1      45.374   3.970  12.622  0.00  0.00    +0.000 C 
ATOM     13  C   UNL     1      46.516   6.571  13.507  0.00  0.00    +0.000 A 
BRANCH  10  14
ATOM     14  O   UNL     1      42.994   2.246  11.808  0.00  0.00    +0.000 OA
ATOM     15  H   UNL     1      42.030   2.328  11.720  0.00  0.00    +0.000 HD
ENDBRANCH  10  14
ENDBRANCH   1   2
BRANCH   1  20
ATOM     16  C   UNL     1      51.510   5.060  17.276  0.00  0.00    +0.000 A 
ATOM     17  C   UNL     1      51.837   6.178  16.516  0.00  0.00    +0.000 A 
ATOM     18  C   UNL     1      50.814   6.919  15.918  0.00  0.00    +0.000 A 
ATOM     19  C   UNL     1      49.487   6.523  16.072  0.00  0.00    +0.000 A 
ATOM     20  N   UNL     1      48.415   7.259  15.589  0.00  0.00    +0.000 N 
ATOM     21  N   UNL     1      49.164   5.424  16.780  0.00  0.00    +0.000 NA
ATOM     22  C   UNL     1      50.169   4.714  17.361  0.00  0.00    +0.000 A 
ATOM     23  H   UNL     1      47.578   6.694  15.720  0.00  0.00    +0.000 HD
BRANCH  16  25
ATOM     24  N   UNL     1      52.051   3.192  18.738  0.00  0.00    +0.000 N 
ATOM     25  C   UNL     1      52.515   4.233  17.977  0.00  0.00    +0.000 C 
ATOM     26  O   UNL     1      53.711   4.444  17.859  0.00  0.00    +0.000 OA
ATOM     27  H   UNL     1      52.758   2.575  19.118  0.00  0.00    +0.000 HD
ATOM     28  H   UNL     1      51.113   2.831  18.653  0.00  0.00    +0.000 HD
ENDBRANCH  16  25
ENDBRANCH   1  20
TORSDOF 4
ENDMDL
