MODEL 1
REMARK VINA RESULT:    -8.745      0.000      0.000
REMARK INTER + INTRA:         -13.020
REMARK INTER:                 -11.812
REMARK INTRA:                  -1.208
REMARK UNBOUND:                -1.208
REMARK  Name = 
REMARK  7 active torsions:
REMARK  status: ('A' for Active; 'I' for Inactive)
REMARK    1  A    between atoms: C_1  and  O_2
REMARK    2  A    between atoms: O_2  and  C_3
REMARK    3  A    between atoms: C_7  and  C_8
REMARK    4  A    between atoms: C_12  and  C_13
REMARK    5  A    between atoms: C_13  and  N_14
REMARK    6  A    between atoms: N_14  and  C_15
REMARK    7  A    between atoms: C_18  and  C_19
REMARK                            x       y       z     vdW  Elec       q    Type
REMARK                         _______ _______ _______ _____ _____    ______ ____
ROOT
ATOM      1  C   UNL     1      43.820   4.989  11.394  0.00  0.00    +0.000 C 
ATOM      2  C   UNL     1      42.993   6.217  11.084  0.00  0.00    +0.000 C 
ATOM      3  C   UNL     1      42.543   5.304  12.175  0.00  0.00    +0.000 C 
ENDROOT
BRANCH   1   8
ATOM      4  C   UNL     1      47.222   6.505  12.470  0.00  0.00    +0.000 A 
ATOM      5  C   UNL     1      47.617   5.581  13.447  0.00  0.00    +0.000 A 
ATOM      6  C   UNL     1      46.818   4.479  13.758  0.00  0.00    +0.000 A 
ATOM      7  C   UNL     1      45.600   4.284  13.102  0.00  0.00    +0.000 A 
ATOM      8  C   UNL     1      45.152   5.177  12.120  0.00  0.00    +0.000 A 
ATOM      9  C   UNL     1      45.988   6.274  11.826  0.00  0.00    +0.000 A 
BRANCH   4  14
ATOM     10  C   UNL     1      50.194   8.663  11.497  0.00  0.00    +0.000 A 
ATOM     11  C   UNL     1      49.580   9.905  11.543  0.00  0.00    +0.000 A 
ATOM     12  N   UNL     1      48.271  10.095  11.825  0.00  0.00    +0.000 NA
ATOM     13  C   UNL     1      47.546   8.983  12.105  0.00  0.00    +0.000 A 
ATOM     14  C   UNL     1      48.049   7.680  12.116  0.00  0.00    +0.000 A 
ATOM     15  C   UNL     1      49.411   7.549  11.791  0.00  0.00    +0.000 A 
BRANCH  10  17
ATOM     16  C   UNL     1      51.961   7.564  10.382  0.00  0.00    +0.000 C 
ATOM     17  O   UNL     1      51.529   8.639  11.211  0.00  0.00    +0.000 OA
ENDBRANCH  10  17
ENDBRANCH   4  14
ENDBRANCH   1   8
BRANCH   1  18
ATOM     18  N   UNL     1      43.727   3.752  10.604  0.00  0.00    +0.000 N 
ATOM     19  H   UNL     1      43.186   2.999  11.011  0.00  0.00    +0.000 HD
BRANCH  18  20
ATOM     20  C   UNL     1      44.574   3.351   9.557  0.00  0.00    +0.000 A 
ATOM     21  C   UNL     1      44.946   2.027   9.317  0.00  0.00    +0.000 A 
ATOM     22  C   UNL     1      45.885   1.717   8.322  0.00  0.00    +0.000 A 
ATOM     23  C   UNL     1      46.469   2.730   7.552  0.00  0.00    +0.000 A 
ATOM     24  C   UNL     1      46.100   4.057   7.777  0.00  0.00    +0.000 A 
ATOM     25  C   UNL     1      45.162   4.356   8.769  0.00  0.00    +0.000 A 
BRANCH  23  26
ATOM     26  C   UNL     1      47.516   2.370   6.555  0.00  0.00    +0.000 C 
ATOM     27  N   UNL     1      47.530   3.046   5.371  0.00  0.00    +0.000 N 
ATOM     28  O   UNL     1      48.332   1.485   6.780  0.00  0.00    +0.000 OA
ATOM     29  H   UNL     1      46.758   3.613   5.049  0.00  0.00    +0.000 HD
ATOM     30  H   UNL     1      48.205   2.739   4.684  0.00  0.00    +0.000 HD
ENDBRANCH  23  26
ENDBRANCH  18  20
ENDBRANCH   1  18
TORSDOF 6
ENDMDL
MODEL 2
REMARK VINA RESULT:    -8.640      2.704      4.154
REMARK INTER + INTRA:         -12.879
REMARK INTER:                 -12.330
REMARK INTRA:                  -0.548
REMARK UNBOUND:                -1.208
REMARK  Name = 
REMARK  7 active torsions:
REMARK  status: ('A' for Active; 'I' for Inactive)
REMARK    1  A    between atoms: C_1  and  O_2
REMARK    2  A    between atoms: O_2  and  C_3
REMARK    3  A    between atoms: C_7  and  C_8
REMARK    4  A    between atoms: C_12  and  C_13
REMARK    5  A    between atoms: C_13  and  N_14
REMARK    6  A    between atoms: N_14  and  C_15
REMARK    7  A    between atoms: C_18  and  C_19
REMARK                            x       y       z     vdW  Elec       q    Type
REMARK                         _______ _______ _______ _____ _____    ______ ____
ROOT
ATOM      1  C   UNL     1      43.827   5.101  11.373  0.00  0.00    +0.000 C 
ATOM      2  C   UNL     1      42.569   5.467  12.129  0.00  0.00    +0.000 C 
ATOM      3  C   UNL     1      43.081   4.070  12.221  0.00  0.00    +0.000 C 
ENDROOT
BRANCH   1   8
ATOM      4  C   UNL     1      46.939   5.537  13.643  0.00  0.00    +0.000 A 
ATOM      5  C   UNL     1      47.645   6.513  12.925  0.00  0.00    +0.000 A 
ATOM      6  C   UNL     1      47.137   7.037  11.735  0.00  0.00    +0.000 A 
ATOM      7  C   UNL     1      45.912   6.588  11.234  0.00  0.00    +0.000 A 
ATOM      8  C   UNL     1      45.165   5.612  11.906  0.00  0.00    +0.000 A 
ATOM      9  C   UNL     1      45.705   5.111  13.108  0.00  0.00    +0.000 A 
BRANCH   4  14
ATOM     10  C   UNL     1      48.761   5.164  16.955  0.00  0.00    +0.000 A 
ATOM     11  C   UNL     1      48.457   3.837  17.219  0.00  0.00    +0.000 A 
ATOM     12  N   UNL     1      47.676   3.066  16.428  0.00  0.00    +0.000 NA
ATOM     13  C   UNL     1      47.199   3.648  15.299  0.00  0.00    +0.000 A 
ATOM     14  C   UNL     1      47.451   4.964  14.907  0.00  0.00    +0.000 A 
ATOM     15  C   UNL     1      48.250   5.720  15.785  0.00  0.00    +0.000 A 
BRANCH  10  17
ATOM     16  C   UNL     1      49.568   5.281  19.170  0.00  0.00    +0.000 C 
ATOM     17  O   UNL     1      49.577   5.802  17.845  0.00  0.00    +0.000 OA
ENDBRANCH  10  17
ENDBRANCH   4  14
ENDBRANCH   1   8
BRANCH   1  18
ATOM     18  N   UNL     1      43.823   4.785   9.937  0.00  0.00    +0.000 N 
ATOM     19  H   UNL     1      42.937   4.884   9.458  0.00  0.00    +0.000 HD
BRANCH  18  20
ATOM     20  C   UNL     1      44.773   4.024   9.235  0.00  0.00    +0.000 A 
ATOM     21  C   UNL     1      45.669   4.557   8.307  0.00  0.00    +0.000 A 
ATOM     22  C   UNL     1      46.511   3.717   7.563  0.00  0.00    +0.000 A 
ATOM     23  C   UNL     1      46.467   2.329   7.734  0.00  0.00    +0.000 A 
ATOM     24  C   UNL     1      45.580   1.784   8.664  0.00  0.00    +0.000 A 
ATOM     25  C   UNL     1      44.747   2.628   9.402  0.00  0.00    +0.000 A 
BRANCH  23  26
ATOM     26  C   UNL     1      47.323   1.465   6.874  0.00  0.00    +0.000 C 
ATOM     27  N   UNL     1      48.372   2.047   6.226  0.00  0.00    +0.000 N 
ATOM     28  O   UNL     1      47.089   0.270   6.737  0.00  0.00    +0.000 OA
ATOM     29  H   UNL     1      48.472   3.048   6.125  0.00  0.00    +0.000 HD
ATOM     30  H   UNL     1      48.898   1.457   5.596  0.00  0.00    +0.000 HD
ENDBRANCH  23  26
ENDBRANCH  18  20
ENDBRANCH   1  18
TORSDOF 6
ENDMDL
MODEL 3
REMARK VINA RESULT:    -7.598      1.705      2.496
REMARK INTER + INTRA:         -11.471
REMARK INTER:                 -11.075
REMARK INTRA:                  -0.397
REMARK UNBOUND:                -1.208
REMARK  Name = 
REMARK  7 active torsions:
REMARK  status: ('A' for Active; 'I' for Inactive)
REMARK    1  A    between atoms: C_1  and  O_2
REMARK    2  A    between atoms: O_2  and  C_3
REMARK    3  A    between atoms: C_7  and  C_8
REMARK    4  A    between atoms: C_12  and  C_13
REMARK    5  A    between atoms: C_13  and  N_14
REMARK    6  A    between atoms: N_14  and  C_15
REMARK    7  A    between atoms: C_18  and  C_19
REMARK                            x       y       z     vdW  Elec       q    Type
REMARK                         _______ _______ _______ _____ _____    ______ ____
ROOT
ATOM      1  C   UNL     1      43.934   5.013  11.688  0.00  0.00    +0.000 C 
ATOM      2  C   UNL     1      42.983   4.596  12.789  0.00  0.00    +0.000 C 
ATOM      3  C   UNL     1      44.286   3.882  12.656  0.00  0.00    +0.000 C 
ENDROOT
BRANCH   1   8
ATOM      4  C   UNL     1      46.682   7.564  12.675  0.00  0.00    +0.000 A 
ATOM      5  C   UNL     1      46.137   8.743  12.150  0.00  0.00    +0.000 A 
ATOM      6  C   UNL     1      44.904   8.735  11.494  0.00  0.00    +0.000 A 
ATOM      7  C   UNL     1      44.193   7.542  11.345  0.00  0.00    +0.000 A 
ATOM      8  C   UNL     1      44.690   6.332  11.846  0.00  0.00    +0.000 A 
ATOM      9  C   UNL     1      45.934   6.379  12.509  0.00  0.00    +0.000 A 
BRANCH   4  14
ATOM     10  C   UNL     1      50.291   8.302  13.603  0.00  0.00    +0.000 A 
ATOM     11  C   UNL     1      50.427   7.412  14.658  0.00  0.00    +0.000 A 
ATOM     12  N   UNL     1      49.430   6.621  15.116  0.00  0.00    +0.000 NA
ATOM     13  C   UNL     1      48.243   6.706  14.465  0.00  0.00    +0.000 A 
ATOM     14  C   UNL     1      47.984   7.541  13.377  0.00  0.00    +0.000 A 
ATOM     15  C   UNL     1      49.055   8.356  12.964  0.00  0.00    +0.000 A 
BRANCH  10  17
ATOM     16  C   UNL     1      52.026   8.621  12.035  0.00  0.00    +0.000 C 
ATOM     17  O   UNL     1      51.396   9.020  13.249  0.00  0.00    +0.000 OA
ENDBRANCH  10  17
ENDBRANCH   4  14
ENDBRANCH   1   8
BRANCH   1  18
ATOM     18  N   UNL     1      43.780   4.561  10.298  0.00  0.00    +0.000 N 
ATOM     19  H   UNL     1      42.831   4.435   9.969  0.00  0.00    +0.000 HD
BRANCH  18  20
ATOM     20  C   UNL     1      44.752   3.938   9.497  0.00  0.00    +0.000 A 
ATOM     21  C   UNL     1      45.606   4.622   8.630  0.00  0.00    +0.000 A 
ATOM     22  C   UNL     1      46.473   3.920   7.780  0.00  0.00    +0.000 A 
ATOM     23  C   UNL     1      46.496   2.520   7.782  0.00  0.00    +0.000 A 
ATOM     24  C   UNL     1      45.653   1.825   8.648  0.00  0.00    +0.000 A 
ATOM     25  C   UNL     1      44.794   2.533   9.494  0.00  0.00    +0.000 A 
BRANCH  23  26
ATOM     26  C   UNL     1      47.377   1.809   6.813  0.00  0.00    +0.000 C 
ATOM     27  N   UNL     1      48.400   2.509   6.245  0.00  0.00    +0.000 N 
ATOM     28  O   UNL     1      47.184   0.635   6.519  0.00  0.00    +0.000 OA
ATOM     29  H   UNL     1      48.464   3.517   6.277  0.00  0.00    +0.000 HD
ATOM     30  H   UNL     1      48.943   2.026   5.542  0.00  0.00    +0.000 HD
ENDBRANCH  23  26
ENDBRANCH  18  20
ENDBRANCH   1  18
TORSDOF 6
ENDMDL
MODEL 4
REMARK VINA RESULT:    -6.977      3.100      7.565
REMARK INTER + INTRA:         -10.633
REMARK INTER:                  -9.518
REMARK INTRA:                  -1.115
REMARK UNBOUND:                -1.208
REMARK  Name = 
REMARK  7 active torsions:
REMARK  status: ('A' for Active; 'I' for Inactive)
REMARK    1  A    between atoms: C_1  and  O_2
REMARK    2  A    between atoms: O_2  and  C_3
REMARK    3  A    between atoms: C_7  and  C_8
REMARK    4  A    between atoms: C_12  and  C_13
REMARK    5  A    between atoms: C_13  and  N_14
REMARK    6  A    between atoms: N_14  and  C_15
REMARK    7  A    between atoms: C_18  and  C_19
REMARK                            x       y       z     vdW  Elec       q    Type
REMARK                         _______ _______ _______ _____ _____    ______ ____
ROOT
ATOM      1  C   UNL     1      46.280   7.457  12.516  0.00  0.00    +0.000 C 
ATOM      2  C   UNL     1      45.784   8.728  13.170  0.00  0.00    +0.000 C 
ATOM      3  C   UNL     1      46.557   8.828  11.897  0.00  0.00    +0.000 C 
ENDROOT
BRANCH   1   8
ATOM      4  C   UNL     1      44.788   4.714  10.219  0.00  0.00    +0.000 A 
ATOM      5  C   UNL     1      43.422   4.866  10.493  0.00  0.00    +0.000 A 
ATOM      6  C   UNL     1      42.973   5.835  11.392  0.00  0.00    +0.000 A 
ATOM      7  C   UNL     1      43.886   6.669  12.042  0.00  0.00    +0.000 A 
ATOM      8  C   UNL     1      45.263   6.561  11.811  0.00  0.00    +0.000 A 
ATOM      9  C   UNL     1      45.679   5.576  10.891  0.00  0.00    +0.000 A 
BRANCH   4  14
ATOM     10  C   UNL     1      46.297   3.102   7.127  0.00  0.00    +0.000 A 
ATOM     11  C   UNL     1      46.151   1.771   7.488  0.00  0.00    +0.000 A 
ATOM     12  N   UNL     1      45.640   1.356   8.669  0.00  0.00    +0.000 NA
ATOM     13  C   UNL     1      45.226   2.326   9.522  0.00  0.00    +0.000 A 
ATOM     14  C   UNL     1      45.294   3.698   9.269  0.00  0.00    +0.000 A 
ATOM     15  C   UNL     1      45.858   4.064   8.033  0.00  0.00    +0.000 A 
BRANCH  10  17
ATOM     16  C   UNL     1      47.743   2.392   5.403  0.00  0.00    +0.000 C 
ATOM     17  O   UNL     1      46.817   3.358   5.891  0.00  0.00    +0.000 OA
ENDBRANCH  10  17
ENDBRANCH   4  14
ENDBRANCH   1   8
BRANCH   1  18
ATOM     18  N   UNL     1      47.499   6.764  12.959  0.00  0.00    +0.000 N 
ATOM     19  H   UNL     1      48.094   6.393  12.228  0.00  0.00    +0.000 HD
BRANCH  18  20
ATOM     20  C   UNL     1      47.756   6.233  14.234  0.00  0.00    +0.000 A 
ATOM     21  C   UNL     1      48.676   6.773  15.134  0.00  0.00    +0.000 A 
ATOM     22  C   UNL     1      48.959   6.121  16.344  0.00  0.00    +0.000 A 
ATOM     23  C   UNL     1      48.327   4.915  16.669  0.00  0.00    +0.000 A 
ATOM     24  C   UNL     1      47.401   4.368  15.781  0.00  0.00    +0.000 A 
ATOM     25  C   UNL     1      47.123   5.026  14.580  0.00  0.00    +0.000 A 
BRANCH  23  26
ATOM     26  C   UNL     1      48.708   4.214  17.928  0.00  0.00    +0.000 C 
ATOM     27  N   UNL     1      48.217   2.958  18.134  0.00  0.00    +0.000 N 
ATOM     28  O   UNL     1      49.427   4.749  18.763  0.00  0.00    +0.000 OA
ATOM     29  H   UNL     1      47.454   2.569  17.599  0.00  0.00    +0.000 HD
ATOM     30  H   UNL     1      48.433   2.530  19.024  0.00  0.00    +0.000 HD
ENDBRANCH  23  26
ENDBRANCH  18  20
ENDBRANCH   1  18
TORSDOF 6
ENDMDL
MODEL 5
REMARK VINA RESULT:    -6.921      3.167      7.497
REMARK INTER + INTRA:         -10.556
REMARK INTER:                  -9.699
REMARK INTRA:                  -0.858
REMARK UNBOUND:                -1.208
REMARK  Name = 
REMARK  7 active torsions:
REMARK  status: ('A' for Active; 'I' for Inactive)
REMARK    1  A    between atoms: C_1  and  O_2
REMARK    2  A    between atoms: O_2  and  C_3
REMARK    3  A    between atoms: C_7  and  C_8
REMARK    4  A    between atoms: C_12  and  C_13
REMARK    5  A    between atoms: C_13  and  N_14
REMARK    6  A    between atoms: N_14  and  C_15
REMARK    7  A    between atoms: C_18  and  C_19
REMARK                            x       y       z     vdW  Elec       q    Type
REMARK                         _______ _______ _______ _____ _____    ______ ____
ROOT
ATOM      1  C   UNL     1      48.200   8.204  12.560  0.00  0.00    +0.000 C 
ATOM      2  C   UNL     1      48.508   9.631  12.956  0.00  0.00    +0.000 C 
ATOM      3  C   UNL     1      49.056   9.108  11.671  0.00  0.00    +0.000 C 
ENDROOT
BRANCH   1   8
ATOM      4  C   UNL     1      45.232   6.305  10.944  0.00  0.00    +0.000 A 
ATOM      5  C   UNL     1      44.190   7.215  11.172  0.00  0.00    +0.000 A 
ATOM      6  C   UNL     1      44.426   8.427  11.824  0.00  0.00    +0.000 A 
ATOM      7  C   UNL     1      45.710   8.749  12.270  0.00  0.00    +0.000 A 
ATOM      8  C   UNL     1      46.788   7.877  12.075  0.00  0.00    +0.000 A 
ATOM      9  C   UNL     1      46.515   6.666  11.405  0.00  0.00    +0.000 A 
BRANCH   4  14
ATOM     10  C   UNL     1      45.350   3.546   8.334  0.00  0.00    +0.000 A 
ATOM     11  C   UNL     1      44.518   2.628   8.956  0.00  0.00    +0.000 A 
ATOM     12  N   UNL     1      43.954   2.816  10.171  0.00  0.00    +0.000 NA
ATOM     13  C   UNL     1      44.215   3.999  10.782  0.00  0.00    +0.000 A 
ATOM     14  C   UNL     1      45.014   5.015  10.253  0.00  0.00    +0.000 A 
ATOM     15  C   UNL     1      45.590   4.747   8.998  0.00  0.00    +0.000 A 
BRANCH  10  17
ATOM     16  C   UNL     1      46.890   2.264   7.087  0.00  0.00    +0.000 C 
ATOM     17  O   UNL     1      45.829   3.215   7.099  0.00  0.00    +0.000 OA
ENDBRANCH  10  17
ENDBRANCH   4  14
ENDBRANCH   1   8
BRANCH   1  18
ATOM     18  N   UNL     1      48.939   7.055  13.103  0.00  0.00    +0.000 N 
ATOM     19  H   UNL     1      49.652   6.657  12.504  0.00  0.00    +0.000 HD
BRANCH  18  20
ATOM     20  C   UNL     1      48.547   6.220  14.163  0.00  0.00    +0.000 A 
ATOM     21  C   UNL     1      47.612   5.191  14.043  0.00  0.00    +0.000 A 
ATOM     22  C   UNL     1      47.188   4.475  15.172  0.00  0.00    +0.000 A 
ATOM     23  C   UNL     1      47.692   4.780  16.441  0.00  0.00    +0.000 A 
ATOM     24  C   UNL     1      48.632   5.802  16.574  0.00  0.00    +0.000 A 
ATOM     25  C   UNL     1      49.051   6.509  15.444  0.00  0.00    +0.000 A 
BRANCH  23  26
ATOM     26  C   UNL     1      47.164   4.047  17.626  0.00  0.00    +0.000 C 
ATOM     27  N   UNL     1      47.358   4.599  18.858  0.00  0.00    +0.000 N 
ATOM     28  O   UNL     1      46.586   2.974  17.506  0.00  0.00    +0.000 OA
ATOM     29  H   UNL     1      48.013   5.350  19.030  0.00  0.00    +0.000 HD
ATOM     30  H   UNL     1      47.051   4.053  19.651  0.00  0.00    +0.000 HD
ENDBRANCH  23  26
ENDBRANCH  18  20
ENDBRANCH   1  18
TORSDOF 6
ENDMDL
MODEL 6
REMARK VINA RESULT:    -6.757      5.434      8.675
REMARK INTER + INTRA:         -10.335
REMARK INTER:                  -9.747
REMARK INTRA:                  -0.588
REMARK UNBOUND:                -1.208
REMARK  Name = 
REMARK  7 active torsions:
REMARK  status: ('A' for Active; 'I' for Inactive)
REMARK    1  A    between atoms: C_1  and  O_2
REMARK    2  A    between atoms: O_2  and  C_3
REMARK    3  A    between atoms: C_7  and  C_8
REMARK    4  A    between atoms: C_12  and  C_13
REMARK    5  A    between atoms: C_13  and  N_14
REMARK    6  A    between atoms: N_14  and  C_15
REMARK    7  A    between atoms: C_18  and  C_19
REMARK                            x       y       z     vdW  Elec       q    Type
REMARK                         _______ _______ _______ _____ _____    ______ ____
ROOT
ATOM      1  C   UNL     1      48.185   4.481  16.962  0.00  0.00    +0.000 C 
ATOM      2  C   UNL     1      47.295   3.346  17.417  0.00  0.00    +0.000 C 
ATOM      3  C   UNL     1      47.170   4.671  18.090  0.00  0.00    +0.000 C 
ENDROOT
BRANCH   1   8
ATOM      4  C   UNL     1      46.419   5.345  13.620  0.00  0.00    +0.000 A 
ATOM      5  C   UNL     1      47.256   6.364  13.144  0.00  0.00    +0.000 A 
ATOM      6  C   UNL     1      48.377   6.770  13.870  0.00  0.00    +0.000 A 
ATOM      7  C   UNL     1      48.680   6.168  15.094  0.00  0.00    +0.000 A 
ATOM      8  C   UNL     1      47.877   5.149  15.622  0.00  0.00    +0.000 A 
ATOM      9  C   UNL     1      46.757   4.759  14.858  0.00  0.00    +0.000 A 
BRANCH   4  14
ATOM     10  C   UNL     1      44.153   3.365  11.301  0.00  0.00    +0.000 A 
ATOM     11  C   UNL     1      43.000   4.124  11.430  0.00  0.00    +0.000 A 
ATOM     12  N   UNL     1      42.887   5.202  12.239  0.00  0.00    +0.000 NA
ATOM     13  C   UNL     1      43.997   5.555  12.933  0.00  0.00    +0.000 A 
ATOM     14  C   UNL     1      45.225   4.892  12.873  0.00  0.00    +0.000 A 
ATOM     15  C   UNL     1      45.269   3.765  12.032  0.00  0.00    +0.000 A 
BRANCH  10  17
ATOM     16  C   UNL     1      44.654   2.566   9.138  0.00  0.00    +0.000 C 
ATOM     17  O   UNL     1      44.112   2.315  10.430  0.00  0.00    +0.000 OA
ENDBRANCH  10  17
ENDBRANCH   4  14
ENDBRANCH   1   8
BRANCH   1  18
ATOM     18  N   UNL     1      49.579   4.619  17.406  0.00  0.00    +0.000 N 
ATOM     19  H   UNL     1      49.953   5.561  17.423  0.00  0.00    +0.000 HD
BRANCH  18  20
ATOM     20  C   UNL     1      50.557   3.612  17.453  0.00  0.00    +0.000 A 
ATOM     21  C   UNL     1      50.313   2.271  17.152  0.00  0.00    +0.000 A 
ATOM     22  C   UNL     1      51.313   1.304  17.331  0.00  0.00    +0.000 A 
ATOM     23  C   UNL     1      52.575   1.665  17.819  0.00  0.00    +0.000 A 
ATOM     24  C   UNL     1      52.834   3.003  18.118  0.00  0.00    +0.000 A 
ATOM     25  C   UNL     1      51.832   3.959  17.934  0.00  0.00    +0.000 A 
BRANCH  23  26
ATOM     26  C   UNL     1      53.587   0.600  18.067  0.00  0.00    +0.000 C 
ATOM     27  N   UNL     1      53.789  -0.330  17.090  0.00  0.00    +0.000 N 
ATOM     28  O   UNL     1      54.212   0.547  19.119  0.00  0.00    +0.000 OA
ATOM     29  H   UNL     1      53.153  -0.464  16.316  0.00  0.00    +0.000 HD
ATOM     30  H   UNL     1      54.431  -1.080  17.306  0.00  0.00    +0.000 HD
ENDBRANCH  23  26
ENDBRANCH  18  20
ENDBRANCH   1  18
TORSDOF 6
ENDMDL
MODEL 7
REMARK VINA RESULT:    -6.406      3.643      8.570
REMARK INTER + INTRA:          -9.861
REMARK INTER:                  -8.655
REMARK INTRA:                  -1.206
REMARK UNBOUND:                -1.208
REMARK  Name = 
REMARK  7 active torsions:
REMARK  status: ('A' for Active; 'I' for Inactive)
REMARK    1  A    between atoms: C_1  and  O_2
REMARK    2  A    between atoms: O_2  and  C_3
REMARK    3  A    between atoms: C_7  and  C_8
REMARK    4  A    between atoms: C_12  and  C_13
REMARK    5  A    between atoms: C_13  and  N_14
REMARK    6  A    between atoms: N_14  and  C_15
REMARK    7  A    between atoms: C_18  and  C_19
REMARK                            x       y       z     vdW  Elec       q    Type
REMARK                         _______ _______ _______ _____ _____    ______ ____
ROOT
ATOM      1  C   UNL     1      49.282   7.919  12.640  0.00  0.00    +0.000 C 
ATOM      2  C   UNL     1      50.045   9.072  12.028  0.00  0.00    +0.000 C 
ATOM      3  C   UNL     1      50.138   7.728  11.388  0.00  0.00    +0.000 C 
ENDROOT
BRANCH   1   8
ATOM      4  C   UNL     1      45.693   6.564  12.085  0.00  0.00    +0.000 A 
ATOM      5  C   UNL     1      44.956   7.755  12.153  0.00  0.00    +0.000 A 
ATOM      6  C   UNL     1      45.590   8.980  12.364  0.00  0.00    +0.000 A 
ATOM      7  C   UNL     1      46.977   9.038  12.520  0.00  0.00    +0.000 A 
ATOM      8  C   UNL     1      47.764   7.881  12.466  0.00  0.00    +0.000 A 
ATOM      9  C   UNL     1      47.091   6.662  12.243  0.00  0.00    +0.000 A 
BRANCH   4  14
ATOM     10  C   UNL     1      44.370   3.444  10.368  0.00  0.00    +0.000 A 
ATOM     11  C   UNL     1      43.768   2.838  11.461  0.00  0.00    +0.000 A 
ATOM     12  N   UNL     1      43.791   3.341  12.716  0.00  0.00    +0.000 NA
ATOM     13  C   UNL     1      44.426   4.528  12.879  0.00  0.00    +0.000 A 
ATOM     14  C   UNL     1      45.049   5.251  11.859  0.00  0.00    +0.000 A 
ATOM     15  C   UNL     1      45.011   4.662  10.582  0.00  0.00    +0.000 A 
BRANCH  10  17
ATOM     16  C   UNL     1      45.215   1.811   8.888  0.00  0.00    +0.000 C 
ATOM     17  O   UNL     1      44.244   2.817   9.162  0.00  0.00    +0.000 OA
ENDBRANCH  10  17
ENDBRANCH   4  14
ENDBRANCH   1   8
BRANCH   1  18
ATOM     18  N   UNL     1      49.780   7.170  13.804  0.00  0.00    +0.000 N 
ATOM     19  H   UNL     1      50.239   6.289  13.607  0.00  0.00    +0.000 HD
BRANCH  18  20
ATOM     20  C   UNL     1      49.387   7.326  15.143  0.00  0.00    +0.000 A 
ATOM     21  C   UNL     1      49.151   6.264  16.017  0.00  0.00    +0.000 A 
ATOM     22  C   UNL     1      48.651   6.496  17.307  0.00  0.00    +0.000 A 
ATOM     23  C   UNL     1      48.375   7.798  17.741  0.00  0.00    +0.000 A 
ATOM     24  C   UNL     1      48.613   8.869  16.879  0.00  0.00    +0.000 A 
ATOM     25  C   UNL     1      49.113   8.628  15.597  0.00  0.00    +0.000 A 
BRANCH  23  26
ATOM     26  C   UNL     1      47.776   8.001  19.090  0.00  0.00    +0.000 C 
ATOM     27  N   UNL     1      47.533   6.897  19.854  0.00  0.00    +0.000 N 
ATOM     28  O   UNL     1      47.494   9.120  19.501  0.00  0.00    +0.000 OA
ATOM     29  H   UNL     1      47.534   5.957  19.482  0.00  0.00    +0.000 HD
ATOM     30  H   UNL     1      47.065   7.053  20.736  0.00  0.00    +0.000 HD
ENDBRANCH  23  26
ENDBRANCH  18  20
ENDBRANCH   1  18
TORSDOF 6
ENDMDL
MODEL 8
REMARK VINA RESULT:    -6.171      2.536      7.493
REMARK INTER + INTRA:          -9.543
REMARK INTER:                  -8.676
REMARK INTRA:                  -0.867
REMARK UNBOUND:                -1.208
REMARK  Name = 
REMARK  7 active torsions:
REMARK  status: ('A' for Active; 'I' for Inactive)
REMARK    1  A    between atoms: C_1  and  O_2
REMARK    2  A    between atoms: O_2  and  C_3
REMARK    3  A    between atoms: C_7  and  C_8
REMARK    4  A    between atoms: C_12  and  C_13
REMARK    5  A    between atoms: C_13  and  N_14
REMARK    6  A    between atoms: N_14  and  C_15
REMARK    7  A    between atoms: C_18  and  C_19
REMARK                            x       y       z     vdW  Elec       q    Type
REMARK                         _______ _______ _______ _____ _____    ______ ____
ROOT
ATOM      1  C   UNL     1      45.861   7.686  11.918  0.00  0.00    +0.000 C 
ATOM      2  C   UNL     1      45.260   8.656  12.911  0.00  0.00    +0.000 C 
ATOM      3  C   UNL     1      45.414   9.085  11.491  0.00  0.00    +0.000 C 
ENDROOT
BRANCH   1   8
ATOM      4  C   UNL     1      44.779   4.451  10.075  0.00  0.00    +0.000 A 
ATOM      5  C   UNL     1      43.478   4.294  10.575  0.00  0.00    +0.000 A 
ATOM      6  C   UNL     1      42.943   5.210  11.483  0.00  0.00    +0.000 A 
ATOM      7  C   UNL     1      43.702   6.299  11.915  0.00  0.00    +0.000 A 
ATOM      8  C   UNL     1      45.008   6.505  11.453  0.00  0.00    +0.000 A 
ATOM      9  C   UNL     1      45.514   5.565  10.531  0.00  0.00    +0.000 A 
BRANCH   4  14
ATOM     10  C   UNL     1      46.421   3.028   6.959  0.00  0.00    +0.000 A 
ATOM     11  C   UNL     1      46.399   1.684   7.301  0.00  0.00    +0.000 A 
ATOM     12  N   UNL     1      45.930   1.208   8.476  0.00  0.00    +0.000 NA
ATOM     13  C   UNL     1      45.430   2.123   9.343  0.00  0.00    +0.000 A 
ATOM     14  C   UNL     1      45.373   3.499   9.111  0.00  0.00    +0.000 A 
ATOM     15  C   UNL     1      45.898   3.933   7.880  0.00  0.00    +0.000 A 
BRANCH  10  17
ATOM     16  C   UNL     1      47.907   2.466   5.214  0.00  0.00    +0.000 C 
ATOM     17  O   UNL     1      46.913   3.348   5.727  0.00  0.00    +0.000 OA
ENDBRANCH  10  17
ENDBRANCH   4  14
ENDBRANCH   1   8
BRANCH   1  18
ATOM     18  N   UNL     1      47.310   7.476  11.794  0.00  0.00    +0.000 N 
ATOM     19  H   UNL     1      47.624   6.993  10.961  0.00  0.00    +0.000 HD
BRANCH  18  20
ATOM     20  C   UNL     1      48.264   7.522  12.825  0.00  0.00    +0.000 A 
ATOM     21  C   UNL     1      49.481   8.199  12.734  0.00  0.00    +0.000 A 
ATOM     22  C   UNL     1      50.430   8.105  13.763  0.00  0.00    +0.000 A 
ATOM     23  C   UNL     1      50.176   7.327  14.898  0.00  0.00    +0.000 A 
ATOM     24  C   UNL     1      48.961   6.650  15.004  0.00  0.00    +0.000 A 
ATOM     25  C   UNL     1      48.021   6.752  13.976  0.00  0.00    +0.000 A 
BRANCH  23  26
ATOM     26  C   UNL     1      51.237   7.191  15.936  0.00  0.00    +0.000 C 
ATOM     27  N   UNL     1      51.148   6.148  16.809  0.00  0.00    +0.000 N 
ATOM     28  O   UNL     1      52.156   7.997  16.017  0.00  0.00    +0.000 OA
ATOM     29  H   UNL     1      50.308   5.598  16.929  0.00  0.00    +0.000 HD
ATOM     30  H   UNL     1      51.841   6.114  17.545  0.00  0.00    +0.000 HD
ENDBRANCH  23  26
ENDBRANCH  18  20
ENDBRANCH   1  18
TORSDOF 6
ENDMDL
MODEL 9
REMARK VINA RESULT:    -5.765      3.926      8.403
REMARK INTER + INTRA:          -8.995
REMARK INTER:                  -8.139
REMARK INTRA:                  -0.856
REMARK UNBOUND:                -1.208
REMARK  Name = 
REMARK  7 active torsions:
REMARK  status: ('A' for Active; 'I' for Inactive)
REMARK    1  A    between atoms: C_1  and  O_2
REMARK    2  A    between atoms: O_2  and  C_3
REMARK    3  A    between atoms: C_7  and  C_8
REMARK    4  A    between atoms: C_12  and  C_13
REMARK    5  A    between atoms: C_13  and  N_14
REMARK    6  A    between atoms: N_14  and  C_15
REMARK    7  A    between atoms: C_18  and  C_19
REMARK                            x       y       z     vdW  Elec       q    Type
REMARK                         _______ _______ _______ _____ _____    ______ ____
ROOT
ATOM      1  C   UNL     1      48.471   8.515  14.040  0.00  0.00    +0.000 C 
ATOM      2  C   UNL     1      48.726   9.786  14.820  0.00  0.00    +0.000 C 
ATOM      3  C   UNL     1      49.540   9.517  13.600  0.00  0.00    +0.000 C 
ENDROOT
BRANCH   1   8
ATOM      4  C   UNL     1      45.473   7.035  12.078  0.00  0.00    +0.000 A 
ATOM      5  C   UNL     1      44.843   8.211  11.648  0.00  0.00    +0.000 A 
ATOM      6  C   UNL     1      45.366   9.465  11.968  0.00  0.00    +0.000 A 
ATOM      7  C   UNL     1      46.530   9.568  12.734  0.00  0.00    +0.000 A 
ATOM      8  C   UNL     1      47.201   8.428  13.195  0.00  0.00    +0.000 A 
ATOM      9  C   UNL     1      46.648   7.178  12.846  0.00  0.00    +0.000 A 
BRANCH   4  14
ATOM     10  C   UNL     1      44.721   3.809  10.219  0.00  0.00    +0.000 A 
ATOM     11  C   UNL     1      43.870   3.222  11.144  0.00  0.00    +0.000 A 
ATOM     12  N   UNL     1      43.553   3.772  12.339  0.00  0.00    +0.000 NA
ATOM     13  C   UNL     1      44.094   4.986  12.608  0.00  0.00    +0.000 A 
ATOM     14  C   UNL     1      44.943   5.693  11.753  0.00  0.00    +0.000 A 
ATOM     15  C   UNL     1      45.253   5.056  10.537  0.00  0.00    +0.000 A 
BRANCH  10  17
ATOM     16  C   UNL     1      44.627   1.742   9.083  0.00  0.00    +0.000 C 
ATOM     17  O   UNL     1      44.929   3.134   9.051  0.00  0.00    +0.000 OA
ENDBRANCH  10  17
ENDBRANCH   4  14
ENDBRANCH   1   8
BRANCH   1  18
ATOM     18  N   UNL     1      49.025   7.214  14.443  0.00  0.00    +0.000 N 
ATOM     19  H   UNL     1      49.211   6.556  13.697  0.00  0.00    +0.000 HD
BRANCH  18  20
ATOM     20  C   UNL     1      48.985   6.637  15.723  0.00  0.00    +0.000 A 
ATOM     21  C   UNL     1      49.809   7.023  16.781  0.00  0.00    +0.000 A 
ATOM     22  C   UNL     1      49.788   6.322  17.996  0.00  0.00    +0.000 A 
ATOM     23  C   UNL     1      48.943   5.220  18.170  0.00  0.00    +0.000 A 
ATOM     24  C   UNL     1      48.110   4.828  17.122  0.00  0.00    +0.000 A 
ATOM     25  C   UNL     1      48.135   5.533  15.916  0.00  0.00    +0.000 A 
BRANCH  23  26
ATOM     26  C   UNL     1      49.002   4.456  19.448  0.00  0.00    +0.000 C 
ATOM     27  N   UNL     1      48.281   3.301  19.536  0.00  0.00    +0.000 N 
ATOM     28  O   UNL     1      49.662   4.855  20.399  0.00  0.00    +0.000 OA
ATOM     29  H   UNL     1      47.555   3.052  18.878  0.00  0.00    +0.000 HD
ATOM     30  H   UNL     1      48.282   2.836  20.433  0.00  0.00    +0.000 HD
ENDBRANCH  23  26
ENDBRANCH  18  20
ENDBRANCH   1  18
TORSDOF 6
ENDMDL
