MODEL 1
REMARK VINA RESULT:    -7.281      0.000      0.000
REMARK INTER + INTRA:         -10.870
REMARK INTER:                  -9.835
REMARK INTRA:                  -1.035
REMARK UNBOUND:                -1.035
REMARK  Name = 
REMARK  6 active torsions:
REMARK  status: ('A' for Active; 'I' for Inactive)
REMARK    1  A    between atoms: C_2  and  C_20
REMARK    2  A    between atoms: N_3  and  C_4
REMARK    3  A    between atoms: C_4  and  C_5
REMARK    4  A    between atoms: C_8  and  C_9
REMARK    5  A    between atoms: C_9  and  N_10
REMARK    6  A    between atoms: C_11  and  C_13
REMARK                            x       y       z     vdW  Elec       q    Type
REMARK                         _______ _______ _______ _____ _____    ______ ____
ROOT
ATOM      1  C   UNL     1      46.896   4.608  14.242  0.00  0.00    +0.000 A 
ATOM      2  C   UNL     1      47.129   5.888  13.723  0.00  0.00    +0.000 A 
ATOM      3  C   UNL     1      46.440   6.338  12.591  0.00  0.00    +0.000 A 
ATOM      4  C   UNL     1      45.485   5.526  11.966  0.00  0.00    +0.000 A 
ATOM      5  C   UNL     1      45.240   4.250  12.495  0.00  0.00    +0.000 A 
ATOM      6  C   UNL     1      45.930   3.800  13.627  0.00  0.00    +0.000 A 
ENDROOT
BRANCH   1   7
ATOM      7  C   UNL     1      47.631   4.133  15.472  0.00  0.00    +0.000 C 
BRANCH   7  10
ATOM      8  O   UNL     1      49.769   5.507  16.645  0.00  0.00    +0.000 OA
ATOM      9  C   UNL     1      48.627   5.775  17.006  0.00  0.00    +0.000 C 
ATOM     10  N   UNL     1      47.529   5.099  16.535  0.00  0.00    +0.000 N 
ATOM     11  H   UNL     1      46.607   5.486  16.699  0.00  0.00    +0.000 HD
BRANCH   9  12
ATOM     12  C   UNL     1      48.359   6.810  18.013  0.00  0.00    +0.000 A 
ATOM     13  C   UNL     1      48.288   6.473  19.358  0.00  0.00    +0.000 A 
ATOM     14  S   UNL     1      47.909   7.792  20.372  0.00  0.00    +0.000 S 
ATOM     15  C   UNL     1      47.882   8.870  19.053  0.00  0.00    +0.000 A 
ATOM     16  N   UNL     1      47.625  10.193  19.235  0.00  0.00    +0.000 NA
ATOM     17  C   UNL     1      47.673  10.899  18.154  0.00  0.00    +0.000 A 
ATOM     18  N   UNL     1      47.956  10.400  16.908  0.00  0.00    +0.000 N 
ATOM     19  C   UNL     1      48.195   9.068  16.673  0.00  0.00    +0.000 A 
ATOM     20  O   UNL     1      48.404   8.652  15.541  0.00  0.00    +0.000 OA
ATOM     21  C   UNL     1      48.153   8.230  17.858  0.00  0.00    +0.000 A 
ATOM     22  H   UNL     1      47.975  11.005  16.101  0.00  0.00    +0.000 HD
ENDBRANCH   9  12
ENDBRANCH   7  10
ENDBRANCH   1   7
BRANCH   4  23
ATOM     23  C   UNL     1      44.730   6.014  10.756  0.00  0.00    +0.000 C 
BRANCH  23  24
ATOM     24  N   UNL     1      44.471   4.959   9.802  0.00  0.00    +0.000 N 
ATOM     25  C   UNL     1      45.352   4.738   8.755  0.00  0.00    +0.000 C 
ATOM     26  O   UNL     1      46.397   5.370   8.626  0.00  0.00    +0.000 OA
ATOM     27  H   UNL     1      43.557   4.527   9.779  0.00  0.00    +0.000 HD
BRANCH  25  28
ATOM     28  C   UNL     1      44.886   3.636   7.777  0.00  0.00    +0.000 C 
ATOM     29  C   UNL     1      46.017   3.003   6.982  0.00  0.00    +0.000 C 
ATOM     30  C   UNL     1      46.545   1.923   7.905  0.00  0.00    +0.000 C 
ATOM     31  C   UNL     1      45.342   1.507   8.735  0.00  0.00    +0.000 C 
ATOM     32  N   UNL     1      44.287   2.505   8.519  0.00  0.00    +0.000 NA
ATOM     33  H   UNL     1      43.925   2.824   9.417  0.00  0.00    +0.000 HD
ENDBRANCH  25  28
ENDBRANCH  23  24
ENDBRANCH   4  23
TORSDOF 6
ENDMDL
MODEL 2
REMARK VINA RESULT:    -7.216      2.109      2.622
REMARK INTER + INTRA:         -10.783
REMARK INTER:                  -9.808
REMARK INTRA:                  -0.975
REMARK UNBOUND:                -1.035
REMARK  Name = 
REMARK  6 active torsions:
REMARK  status: ('A' for Active; 'I' for Inactive)
REMARK    1  A    between atoms: C_2  and  C_20
REMARK    2  A    between atoms: N_3  and  C_4
REMARK    3  A    between atoms: C_4  and  C_5
REMARK    4  A    between atoms: C_8  and  C_9
REMARK    5  A    between atoms: C_9  and  N_10
REMARK    6  A    between atoms: C_11  and  C_13
REMARK                            x       y       z     vdW  Elec       q    Type
REMARK                         _______ _______ _______ _____ _____    ______ ____
ROOT
ATOM      1  C   UNL     1      46.159   4.398  13.393  0.00  0.00    +0.000 A 
ATOM      2  C   UNL     1      46.033   5.646  12.769  0.00  0.00    +0.000 A 
ATOM      3  C   UNL     1      45.382   5.767  11.536  0.00  0.00    +0.000 A 
ATOM      4  C   UNL     1      44.822   4.646  10.910  0.00  0.00    +0.000 A 
ATOM      5  C   UNL     1      44.934   3.400  11.542  0.00  0.00    +0.000 A 
ATOM      6  C   UNL     1      45.586   3.278  12.776  0.00  0.00    +0.000 A 
ENDROOT
BRANCH   1   7
ATOM      7  C   UNL     1      46.850   4.276  14.730  0.00  0.00    +0.000 C 
BRANCH   7  10
ATOM      8  O   UNL     1      48.918   4.569  16.591  0.00  0.00    +0.000 OA
ATOM      9  C   UNL     1      48.538   5.558  15.972  0.00  0.00    +0.000 C 
ATOM     10  N   UNL     1      47.483   5.516  15.096  0.00  0.00    +0.000 N 
ATOM     11  H   UNL     1      47.339   6.293  14.462  0.00  0.00    +0.000 HD
BRANCH   9  12
ATOM     12  C   UNL     1      49.157   6.876  16.167  0.00  0.00    +0.000 A 
ATOM     13  C   UNL     1      49.328   7.383  17.448  0.00  0.00    +0.000 A 
ATOM     14  S   UNL     1      50.006   8.950  17.476  0.00  0.00    +0.000 S 
ATOM     15  C   UNL     1      50.145   8.980  15.778  0.00  0.00    +0.000 A 
ATOM     16  N   UNL     1      50.674  10.057  15.138  0.00  0.00    +0.000 NA
ATOM     17  C   UNL     1      50.753   9.928  13.855  0.00  0.00    +0.000 A 
ATOM     18  N   UNL     1      50.351   8.818  13.155  0.00  0.00    +0.000 N 
ATOM     19  C   UNL     1      49.787   7.720  13.757  0.00  0.00    +0.000 A 
ATOM     20  O   UNL     1      49.403   6.764  13.096  0.00  0.00    +0.000 OA
ATOM     21  C   UNL     1      49.676   7.814  15.201  0.00  0.00    +0.000 A 
ATOM     22  H   UNL     1      50.436   8.781  12.151  0.00  0.00    +0.000 HD
ENDBRANCH   9  12
ENDBRANCH   7  10
ENDBRANCH   1   7
BRANCH   4  23
ATOM     23  C   UNL     1      44.106   4.777   9.590  0.00  0.00    +0.000 C 
BRANCH  23  24
ATOM     24  N   UNL     1      44.426   3.702   8.678  0.00  0.00    +0.000 N 
ATOM     25  C   UNL     1      45.546   3.789   7.867  0.00  0.00    +0.000 C 
ATOM     26  O   UNL     1      46.333   4.729   7.926  0.00  0.00    +0.000 OA
ATOM     27  H   UNL     1      43.730   2.993   8.486  0.00  0.00    +0.000 HD
BRANCH  25  28
ATOM     28  C   UNL     1      45.696   2.601   6.890  0.00  0.00    +0.000 C 
ATOM     29  C   UNL     1      46.643   2.875   5.732  0.00  0.00    +0.000 C 
ATOM     30  C   UNL     1      48.009   2.546   6.299  0.00  0.00    +0.000 C 
ATOM     31  C   UNL     1      47.742   1.477   7.345  0.00  0.00    +0.000 C 
ATOM     32  N   UNL     1      46.293   1.436   7.578  0.00  0.00    +0.000 NA
ATOM     33  H   UNL     1      46.104   1.482   8.579  0.00  0.00    +0.000 HD
ENDBRANCH  25  28
ENDBRANCH  23  24
ENDBRANCH   4  23
TORSDOF 6
ENDMDL
MODEL 3
REMARK VINA RESULT:    -7.157      5.275      9.527
REMARK INTER + INTRA:         -10.702
REMARK INTER:                  -9.921
REMARK INTRA:                  -0.781
REMARK UNBOUND:                -1.035
REMARK  Name = 
REMARK  6 active torsions:
REMARK  status: ('A' for Active; 'I' for Inactive)
REMARK    1  A    between atoms: C_2  and  C_20
REMARK    2  A    between atoms: N_3  and  C_4
REMARK    3  A    between atoms: C_4  and  C_5
REMARK    4  A    between atoms: C_8  and  C_9
REMARK    5  A    between atoms: C_9  and  N_10
REMARK    6  A    between atoms: C_11  and  C_13
REMARK                            x       y       z     vdW  Elec       q    Type
REMARK                         _______ _______ _______ _____ _____    ______ ____
ROOT
ATOM      1  C   UNL     1      48.690   3.336  17.122  0.00  0.00    +0.000 A 
ATOM      2  C   UNL     1      49.434   2.157  16.981  0.00  0.00    +0.000 A 
ATOM      3  C   UNL     1      50.801   2.132  17.281  0.00  0.00    +0.000 A 
ATOM      4  C   UNL     1      51.450   3.281  17.751  0.00  0.00    +0.000 A 
ATOM      5  C   UNL     1      50.703   4.457  17.907  0.00  0.00    +0.000 A 
ATOM      6  C   UNL     1      49.335   4.482  17.606  0.00  0.00    +0.000 A 
ENDROOT
BRANCH   1   7
ATOM      7  C   UNL     1      47.213   3.352  16.811  0.00  0.00    +0.000 C 
BRANCH   7  10
ATOM      8  O   UNL     1      47.197   3.048  14.030  0.00  0.00    +0.000 OA
ATOM      9  C   UNL     1      46.853   4.126  14.507  0.00  0.00    +0.000 C 
ATOM     10  N   UNL     1      46.901   4.382  15.854  0.00  0.00    +0.000 N 
ATOM     11  H   UNL     1      46.420   5.196  16.217  0.00  0.00    +0.000 HD
BRANCH   9  12
ATOM     12  C   UNL     1      46.415   5.241  13.658  0.00  0.00    +0.000 A 
ATOM     13  C   UNL     1      47.238   6.344  13.474  0.00  0.00    +0.000 A 
ATOM     14  S   UNL     1      46.536   7.564  12.508  0.00  0.00    +0.000 S 
ATOM     15  C   UNL     1      45.131   6.634  12.257  0.00  0.00    +0.000 A 
ATOM     16  N   UNL     1      44.110   7.102  11.489  0.00  0.00    +0.000 NA
ATOM     17  C   UNL     1      43.124   6.278  11.354  0.00  0.00    +0.000 A 
ATOM     18  N   UNL     1      43.068   5.028  11.918  0.00  0.00    +0.000 N 
ATOM     19  C   UNL     1      44.062   4.527  12.722  0.00  0.00    +0.000 A 
ATOM     20  O   UNL     1      43.960   3.423  13.242  0.00  0.00    +0.000 OA
ATOM     21  C   UNL     1      45.195   5.415  12.905  0.00  0.00    +0.000 A 
ATOM     22  H   UNL     1      42.266   4.433  11.777  0.00  0.00    +0.000 HD
ENDBRANCH   9  12
ENDBRANCH   7  10
ENDBRANCH   1   7
BRANCH   4  23
ATOM     23  C   UNL     1      52.919   3.253  18.089  0.00  0.00    +0.000 C 
BRANCH  23  24
ATOM     24  N   UNL     1      53.541   1.993  17.751  0.00  0.00    +0.000 N 
ATOM     25  C   UNL     1      54.255   1.292  18.709  0.00  0.00    +0.000 C 
ATOM     26  O   UNL     1      54.341   1.667  19.874  0.00  0.00    +0.000 OA
ATOM     27  H   UNL     1      53.628   1.730  16.777  0.00  0.00    +0.000 HD
BRANCH  25  28
ATOM     28  C   UNL     1      54.930   0.013  18.164  0.00  0.00    +0.000 C 
ATOM     29  C   UNL     1      55.775  -0.722  19.193  0.00  0.00    +0.000 C 
ATOM     30  C   UNL     1      54.773  -1.593  19.924  0.00  0.00    +0.000 C 
ATOM     31  C   UNL     1      53.695  -1.885  18.894  0.00  0.00    +0.000 C 
ATOM     32  N   UNL     1      53.909  -0.979  17.759  0.00  0.00    +0.000 NA
ATOM     33  H   UNL     1      53.035  -0.510  17.523  0.00  0.00    +0.000 HD
ENDBRANCH  25  28
ENDBRANCH  23  24
ENDBRANCH   4  23
TORSDOF 6
ENDMDL
MODEL 4
REMARK VINA RESULT:    -7.030      3.731      8.788
REMARK INTER + INTRA:         -10.531
REMARK INTER:                  -9.328
REMARK INTRA:                  -1.203
REMARK UNBOUND:                -1.035
REMARK  Name = 
REMARK  6 active torsions:
REMARK  status: ('A' for Active; 'I' for Inactive)
REMARK    1  A    between atoms: C_2  and  C_20
REMARK    2  A    between atoms: N_3  and  C_4
REMARK    3  A    between atoms: C_4  and  C_5
REMARK    4  A    between atoms: C_8  and  C_9
REMARK    5  A    between atoms: C_9  and  N_10
REMARK    6  A    between atoms: C_11  and  C_13
REMARK                            x       y       z     vdW  Elec       q    Type
REMARK                         _______ _______ _______ _____ _____    ______ ____
ROOT
ATOM      1  C   UNL     1      49.000   7.812  13.149  0.00  0.00    +0.000 A 
ATOM      2  C   UNL     1      48.336   7.226  14.235  0.00  0.00    +0.000 A 
ATOM      3  C   UNL     1      49.015   6.956  15.429  0.00  0.00    +0.000 A 
ATOM      4  C   UNL     1      50.369   7.287  15.571  0.00  0.00    +0.000 A 
ATOM      5  C   UNL     1      51.029   7.888  14.490  0.00  0.00    +0.000 A 
ATOM      6  C   UNL     1      50.349   8.157  13.295  0.00  0.00    +0.000 A 
ENDROOT
BRANCH   1   7
ATOM      7  C   UNL     1      48.258   8.114  11.869  0.00  0.00    +0.000 C 
BRANCH   7  10
ATOM      8  O   UNL     1      45.476   7.825  11.820  0.00  0.00    +0.000 OA
ATOM      9  C   UNL     1      46.170   6.926  11.355  0.00  0.00    +0.000 C 
ATOM     10  N   UNL     1      47.541   6.955  11.406  0.00  0.00    +0.000 N 
ATOM     11  H   UNL     1      48.068   6.304  10.836  0.00  0.00    +0.000 HD
BRANCH   9  12
ATOM     12  C   UNL     1      45.576   5.723  10.758  0.00  0.00    +0.000 A 
ATOM     13  C   UNL     1      45.734   5.466   9.402  0.00  0.00    +0.000 A 
ATOM     14  S   UNL     1      44.924   4.059   8.876  0.00  0.00    +0.000 S 
ATOM     15  C   UNL     1      44.380   3.715  10.453  0.00  0.00    +0.000 A 
ATOM     16  N   UNL     1      43.626   2.613  10.708  0.00  0.00    +0.000 NA
ATOM     17  C   UNL     1      43.316   2.456  11.953  0.00  0.00    +0.000 A 
ATOM     18  N   UNL     1      43.694   3.303  12.964  0.00  0.00    +0.000 N 
ATOM     19  C   UNL     1      44.431   4.441  12.749  0.00  0.00    +0.000 A 
ATOM     20  O   UNL     1      44.716   5.195  13.670  0.00  0.00    +0.000 OA
ATOM     21  C   UNL     1      44.807   4.663  11.364  0.00  0.00    +0.000 A 
ATOM     22  H   UNL     1      43.415   3.126  13.918  0.00  0.00    +0.000 HD
ENDBRANCH   9  12
ENDBRANCH   7  10
ENDBRANCH   1   7
BRANCH   4  23
ATOM     23  C   UNL     1      51.098   7.011  16.861  0.00  0.00    +0.000 C 
BRANCH  23  24
ATOM     24  N   UNL     1      50.288   6.281  17.810  0.00  0.00    +0.000 N 
ATOM     25  C   UNL     1      50.344   4.897  17.850  0.00  0.00    +0.000 C 
ATOM     26  O   UNL     1      51.106   4.246  17.143  0.00  0.00    +0.000 OA
ATOM     27  H   UNL     1      49.541   6.761  18.294  0.00  0.00    +0.000 HD
BRANCH  25  28
ATOM     28  C   UNL     1      49.353   4.268  18.856  0.00  0.00    +0.000 C 
ATOM     29  C   UNL     1      48.021   4.997  18.943  0.00  0.00    +0.000 C 
ATOM     30  C   UNL     1      47.210   4.398  17.811  0.00  0.00    +0.000 C 
ATOM     31  C   UNL     1      47.746   2.984  17.661  0.00  0.00    +0.000 C 
ATOM     32  N   UNL     1      48.990   2.897  18.436  0.00  0.00    +0.000 NA
ATOM     33  H   UNL     1      49.729   2.497  17.859  0.00  0.00    +0.000 HD
ENDBRANCH  25  28
ENDBRANCH  23  24
ENDBRANCH   4  23
TORSDOF 6
ENDMDL
MODEL 5
REMARK VINA RESULT:    -6.976      2.726      4.063
REMARK INTER + INTRA:         -10.458
REMARK INTER:                  -8.915
REMARK INTRA:                  -1.543
REMARK UNBOUND:                -1.035
REMARK  Name = 
REMARK  6 active torsions:
REMARK  status: ('A' for Active; 'I' for Inactive)
REMARK    1  A    between atoms: C_2  and  C_20
REMARK    2  A    between atoms: N_3  and  C_4
REMARK    3  A    between atoms: C_4  and  C_5
REMARK    4  A    between atoms: C_8  and  C_9
REMARK    5  A    between atoms: C_9  and  N_10
REMARK    6  A    between atoms: C_11  and  C_13
REMARK                            x       y       z     vdW  Elec       q    Type
REMARK                         _______ _______ _______ _____ _____    ______ ____
ROOT
ATOM      1  C   UNL     1      48.434   8.114  13.326  0.00  0.00    +0.000 A 
ATOM      2  C   UNL     1      47.445   9.098  13.448  0.00  0.00    +0.000 A 
ATOM      3  C   UNL     1      46.237   8.991  12.747  0.00  0.00    +0.000 A 
ATOM      4  C   UNL     1      45.984   7.884  11.926  0.00  0.00    +0.000 A 
ATOM      5  C   UNL     1      46.967   6.891  11.817  0.00  0.00    +0.000 A 
ATOM      6  C   UNL     1      48.175   6.999  12.517  0.00  0.00    +0.000 A 
ENDROOT
BRANCH   1   7
ATOM      7  C   UNL     1      49.728   8.228  14.096  0.00  0.00    +0.000 C 
BRANCH   7  10
ATOM      8  O   UNL     1      48.775   8.666  16.690  0.00  0.00    +0.000 OA
ATOM      9  C   UNL     1      49.214   7.556  16.402  0.00  0.00    +0.000 C 
ATOM     10  N   UNL     1      49.766   7.278  15.177  0.00  0.00    +0.000 N 
ATOM     11  H   UNL     1      49.923   6.312  14.916  0.00  0.00    +0.000 HD
BRANCH   9  12
ATOM     12  C   UNL     1      49.227   6.456  17.376  0.00  0.00    +0.000 A 
ATOM     13  C   UNL     1      49.920   6.590  18.571  0.00  0.00    +0.000 A 
ATOM     14  S   UNL     1      49.874   5.190  19.547  0.00  0.00    +0.000 S 
ATOM     15  C   UNL     1      48.880   4.376  18.428  0.00  0.00    +0.000 A 
ATOM     16  N   UNL     1      48.452   3.108  18.666  0.00  0.00    +0.000 NA
ATOM     17  C   UNL     1      47.674   2.628  17.752  0.00  0.00    +0.000 A 
ATOM     18  N   UNL     1      47.287   3.304  16.623  0.00  0.00    +0.000 N 
ATOM     19  C   UNL     1      47.716   4.574  16.329  0.00  0.00    +0.000 A 
ATOM     20  O   UNL     1      47.382   5.132  15.291  0.00  0.00    +0.000 OA
ATOM     21  C   UNL     1      48.593   5.160  17.326  0.00  0.00    +0.000 A 
ATOM     22  H   UNL     1      46.679   2.870  15.944  0.00  0.00    +0.000 HD
ENDBRANCH   9  12
ENDBRANCH   7  10
ENDBRANCH   1   7
BRANCH   4  23
ATOM     23  C   UNL     1      44.678   7.759  11.183  0.00  0.00    +0.000 C 
BRANCH  23  24
ATOM     24  N   UNL     1      44.461   6.427  10.666  0.00  0.00    +0.000 N 
ATOM     25  C   UNL     1      43.392   5.672  11.119  0.00  0.00    +0.000 C 
ATOM     26  O   UNL     1      42.565   6.107  11.914  0.00  0.00    +0.000 OA
ATOM     27  H   UNL     1      45.197   5.976  10.137  0.00  0.00    +0.000 HD
BRANCH  25  28
ATOM     28  C   UNL     1      43.353   4.241  10.534  0.00  0.00    +0.000 C 
ATOM     29  C   UNL     1      44.729   3.641  10.289  0.00  0.00    +0.000 C 
ATOM     30  C   UNL     1      45.109   3.053  11.633  0.00  0.00    +0.000 C 
ATOM     31  C   UNL     1      43.783   2.680  12.277  0.00  0.00    +0.000 C 
ATOM     32  N   UNL     1      42.716   3.308  11.489  0.00  0.00    +0.000 NA
ATOM     33  H   UNL     1      42.083   3.814  12.108  0.00  0.00    +0.000 HD
ENDBRANCH  25  28
ENDBRANCH  23  24
ENDBRANCH   4  23
TORSDOF 6
ENDMDL
MODEL 6
REMARK VINA RESULT:    -6.958      1.710      2.186
REMARK INTER + INTRA:         -10.434
REMARK INTER:                  -9.451
REMARK INTRA:                  -0.983
REMARK UNBOUND:                -1.035
REMARK  Name = 
REMARK  6 active torsions:
REMARK  status: ('A' for Active; 'I' for Inactive)
REMARK    1  A    between atoms: C_2  and  C_20
REMARK    2  A    between atoms: N_3  and  C_4
REMARK    3  A    between atoms: C_4  and  C_5
REMARK    4  A    between atoms: C_8  and  C_9
REMARK    5  A    between atoms: C_9  and  N_10
REMARK    6  A    between atoms: C_11  and  C_13
REMARK                            x       y       z     vdW  Elec       q    Type
REMARK                         _______ _______ _______ _____ _____    ______ ____
ROOT
ATOM      1  C   UNL     1      46.721   4.125  13.957  0.00  0.00    +0.000 A 
ATOM      2  C   UNL     1      45.974   3.225  13.186  0.00  0.00    +0.000 A 
ATOM      3  C   UNL     1      45.288   3.656  12.045  0.00  0.00    +0.000 A 
ATOM      4  C   UNL     1      45.354   4.994  11.635  0.00  0.00    +0.000 A 
ATOM      5  C   UNL     1      46.116   5.892  12.396  0.00  0.00    +0.000 A 
ATOM      6  C   UNL     1      46.800   5.460  13.539  0.00  0.00    +0.000 A 
ENDROOT
BRANCH   1   7
ATOM      7  C   UNL     1      47.470   3.651  15.179  0.00  0.00    +0.000 C 
BRANCH   7  10
ATOM      8  O   UNL     1      47.346   3.494  17.969  0.00  0.00    +0.000 OA
ATOM      9  C   UNL     1      47.683   4.555  17.453  0.00  0.00    +0.000 C 
ATOM     10  N   UNL     1      47.700   4.739  16.093  0.00  0.00    +0.000 N 
ATOM     11  H   UNL     1      48.176   5.548  15.713  0.00  0.00    +0.000 HD
BRANCH   9  12
ATOM     12  C   UNL     1      48.044   5.726  18.263  0.00  0.00    +0.000 A 
ATOM     13  C   UNL     1      47.168   6.203  19.229  0.00  0.00    +0.000 A 
ATOM     14  S   UNL     1      47.729   7.605  20.025  0.00  0.00    +0.000 S 
ATOM     15  C   UNL     1      49.187   7.589  19.144  0.00  0.00    +0.000 A 
ATOM     16  N   UNL     1      50.142   8.534  19.354  0.00  0.00    +0.000 NA
ATOM     17  C   UNL     1      51.210   8.379  18.644  0.00  0.00    +0.000 A 
ATOM     18  N   UNL     1      51.408   7.364  17.743  0.00  0.00    +0.000 N 
ATOM     19  C   UNL     1      50.461   6.405  17.479  0.00  0.00    +0.000 A 
ATOM     20  O   UNL     1      50.657   5.536  16.638  0.00  0.00    +0.000 OA
ATOM     21  C   UNL     1      49.240   6.534  18.253  0.00  0.00    +0.000 A 
ATOM     22  H   UNL     1      52.266   7.300  17.216  0.00  0.00    +0.000 HD
ENDBRANCH   9  12
ENDBRANCH   7  10
ENDBRANCH   1   7
BRANCH   4  23
ATOM     23  C   UNL     1      44.630   5.458  10.397  0.00  0.00    +0.000 C 
BRANCH  23  24
ATOM     24  N   UNL     1      44.594   4.446   9.364  0.00  0.00    +0.000 N 
ATOM     25  C   UNL     1      45.585   4.407   8.396  0.00  0.00    +0.000 C 
ATOM     26  O   UNL     1      46.546   5.170   8.403  0.00  0.00    +0.000 OA
ATOM     27  H   UNL     1      43.749   3.907   9.230  0.00  0.00    +0.000 HD
BRANCH  25  28
ATOM     28  C   UNL     1      45.352   3.325   7.318  0.00  0.00    +0.000 C 
ATOM     29  C   UNL     1      46.460   3.245   6.280  0.00  0.00    +0.000 C 
ATOM     30  C   UNL     1      47.492   2.342   6.925  0.00  0.00    +0.000 C 
ATOM     31  C   UNL     1      46.687   1.423   7.829  0.00  0.00    +0.000 C 
ATOM     32  N   UNL     1      45.332   1.978   7.931  0.00  0.00    +0.000 NA
ATOM     33  H   UNL     1      45.058   2.041   8.911  0.00  0.00    +0.000 HD
ENDBRANCH  25  28
ENDBRANCH  23  24
ENDBRANCH   4  23
TORSDOF 6
ENDMDL
MODEL 7
REMARK VINA RESULT:    -6.937      3.224      9.099
REMARK INTER + INTRA:         -10.405
REMARK INTER:                  -9.163
REMARK INTRA:                  -1.243
REMARK UNBOUND:                -1.035
REMARK  Name = 
REMARK  6 active torsions:
REMARK  status: ('A' for Active; 'I' for Inactive)
REMARK    1  A    between atoms: C_2  and  C_20
REMARK    2  A    between atoms: N_3  and  C_4
REMARK    3  A    between atoms: C_4  and  C_5
REMARK    4  A    between atoms: C_8  and  C_9
REMARK    5  A    between atoms: C_9  and  N_10
REMARK    6  A    between atoms: C_11  and  C_13
REMARK                            x       y       z     vdW  Elec       q    Type
REMARK                         _______ _______ _______ _____ _____    ______ ____
ROOT
ATOM      1  C   UNL     1      48.455   7.601  12.973  0.00  0.00    +0.000 A 
ATOM      2  C   UNL     1      47.952   7.168  14.207  0.00  0.00    +0.000 A 
ATOM      3  C   UNL     1      48.775   7.119  15.338  0.00  0.00    +0.000 A 
ATOM      4  C   UNL     1      50.114   7.525  15.266  0.00  0.00    +0.000 A 
ATOM      5  C   UNL     1      50.613   7.974  14.035  0.00  0.00    +0.000 A 
ATOM      6  C   UNL     1      49.790   8.021  12.903  0.00  0.00    +0.000 A 
ENDROOT
BRANCH   1   7
ATOM      7  C   UNL     1      47.558   7.666  11.760  0.00  0.00    +0.000 C 
BRANCH   7  10
ATOM      8  O   UNL     1      44.801   7.342  12.102  0.00  0.00    +0.000 OA
ATOM      9  C   UNL     1      45.463   6.383  11.719  0.00  0.00    +0.000 C 
ATOM     10  N   UNL     1      46.829   6.436  11.596  0.00  0.00    +0.000 N 
ATOM     11  H   UNL     1      47.305   5.700  11.087  0.00  0.00    +0.000 HD
BRANCH   9  12
ATOM     12  C   UNL     1      44.841   5.088  11.415  0.00  0.00    +0.000 A 
ATOM     13  C   UNL     1      44.031   4.466  12.356  0.00  0.00    +0.000 A 
ATOM     14  S   UNL     1      43.448   2.942  11.852  0.00  0.00    +0.000 S 
ATOM     15  C   UNL     1      44.214   3.088  10.337  0.00  0.00    +0.000 A 
ATOM     16  N   UNL     1      44.103   2.110   9.399  0.00  0.00    +0.000 NA
ATOM     17  C   UNL     1      44.703   2.369   8.285  0.00  0.00    +0.000 A 
ATOM     18  N   UNL     1      45.404   3.520   8.025  0.00  0.00    +0.000 N 
ATOM     19  C   UNL     1      45.565   4.521   8.951  0.00  0.00    +0.000 A 
ATOM     20  O   UNL     1      46.231   5.517   8.698  0.00  0.00    +0.000 OA
ATOM     21  C   UNL     1      44.908   4.278  10.222  0.00  0.00    +0.000 A 
ATOM     22  H   UNL     1      45.854   3.661   7.133  0.00  0.00    +0.000 HD
ENDBRANCH   9  12
ENDBRANCH   7  10
ENDBRANCH   1   7
BRANCH   4  23
ATOM     23  C   UNL     1      50.998   7.488  16.486  0.00  0.00    +0.000 C 
BRANCH  23  24
ATOM     24  N   UNL     1      50.384   6.792  17.594  0.00  0.00    +0.000 N 
ATOM     25  C   UNL     1      50.574   5.429  17.750  0.00  0.00    +0.000 C 
ATOM     26  O   UNL     1      51.303   4.775  17.010  0.00  0.00    +0.000 OA
ATOM     27  H   UNL     1      49.658   7.255  18.127  0.00  0.00    +0.000 HD
BRANCH  25  28
ATOM     28  C   UNL     1      49.779   4.824  18.929  0.00  0.00    +0.000 C 
ATOM     29  C   UNL     1      48.405   5.446  19.125  0.00  0.00    +0.000 C 
ATOM     30  C   UNL     1      47.521   4.673  18.167  0.00  0.00    +0.000 C 
ATOM     31  C   UNL     1      48.165   3.299  18.074  0.00  0.00    +0.000 C 
ATOM     32  N   UNL     1      49.497   3.392  18.684  0.00  0.00    +0.000 NA
ATOM     33  H   UNL     1      50.194   2.999  18.052  0.00  0.00    +0.000 HD
ENDBRANCH  25  28
ENDBRANCH  23  24
ENDBRANCH   4  23
TORSDOF 6
ENDMDL
MODEL 8
REMARK VINA RESULT:    -6.907      3.091      4.559
REMARK INTER + INTRA:         -10.364
REMARK INTER:                  -9.494
REMARK INTRA:                  -0.870
REMARK UNBOUND:                -1.035
REMARK  Name = 
REMARK  6 active torsions:
REMARK  status: ('A' for Active; 'I' for Inactive)
REMARK    1  A    between atoms: C_2  and  C_20
REMARK    2  A    between atoms: N_3  and  C_4
REMARK    3  A    between atoms: C_4  and  C_5
REMARK    4  A    between atoms: C_8  and  C_9
REMARK    5  A    between atoms: C_9  and  N_10
REMARK    6  A    between atoms: C_11  and  C_13
REMARK                            x       y       z     vdW  Elec       q    Type
REMARK                         _______ _______ _______ _____ _____    ______ ____
ROOT
ATOM      1  C   UNL     1      46.869   4.704  14.738  0.00  0.00    +0.000 A 
ATOM      2  C   UNL     1      47.421   5.902  14.268  0.00  0.00    +0.000 A 
ATOM      3  C   UNL     1      47.107   6.384  12.991  0.00  0.00    +0.000 A 
ATOM      4  C   UNL     1      46.215   5.689  12.165  0.00  0.00    +0.000 A 
ATOM      5  C   UNL     1      45.649   4.498  12.642  0.00  0.00    +0.000 A 
ATOM      6  C   UNL     1      45.964   4.016  13.919  0.00  0.00    +0.000 A 
ENDROOT
BRANCH   1   7
ATOM      7  C   UNL     1      47.200   4.197  16.121  0.00  0.00    +0.000 C 
BRANCH   7  10
ATOM      8  O   UNL     1      48.360   4.182  18.667  0.00  0.00    +0.000 OA
ATOM      9  C   UNL     1      49.092   4.281  17.686  0.00  0.00    +0.000 C 
ATOM     10  N   UNL     1      48.600   4.369  16.408  0.00  0.00    +0.000 N 
ATOM     11  H   UNL     1      49.234   4.242  15.628  0.00  0.00    +0.000 HD
BRANCH   9  12
ATOM     12  C   UNL     1      50.552   4.366  17.819  0.00  0.00    +0.000 A 
ATOM     13  C   UNL     1      51.155   5.577  18.132  0.00  0.00    +0.000 A 
ATOM     14  S   UNL     1      52.860   5.496  18.183  0.00  0.00    +0.000 S 
ATOM     15  C   UNL     1      52.846   3.827  17.843  0.00  0.00    +0.000 A 
ATOM     16  N   UNL     1      54.005   3.121  17.757  0.00  0.00    +0.000 NA
ATOM     17  C   UNL     1      53.844   1.859  17.531  0.00  0.00    +0.000 A 
ATOM     18  N   UNL     1      52.629   1.241  17.383  0.00  0.00    +0.000 N 
ATOM     19  C   UNL     1      51.435   1.918  17.434  0.00  0.00    +0.000 A 
ATOM     20  O   UNL     1      50.371   1.340  17.257  0.00  0.00    +0.000 OA
ATOM     21  C   UNL     1      51.561   3.342  17.687  0.00  0.00    +0.000 A 
ATOM     22  H   UNL     1      52.571   0.249  17.204  0.00  0.00    +0.000 HD
ENDBRANCH   9  12
ENDBRANCH   7  10
ENDBRANCH   1   7
BRANCH   4  23
ATOM     23  C   UNL     1      45.863   6.213  10.797  0.00  0.00    +0.000 C 
BRANCH  23  24
ATOM     24  N   UNL     1      45.254   5.206   9.957  0.00  0.00    +0.000 N 
ATOM     25  C   UNL     1      45.822   4.887   8.734  0.00  0.00    +0.000 C 
ATOM     26  O   UNL     1      46.872   5.386   8.342  0.00  0.00    +0.000 OA
ATOM     27  H   UNL     1      44.316   4.890  10.166  0.00  0.00    +0.000 HD
BRANCH  25  28
ATOM     28  C   UNL     1      45.001   3.858   7.922  0.00  0.00    +0.000 C 
ATOM     29  C   UNL     1      45.845   2.993   6.998  0.00  0.00    +0.000 C 
ATOM     30  C   UNL     1      46.320   1.868   7.895  0.00  0.00    +0.000 C 
ATOM     31  C   UNL     1      45.224   1.718   8.936  0.00  0.00    +0.000 C 
ATOM     32  N   UNL     1      44.346   2.889   8.827  0.00  0.00    +0.000 NA
ATOM     33  H   UNL     1      44.208   3.304   9.749  0.00  0.00    +0.000 HD
ENDBRANCH  25  28
ENDBRANCH  23  24
ENDBRANCH   4  23
TORSDOF 6
ENDMDL
MODEL 9
REMARK VINA RESULT:    -6.720      3.456      9.504
REMARK INTER + INTRA:         -10.112
REMARK INTER:                  -9.037
REMARK INTRA:                  -1.076
REMARK UNBOUND:                -1.035
REMARK  Name = 
REMARK  6 active torsions:
REMARK  status: ('A' for Active; 'I' for Inactive)
REMARK    1  A    between atoms: C_2  and  C_20
REMARK    2  A    between atoms: N_3  and  C_4
REMARK    3  A    between atoms: C_4  and  C_5
REMARK    4  A    between atoms: C_8  and  C_9
REMARK    5  A    between atoms: C_9  and  N_10
REMARK    6  A    between atoms: C_11  and  C_13
REMARK                            x       y       z     vdW  Elec       q    Type
REMARK                         _______ _______ _______ _____ _____    ______ ____
ROOT
ATOM      1  C   UNL     1      46.283   6.956  12.168  0.00  0.00    +0.000 A 
ATOM      2  C   UNL     1      47.028   5.894  12.697  0.00  0.00    +0.000 A 
ATOM      3  C   UNL     1      47.866   6.087  13.801  0.00  0.00    +0.000 A 
ATOM      4  C   UNL     1      47.960   7.343  14.416  0.00  0.00    +0.000 A 
ATOM      5  C   UNL     1      47.203   8.402  13.896  0.00  0.00    +0.000 A 
ATOM      6  C   UNL     1      46.365   8.208  12.790  0.00  0.00    +0.000 A 
ENDROOT
BRANCH   1   7
ATOM      7  C   UNL     1      45.369   6.738  10.986  0.00  0.00    +0.000 C 
BRANCH   7  10
ATOM      8  O   UNL     1      43.380   4.952  10.162  0.00  0.00    +0.000 OA
ATOM      9  C   UNL     1      44.555   4.659   9.961  0.00  0.00    +0.000 C 
ATOM     10  N   UNL     1      45.593   5.443  10.398  0.00  0.00    +0.000 N 
ATOM     11  H   UNL     1      46.523   5.273  10.035  0.00  0.00    +0.000 HD
BRANCH   9  12
ATOM     12  C   UNL     1      44.934   3.413   9.281  0.00  0.00    +0.000 A 
ATOM     13  C   UNL     1      44.257   2.233   9.559  0.00  0.00    +0.000 A 
ATOM     14  S   UNL     1      44.876   0.879   8.722  0.00  0.00    +0.000 S 
ATOM     15  C   UNL     1      46.033   1.836   7.918  0.00  0.00    +0.000 A 
ATOM     16  N   UNL     1      46.898   1.285   7.024  0.00  0.00    +0.000 NA
ATOM     17  C   UNL     1      47.695   2.133   6.463  0.00  0.00    +0.000 A 
ATOM     18  N   UNL     1      47.705   3.482   6.715  0.00  0.00    +0.000 N 
ATOM     19  C   UNL     1      46.869   4.076   7.628  0.00  0.00    +0.000 A 
ATOM     20  O   UNL     1      46.933   5.277   7.857  0.00  0.00    +0.000 OA
ATOM     21  C   UNL     1      45.951   3.166   8.288  0.00  0.00    +0.000 A 
ATOM     22  H   UNL     1      48.357   4.091   6.244  0.00  0.00    +0.000 HD
ENDBRANCH   9  12
ENDBRANCH   7  10
ENDBRANCH   1   7
BRANCH   4  23
ATOM     23  C   UNL     1      48.850   7.550  15.615  0.00  0.00    +0.000 C 
BRANCH  23  24
ATOM     24  N   UNL     1      48.614   6.574  16.655  0.00  0.00    +0.000 N 
ATOM     25  C   UNL     1      49.607   5.672  16.999  0.00  0.00    +0.000 C 
ATOM     26  O   UNL     1      50.725   5.695  16.493  0.00  0.00    +0.000 OA
ATOM     27  H   UNL     1      47.669   6.419  16.981  0.00  0.00    +0.000 HD
BRANCH  25  28
ATOM     28  C   UNL     1      49.165   4.642  18.063  0.00  0.00    +0.000 C 
ATOM     29  C   UNL     1      47.826   3.986  17.763  0.00  0.00    +0.000 C 
ATOM     30  C   UNL     1      48.187   2.839  16.841  0.00  0.00    +0.000 C 
ATOM     31  C   UNL     1      49.599   2.450  17.247  0.00  0.00    +0.000 C 
ATOM     32  N   UNL     1      50.118   3.511  18.117  0.00  0.00    +0.000 NA
ATOM     33  H   UNL     1      51.037   3.808  17.789  0.00  0.00    +0.000 HD
ENDBRANCH  25  28
ENDBRANCH  23  24
ENDBRANCH   4  23
TORSDOF 6
ENDMDL
