MODEL 1
REMARK VINA RESULT:    -7.375      0.000      0.000
REMARK INTER + INTRA:         -11.280
REMARK INTER:                 -10.177
REMARK INTRA:                  -1.102
REMARK UNBOUND:                -1.102
REMARK  Name = 
REMARK  7 active torsions:
REMARK  status: ('A' for Active; 'I' for Inactive)
REMARK    1  A    between atoms: C_2  and  C_19
REMARK    2  A    between atoms: N_3  and  C_4
REMARK    3  A    between atoms: C_4  and  C_5
REMARK    4  A    between atoms: C_8  and  C_9
REMARK    5  A    between atoms: C_9  and  C_10
REMARK    6  A    between atoms: C_10  and  N_11
REMARK    7  A    between atoms: C_14  and  O_15
REMARK                            x       y       z     vdW  Elec       q    Type
REMARK                         _______ _______ _______ _____ _____    ______ ____
ROOT
ATOM      1  C   UNL     1      46.583   7.809  13.213  0.00  0.00    +0.000 C 
ENDROOT
BRANCH   1   2
ATOM      2  C   UNL     1      46.020   6.741  12.312  0.00  0.00    +0.000 A 
ATOM      3  C   UNL     1      45.094   5.815  12.808  0.00  0.00    +0.000 A 
ATOM      4  C   UNL     1      44.568   4.819  11.981  0.00  0.00    +0.000 A 
ATOM      5  C   UNL     1      44.963   4.725  10.642  0.00  0.00    +0.000 A 
ATOM      6  C   UNL     1      45.908   5.639  10.151  0.00  0.00    +0.000 A 
ATOM      7  C   UNL     1      46.437   6.633  10.979  0.00  0.00    +0.000 A 
BRANCH   5   8
ATOM      8  C   UNL     1      44.438   3.625   9.748  0.00  0.00    +0.000 C 
BRANCH   8   9
ATOM      9  C   UNL     1      44.463   3.966   8.245  0.00  0.00    +0.000 C 
BRANCH   9  10
ATOM     10  N   UNL     1      45.384   3.098   7.487  0.00  0.00    +0.000 NA
ATOM     11  C   UNL     1      45.670   1.826   8.166  0.00  0.00    +0.000 C 
ATOM     12  C   UNL     1      47.063   1.403   7.705  0.00  0.00    +0.000 C 
ATOM     13  C   UNL     1      47.553   2.551   6.834  0.00  0.00    +0.000 C 
ATOM     14  C   UNL     1      46.697   3.735   7.278  0.00  0.00    +0.000 C 
BRANCH  13  15
ATOM     15  O   UNL     1      47.300   2.242   5.462  0.00  0.00    +0.000 OA
ATOM     16  H   UNL     1      48.169   2.003   5.086  0.00  0.00    +0.000 HD
ENDBRANCH  13  15
ENDBRANCH   9  10
ENDBRANCH   8   9
ENDBRANCH   5   8
ENDBRANCH   1   2
BRANCH   1  19
ATOM     17  O   UNL     1      49.129   6.605  13.362  0.00  0.00    +0.000 OA
ATOM     18  C   UNL     1      48.454   6.704  14.384  0.00  0.00    +0.000 C 
ATOM     19  N   UNL     1      47.195   7.241  14.386  0.00  0.00    +0.000 N 
ATOM     20  H   UNL     1      46.750   7.462  15.269  0.00  0.00    +0.000 HD
BRANCH  18  21
ATOM     21  C   UNL     1      48.939   6.187  15.672  0.00  0.00    +0.000 A 
ATOM     22  C   UNL     1      50.001   6.815  16.310  0.00  0.00    +0.000 A 
ATOM     23  S   UNL     1      50.450   6.078  17.781  0.00  0.00    +0.000 S 
ATOM     24  C   UNL     1      49.213   4.919  17.640  0.00  0.00    +0.000 A 
ATOM     25  N   UNL     1      49.020   3.984  18.608  0.00  0.00    +0.000 NA
ATOM     26  C   UNL     1      48.024   3.190  18.394  0.00  0.00    +0.000 A 
ATOM     27  N   UNL     1      47.212   3.241  17.293  0.00  0.00    +0.000 N 
ATOM     28  C   UNL     1      47.414   4.119  16.256  0.00  0.00    +0.000 A 
ATOM     29  O   UNL     1      46.751   4.044  15.226  0.00  0.00    +0.000 OA
ATOM     30  C   UNL     1      48.488   5.070  16.471  0.00  0.00    +0.000 A 
ATOM     31  H   UNL     1      46.467   2.569  17.167  0.00  0.00    +0.000 HD
ENDBRANCH  18  21
ENDBRANCH   1  19
TORSDOF 7
ENDMDL
MODEL 2
REMARK VINA RESULT:    -7.238      3.007      3.948
REMARK INTER + INTRA:         -11.091
REMARK INTER:                 -10.057
REMARK INTRA:                  -1.034
REMARK UNBOUND:                -1.102
REMARK  Name = 
REMARK  7 active torsions:
REMARK  status: ('A' for Active; 'I' for Inactive)
REMARK    1  A    between atoms: C_2  and  C_19
REMARK    2  A    between atoms: N_3  and  C_4
REMARK    3  A    between atoms: C_4  and  C_5
REMARK    4  A    between atoms: C_8  and  C_9
REMARK    5  A    between atoms: C_9  and  C_10
REMARK    6  A    between atoms: C_10  and  N_11
REMARK    7  A    between atoms: C_14  and  O_15
REMARK                            x       y       z     vdW  Elec       q    Type
REMARK                         _______ _______ _______ _____ _____    ______ ____
ROOT
ATOM      1  C   UNL     1      46.342   6.250  13.483  0.00  0.00    +0.000 C 
ENDROOT
BRANCH   1   2
ATOM      2  C   UNL     1      45.836   5.360  12.378  0.00  0.00    +0.000 A 
ATOM      3  C   UNL     1      45.511   4.024  12.641  0.00  0.00    +0.000 A 
ATOM      4  C   UNL     1      45.044   3.189  11.622  0.00  0.00    +0.000 A 
ATOM      5  C   UNL     1      44.898   3.673  10.317  0.00  0.00    +0.000 A 
ATOM      6  C   UNL     1      45.246   5.006  10.050  0.00  0.00    +0.000 A 
ATOM      7  C   UNL     1      45.717   5.839  11.067  0.00  0.00    +0.000 A 
BRANCH   5   8
ATOM      8  C   UNL     1      44.439   2.770   9.195  0.00  0.00    +0.000 C 
BRANCH   8   9
ATOM      9  C   UNL     1      45.481   1.720   8.763  0.00  0.00    +0.000 C 
BRANCH   9  10
ATOM     10  N   UNL     1      46.479   2.271   7.827  0.00  0.00    +0.000 NA
ATOM     11  C   UNL     1      45.888   3.133   6.793  0.00  0.00    +0.000 C 
ATOM     12  C   UNL     1      46.808   3.031   5.579  0.00  0.00    +0.000 C 
ATOM     13  C   UNL     1      47.858   2.000   5.969  0.00  0.00    +0.000 C 
ATOM     14  C   UNL     1      47.192   1.210   7.093  0.00  0.00    +0.000 C 
BRANCH  13  15
ATOM     15  O   UNL     1      49.020   2.674   6.456  0.00  0.00    +0.000 OA
ATOM     16  H   UNL     1      49.526   1.995   6.944  0.00  0.00    +0.000 HD
ENDBRANCH  13  15
ENDBRANCH   9  10
ENDBRANCH   8   9
ENDBRANCH   5   8
ENDBRANCH   1   2
BRANCH   1  19
ATOM     17  O   UNL     1      47.047   8.965  13.199  0.00  0.00    +0.000 OA
ATOM     18  C   UNL     1      47.921   8.108  13.097  0.00  0.00    +0.000 C 
ATOM     19  N   UNL     1      47.652   6.769  13.184  0.00  0.00    +0.000 N 
ATOM     20  H   UNL     1      48.419   6.112  13.271  0.00  0.00    +0.000 HD
BRANCH  18  21
ATOM     21  C   UNL     1      49.317   8.469  12.809  0.00  0.00    +0.000 A 
ATOM     22  C   UNL     1      49.612   9.234  11.687  0.00  0.00    +0.000 A 
ATOM     23  S   UNL     1      51.277   9.546  11.489  0.00  0.00    +0.000 S 
ATOM     24  C   UNL     1      51.659   8.707  12.919  0.00  0.00    +0.000 A 
ATOM     25  N   UNL     1      52.944   8.622  13.355  0.00  0.00    +0.000 NA
ATOM     26  C   UNL     1      53.089   7.990  14.472  0.00  0.00    +0.000 A 
ATOM     27  N   UNL     1      52.065   7.426  15.185  0.00  0.00    +0.000 N 
ATOM     28  C   UNL     1      50.763   7.423  14.747  0.00  0.00    +0.000 A 
ATOM     29  O   UNL     1      49.897   6.790  15.343  0.00  0.00    +0.000 OA
ATOM     30  C   UNL     1      50.537   8.167  13.522  0.00  0.00    +0.000 A 
ATOM     31  H   UNL     1      52.247   6.915  16.038  0.00  0.00    +0.000 HD
ENDBRANCH  18  21
ENDBRANCH   1  19
TORSDOF 7
ENDMDL
MODEL 3
REMARK VINA RESULT:    -7.101      2.298      2.659
REMARK INTER + INTRA:         -10.902
REMARK INTER:                  -9.853
REMARK INTRA:                  -1.049
REMARK UNBOUND:                -1.102
REMARK  Name = 
REMARK  7 active torsions:
REMARK  status: ('A' for Active; 'I' for Inactive)
REMARK    1  A    between atoms: C_2  and  C_19
REMARK    2  A    between atoms: N_3  and  C_4
REMARK    3  A    between atoms: C_4  and  C_5
REMARK    4  A    between atoms: C_8  and  C_9
REMARK    5  A    between atoms: C_9  and  C_10
REMARK    6  A    between atoms: C_10  and  N_11
REMARK    7  A    between atoms: C_14  and  O_15
REMARK                            x       y       z     vdW  Elec       q    Type
REMARK                         _______ _______ _______ _____ _____    ______ ____
ROOT
ATOM      1  C   UNL     1      47.966   7.136  13.825  0.00  0.00    +0.000 C 
ENDROOT
BRANCH   1   2
ATOM      2  C   UNL     1      47.031   6.290  13.001  0.00  0.00    +0.000 A 
ATOM      3  C   UNL     1      46.605   5.043  13.473  0.00  0.00    +0.000 A 
ATOM      4  C   UNL     1      45.740   4.249  12.715  0.00  0.00    +0.000 A 
ATOM      5  C   UNL     1      45.287   4.686  11.465  0.00  0.00    +0.000 A 
ATOM      6  C   UNL     1      45.732   5.926  10.982  0.00  0.00    +0.000 A 
ATOM      7  C   UNL     1      46.600   6.718  11.739  0.00  0.00    +0.000 A 
BRANCH   5   8
ATOM      8  C   UNL     1      44.388   3.819  10.613  0.00  0.00    +0.000 C 
BRANCH   8   9
ATOM      9  C   UNL     1      44.237   4.305   9.158  0.00  0.00    +0.000 C 
BRANCH   9  10
ATOM     10  N   UNL     1      44.940   3.433   8.198  0.00  0.00    +0.000 NA
ATOM     11  C   UNL     1      45.208   2.088   8.728  0.00  0.00    +0.000 C 
ATOM     12  C   UNL     1      46.464   1.594   8.014  0.00  0.00    +0.000 C 
ATOM     13  C   UNL     1      46.916   2.768   7.158  0.00  0.00    +0.000 C 
ATOM     14  C   UNL     1      46.257   3.976   7.821  0.00  0.00    +0.000 C 
BRANCH  13  15
ATOM     15  O   UNL     1      46.420   2.599   5.828  0.00  0.00    +0.000 OA
ATOM     16  H   UNL     1      46.537   1.650   5.627  0.00  0.00    +0.000 HD
ENDBRANCH  13  15
ENDBRANCH   9  10
ENDBRANCH   8   9
ENDBRANCH   5   8
ENDBRANCH   1   2
BRANCH   1  19
ATOM     17  O   UNL     1      50.147   6.471  15.485  0.00  0.00    +0.000 OA
ATOM     18  C   UNL     1      49.018   6.505  15.968  0.00  0.00    +0.000 C 
ATOM     19  N   UNL     1      47.905   6.782  15.220  0.00  0.00    +0.000 N 
ATOM     20  H   UNL     1      47.027   6.972  15.688  0.00  0.00    +0.000 HD
BRANCH  18  21
ATOM     21  C   UNL     1      48.783   6.185  17.383  0.00  0.00    +0.000 A 
ATOM     22  C   UNL     1      49.068   4.911  17.857  0.00  0.00    +0.000 A 
ATOM     23  S   UNL     1      48.719   4.702  19.514  0.00  0.00    +0.000 S 
ATOM     24  C   UNL     1      48.215   6.320  19.667  0.00  0.00    +0.000 A 
ATOM     25  N   UNL     1      47.811   6.813  20.868  0.00  0.00    +0.000 NA
ATOM     26  C   UNL     1      47.491   8.064  20.851  0.00  0.00    +0.000 A 
ATOM     27  N   UNL     1      47.529   8.863  19.739  0.00  0.00    +0.000 N 
ATOM     28  C   UNL     1      47.860   8.390  18.492  0.00  0.00    +0.000 A 
ATOM     29  O   UNL     1      47.751   9.100  17.498  0.00  0.00    +0.000 OA
ATOM     30  C   UNL     1      48.279   7.001  18.465  0.00  0.00    +0.000 A 
ATOM     31  H   UNL     1      47.235   9.828  19.784  0.00  0.00    +0.000 HD
ENDBRANCH  18  21
ENDBRANCH   1  19
TORSDOF 7
ENDMDL
MODEL 4
REMARK VINA RESULT:    -6.875      1.742      2.146
REMARK INTER + INTRA:         -10.590
REMARK INTER:                  -9.750
REMARK INTRA:                  -0.839
REMARK UNBOUND:                -1.102
REMARK  Name = 
REMARK  7 active torsions:
REMARK  status: ('A' for Active; 'I' for Inactive)
REMARK    1  A    between atoms: C_2  and  C_19
REMARK    2  A    between atoms: N_3  and  C_4
REMARK    3  A    between atoms: C_4  and  C_5
REMARK    4  A    between atoms: C_8  and  C_9
REMARK    5  A    between atoms: C_9  and  C_10
REMARK    6  A    between atoms: C_10  and  N_11
REMARK    7  A    between atoms: C_14  and  O_15
REMARK                            x       y       z     vdW  Elec       q    Type
REMARK                         _______ _______ _______ _____ _____    ______ ____
ROOT
ATOM      1  C   UNL     1      48.344   7.190  13.723  0.00  0.00    +0.000 C 
ENDROOT
BRANCH   1   2
ATOM      2  C   UNL     1      47.311   6.328  13.046  0.00  0.00    +0.000 A 
ATOM      3  C   UNL     1      46.625   6.800  11.920  0.00  0.00    +0.000 A 
ATOM      4  C   UNL     1      45.662   6.009  11.288  0.00  0.00    +0.000 A 
ATOM      5  C   UNL     1      45.362   4.730  11.772  0.00  0.00    +0.000 A 
ATOM      6  C   UNL     1      46.034   4.267  12.913  0.00  0.00    +0.000 A 
ATOM      7  C   UNL     1      46.993   5.060  13.548  0.00  0.00    +0.000 A 
BRANCH   5   8
ATOM      8  C   UNL     1      44.291   3.882  11.126  0.00  0.00    +0.000 C 
BRANCH   8   9
ATOM      9  C   UNL     1      43.901   4.331   9.704  0.00  0.00    +0.000 C 
BRANCH   9  10
ATOM     10  N   UNL     1      44.583   3.545   8.659  0.00  0.00    +0.000 NA
ATOM     11  C   UNL     1      44.880   2.166   9.074  0.00  0.00    +0.000 C 
ATOM     12  C   UNL     1      46.118   1.743   8.288  0.00  0.00    +0.000 C 
ATOM     13  C   UNL     1      46.533   2.986   7.513  0.00  0.00    +0.000 C 
ATOM     14  C   UNL     1      45.883   4.131   8.287  0.00  0.00    +0.000 C 
BRANCH  13  15
ATOM     15  O   UNL     1      46.000   2.915   6.189  0.00  0.00    +0.000 OA
ATOM     16  H   UNL     1      46.002   1.965   5.961  0.00  0.00    +0.000 HD
ENDBRANCH  13  15
ENDBRANCH   9  10
ENDBRANCH   8   9
ENDBRANCH   5   8
ENDBRANCH   1   2
BRANCH   1  19
ATOM     17  O   UNL     1      50.447   6.746  15.548  0.00  0.00    +0.000 OA
ATOM     18  C   UNL     1      49.312   6.933  15.979  0.00  0.00    +0.000 C 
ATOM     19  N   UNL     1      48.234   7.118  15.157  0.00  0.00    +0.000 N 
ATOM     20  H   UNL     1      47.358   7.442  15.551  0.00  0.00    +0.000 HD
BRANCH  18  21
ATOM     21  C   UNL     1      49.029   6.908  17.422  0.00  0.00    +0.000 A 
ATOM     22  C   UNL     1      48.776   8.096  18.094  0.00  0.00    +0.000 A 
ATOM     23  S   UNL     1      48.487   7.891  19.763  0.00  0.00    +0.000 S 
ATOM     24  C   UNL     1      48.648   6.202  19.638  0.00  0.00    +0.000 A 
ATOM     25  N   UNL     1      48.482   5.403  20.726  0.00  0.00    +0.000 NA
ATOM     26  C   UNL     1      48.594   4.140  20.484  0.00  0.00    +0.000 A 
ATOM     27  N   UNL     1      48.870   3.605  19.253  0.00  0.00    +0.000 N 
ATOM     28  C   UNL     1      49.118   4.375  18.143  0.00  0.00    +0.000 A 
ATOM     29  O   UNL     1      49.495   3.866  17.093  0.00  0.00    +0.000 OA
ATOM     30  C   UNL     1      48.951   5.801  18.349  0.00  0.00    +0.000 A 
ATOM     31  H   UNL     1      48.977   2.607  19.135  0.00  0.00    +0.000 HD
ENDBRANCH  18  21
ENDBRANCH   1  19
TORSDOF 7
ENDMDL
MODEL 5
REMARK VINA RESULT:    -6.557      2.933      8.703
REMARK INTER + INTRA:         -10.151
REMARK INTER:                  -8.964
REMARK INTRA:                  -1.187
REMARK UNBOUND:                -1.102
REMARK  Name = 
REMARK  7 active torsions:
REMARK  status: ('A' for Active; 'I' for Inactive)
REMARK    1  A    between atoms: C_2  and  C_19
REMARK    2  A    between atoms: N_3  and  C_4
REMARK    3  A    between atoms: C_4  and  C_5
REMARK    4  A    between atoms: C_8  and  C_9
REMARK    5  A    between atoms: C_9  and  C_10
REMARK    6  A    between atoms: C_10  and  N_11
REMARK    7  A    between atoms: C_14  and  O_15
REMARK                            x       y       z     vdW  Elec       q    Type
REMARK                         _______ _______ _______ _____ _____    ______ ____
ROOT
ATOM      1  C   UNL     1      47.647   7.801  11.967  0.00  0.00    +0.000 C 
ENDROOT
BRANCH   1   2
ATOM      2  C   UNL     1      48.135   7.893  13.389  0.00  0.00    +0.000 A 
ATOM      3  C   UNL     1      49.013   6.928  13.898  0.00  0.00    +0.000 A 
ATOM      4  C   UNL     1      49.470   7.003  15.216  0.00  0.00    +0.000 A 
ATOM      5  C   UNL     1      49.053   8.043  16.055  0.00  0.00    +0.000 A 
ATOM      6  C   UNL     1      48.155   8.997  15.551  0.00  0.00    +0.000 A 
ATOM      7  C   UNL     1      47.696   8.920  14.234  0.00  0.00    +0.000 A 
BRANCH   5   8
ATOM      8  C   UNL     1      49.502   8.111  17.497  0.00  0.00    +0.000 C 
BRANCH   8   9
ATOM      9  C   UNL     1      48.455   7.605  18.509  0.00  0.00    +0.000 C 
BRANCH   9  10
ATOM     10  N   UNL     1      48.779   6.263  19.029  0.00  0.00    +0.000 NA
ATOM     11  C   UNL     1      50.146   5.832  18.704  0.00  0.00    +0.000 C 
ATOM     12  C   UNL     1      50.106   4.307  18.639  0.00  0.00    +0.000 C 
ATOM     13  C   UNL     1      48.641   3.945  18.840  0.00  0.00    +0.000 C 
ATOM     14  C   UNL     1      47.896   5.225  18.467  0.00  0.00    +0.000 C 
BRANCH  13  15
ATOM     15  O   UNL     1      48.420   3.623  20.214  0.00  0.00    +0.000 OA
ATOM     16  H   UNL     1      49.185   3.075  20.477  0.00  0.00    +0.000 HD
ENDBRANCH  13  15
ENDBRANCH   9  10
ENDBRANCH   8   9
ENDBRANCH   5   8
ENDBRANCH   1   2
BRANCH   1  19
ATOM     17  O   UNL     1      44.856   7.466  12.193  0.00  0.00    +0.000 OA
ATOM     18  C   UNL     1      45.545   6.513  11.838  0.00  0.00    +0.000 C 
ATOM     19  N   UNL     1      46.908   6.585  11.741  0.00  0.00    +0.000 N 
ATOM     20  H   UNL     1      47.414   5.838  11.280  0.00  0.00    +0.000 HD
BRANCH  18  21
ATOM     21  C   UNL     1      44.945   5.201  11.552  0.00  0.00    +0.000 A 
ATOM     22  C   UNL     1      44.222   4.545  12.541  0.00  0.00    +0.000 A 
ATOM     23  S   UNL     1      43.612   3.029  12.051  0.00  0.00    +0.000 S 
ATOM     24  C   UNL     1      44.257   3.214  10.488  0.00  0.00    +0.000 A 
ATOM     25  N   UNL     1      44.063   2.262   9.536  0.00  0.00    +0.000 NA
ATOM     26  C   UNL     1      44.573   2.546   8.384  0.00  0.00    +0.000 A 
ATOM     27  N   UNL     1      45.269   3.691   8.102  0.00  0.00    +0.000 N 
ATOM     28  C   UNL     1      45.553   4.644   9.049  0.00  0.00    +0.000 A 
ATOM     29  O   UNL     1      46.294   5.588   8.794  0.00  0.00    +0.000 OA
ATOM     30  C   UNL     1      44.956   4.400  10.349  0.00  0.00    +0.000 A 
ATOM     31  H   UNL     1      45.672   3.840   7.188  0.00  0.00    +0.000 HD
ENDBRANCH  18  21
ENDBRANCH   1  19
TORSDOF 7
ENDMDL
MODEL 6
REMARK VINA RESULT:    -6.475      4.543      8.551
REMARK INTER + INTRA:         -10.038
REMARK INTER:                  -9.042
REMARK INTRA:                  -0.996
REMARK UNBOUND:                -1.102
REMARK  Name = 
REMARK  7 active torsions:
REMARK  status: ('A' for Active; 'I' for Inactive)
REMARK    1  A    between atoms: C_2  and  C_19
REMARK    2  A    between atoms: N_3  and  C_4
REMARK    3  A    between atoms: C_4  and  C_5
REMARK    4  A    between atoms: C_8  and  C_9
REMARK    5  A    between atoms: C_9  and  C_10
REMARK    6  A    between atoms: C_10  and  N_11
REMARK    7  A    between atoms: C_14  and  O_15
REMARK                            x       y       z     vdW  Elec       q    Type
REMARK                         _______ _______ _______ _____ _____    ______ ____
ROOT
ATOM      1  C   UNL     1      48.818   6.523  16.945  0.00  0.00    +0.000 C 
ENDROOT
BRANCH   1   2
ATOM      2  C   UNL     1      49.664   5.293  17.149  0.00  0.00    +0.000 A 
ATOM      3  C   UNL     1      49.062   4.034  17.267  0.00  0.00    +0.000 A 
ATOM      4  C   UNL     1      49.838   2.888  17.459  0.00  0.00    +0.000 A 
ATOM      5  C   UNL     1      51.232   2.978  17.541  0.00  0.00    +0.000 A 
ATOM      6  C   UNL     1      51.832   4.243  17.445  0.00  0.00    +0.000 A 
ATOM      7  C   UNL     1      51.056   5.389  17.257  0.00  0.00    +0.000 A 
BRANCH   5   8
ATOM      8  C   UNL     1      52.080   1.753  17.795  0.00  0.00    +0.000 C 
BRANCH   8   9
ATOM      9  C   UNL     1      53.535   2.065  18.198  0.00  0.00    +0.000 C 
BRANCH   9  10
ATOM     10  N   UNL     1      54.492   1.086  17.651  0.00  0.00    +0.000 NA
ATOM     11  C   UNL     1      55.393   1.660  16.642  0.00  0.00    +0.000 C 
ATOM     12  C   UNL     1      55.775   0.511  15.711  0.00  0.00    +0.000 C 
ATOM     13  C   UNL     1      54.959  -0.677  16.201  0.00  0.00    +0.000 C 
ATOM     14  C   UNL     1      53.812  -0.035  16.978  0.00  0.00    +0.000 C 
BRANCH  13  15
ATOM     15  O   UNL     1      55.765  -1.473  17.072  0.00  0.00    +0.000 OA
ATOM     16  H   UNL     1      55.772  -2.365  16.674  0.00  0.00    +0.000 HD
ENDBRANCH  13  15
ENDBRANCH   9  10
ENDBRANCH   8   9
ENDBRANCH   5   8
ENDBRANCH   1   2
BRANCH   1  19
ATOM     17  O   UNL     1      49.481   6.862  14.226  0.00  0.00    +0.000 OA
ATOM     18  C   UNL     1      48.340   6.521  14.524  0.00  0.00    +0.000 C 
ATOM     19  N   UNL     1      47.930   6.372  15.821  0.00  0.00    +0.000 N 
ATOM     20  H   UNL     1      47.043   5.923  16.014  0.00  0.00    +0.000 HD
BRANCH  18  21
ATOM     21  C   UNL     1      47.313   6.309  13.493  0.00  0.00    +0.000 A 
ATOM     22  C   UNL     1      46.901   7.374  12.702  0.00  0.00    +0.000 A 
ATOM     23  S   UNL     1      45.692   6.962  11.573  0.00  0.00    +0.000 S 
ATOM     24  C   UNL     1      45.705   5.335  12.071  0.00  0.00    +0.000 A 
ATOM     25  N   UNL     1      44.904   4.415  11.469  0.00  0.00    +0.000 NA
ATOM     26  C   UNL     1      45.041   3.212  11.919  0.00  0.00    +0.000 A 
ATOM     27  N   UNL     1      45.899   2.849  12.924  0.00  0.00    +0.000 N 
ATOM     28  C   UNL     1      46.671   3.755  13.609  0.00  0.00    +0.000 A 
ATOM     29  O   UNL     1      47.322   3.415  14.591  0.00  0.00    +0.000 OA
ATOM     30  C   UNL     1      46.594   5.115  13.107  0.00  0.00    +0.000 A 
ATOM     31  H   UNL     1      45.936   1.895  13.253  0.00  0.00    +0.000 HD
ENDBRANCH  18  21
ENDBRANCH   1  19
TORSDOF 7
ENDMDL
MODEL 7
REMARK VINA RESULT:    -6.439      3.469      4.976
REMARK INTER + INTRA:          -9.989
REMARK INTER:                  -8.988
REMARK INTRA:                  -1.001
REMARK UNBOUND:                -1.102
REMARK  Name = 
REMARK  7 active torsions:
REMARK  status: ('A' for Active; 'I' for Inactive)
REMARK    1  A    between atoms: C_2  and  C_19
REMARK    2  A    between atoms: N_3  and  C_4
REMARK    3  A    between atoms: C_4  and  C_5
REMARK    4  A    between atoms: C_8  and  C_9
REMARK    5  A    between atoms: C_9  and  C_10
REMARK    6  A    between atoms: C_10  and  N_11
REMARK    7  A    between atoms: C_14  and  O_15
REMARK                            x       y       z     vdW  Elec       q    Type
REMARK                         _______ _______ _______ _____ _____    ______ ____
ROOT
ATOM      1  C   UNL     1      49.771   6.511  17.252  0.00  0.00    +0.000 C 
ENDROOT
BRANCH   1   2
ATOM      2  C   UNL     1      48.809   5.892  16.273  0.00  0.00    +0.000 A 
ATOM      3  C   UNL     1      48.603   6.478  15.018  0.00  0.00    +0.000 A 
ATOM      4  C   UNL     1      47.710   5.913  14.103  0.00  0.00    +0.000 A 
ATOM      5  C   UNL     1      47.000   4.752  14.428  0.00  0.00    +0.000 A 
ATOM      6  C   UNL     1      47.190   4.177  15.694  0.00  0.00    +0.000 A 
ATOM      7  C   UNL     1      48.079   4.745  16.610  0.00  0.00    +0.000 A 
BRANCH   5   8
ATOM      8  C   UNL     1      45.997   4.155  13.467  0.00  0.00    +0.000 C 
BRANCH   8   9
ATOM      9  C   UNL     1      45.111   5.195  12.754  0.00  0.00    +0.000 C 
BRANCH   9  10
ATOM     10  N   UNL     1      44.568   4.691  11.478  0.00  0.00    +0.000 NA
ATOM     11  C   UNL     1      44.495   3.224  11.421  0.00  0.00    +0.000 C 
ATOM     12  C   UNL     1      44.625   2.849   9.946  0.00  0.00    +0.000 C 
ATOM     13  C   UNL     1      44.875   4.168   9.229  0.00  0.00    +0.000 C 
ATOM     14  C   UNL     1      45.401   5.087  10.329  0.00  0.00    +0.000 C 
BRANCH  13  15
ATOM     15  O   UNL     1      43.638   4.666   8.715  0.00  0.00    +0.000 OA
ATOM     16  H   UNL     1      43.886   5.354   8.066  0.00  0.00    +0.000 HD
ENDBRANCH  13  15
ENDBRANCH   9  10
ENDBRANCH   8   9
ENDBRANCH   5   8
ENDBRANCH   1   2
BRANCH   1  19
ATOM     17  O   UNL     1      50.155   5.274  19.757  0.00  0.00    +0.000 OA
ATOM     18  C   UNL     1      50.924   5.010  18.836  0.00  0.00    +0.000 C 
ATOM     19  N   UNL     1      50.827   5.597  17.603  0.00  0.00    +0.000 N 
ATOM     20  H   UNL     1      51.365   5.223  16.830  0.00  0.00    +0.000 HD
BRANCH  18  21
ATOM     21  C   UNL     1      52.049   4.081  19.023  0.00  0.00    +0.000 A 
ATOM     22  C   UNL     1      53.072   4.409  19.903  0.00  0.00    +0.000 A 
ATOM     23  S   UNL     1      54.306   3.234  19.986  0.00  0.00    +0.000 S 
ATOM     24  C   UNL     1      53.496   2.226  18.881  0.00  0.00    +0.000 A 
ATOM     25  N   UNL     1      54.011   1.017  18.533  0.00  0.00    +0.000 NA
ATOM     26  C   UNL     1      53.276   0.338  17.716  0.00  0.00    +0.000 A 
ATOM     27  N   UNL     1      52.079   0.766  17.207  0.00  0.00    +0.000 N 
ATOM     28  C   UNL     1      51.557   2.008  17.472  0.00  0.00    +0.000 A 
ATOM     29  O   UNL     1      50.553   2.409  16.891  0.00  0.00    +0.000 OA
ATOM     30  C   UNL     1      52.317   2.791  18.428  0.00  0.00    +0.000 A 
ATOM     31  H   UNL     1      51.566   0.200  16.545  0.00  0.00    +0.000 HD
ENDBRANCH  18  21
ENDBRANCH   1  19
TORSDOF 7
ENDMDL
MODEL 8
REMARK VINA RESULT:    -6.298      3.730      7.721
REMARK INTER + INTRA:          -9.794
REMARK INTER:                  -8.331
REMARK INTRA:                  -1.463
REMARK UNBOUND:                -1.102
REMARK  Name = 
REMARK  7 active torsions:
REMARK  status: ('A' for Active; 'I' for Inactive)
REMARK    1  A    between atoms: C_2  and  C_19
REMARK    2  A    between atoms: N_3  and  C_4
REMARK    3  A    between atoms: C_4  and  C_5
REMARK    4  A    between atoms: C_8  and  C_9
REMARK    5  A    between atoms: C_9  and  C_10
REMARK    6  A    between atoms: C_10  and  N_11
REMARK    7  A    between atoms: C_14  and  O_15
REMARK                            x       y       z     vdW  Elec       q    Type
REMARK                         _______ _______ _______ _____ _____    ______ ____
ROOT
ATOM      1  C   UNL     1      48.197   9.019  14.860  0.00  0.00    +0.000 C 
ENDROOT
BRANCH   1   2
ATOM      2  C   UNL     1      49.047   8.166  15.765  0.00  0.00    +0.000 A 
ATOM      3  C   UNL     1      50.112   7.424  15.240  0.00  0.00    +0.000 A 
ATOM      4  C   UNL     1      50.905   6.627  16.070  0.00  0.00    +0.000 A 
ATOM      5  C   UNL     1      50.646   6.553  17.444  0.00  0.00    +0.000 A 
ATOM      6  C   UNL     1      49.565   7.280  17.965  0.00  0.00    +0.000 A 
ATOM      7  C   UNL     1      48.769   8.073  17.134  0.00  0.00    +0.000 A 
BRANCH   5   8
ATOM      8  C   UNL     1      51.466   5.661  18.347  0.00  0.00    +0.000 C 
BRANCH   8   9
ATOM      9  C   UNL     1      50.726   4.396  18.825  0.00  0.00    +0.000 C 
BRANCH   9  10
ATOM     10  N   UNL     1      49.652   3.988  17.900  0.00  0.00    +0.000 NA
ATOM     11  C   UNL     1      48.330   3.930  18.538  0.00  0.00    +0.000 C 
ATOM     12  C   UNL     1      47.531   2.882  17.766  0.00  0.00    +0.000 C 
ATOM     13  C   UNL     1      48.514   2.308  16.756  0.00  0.00    +0.000 C 
ATOM     14  C   UNL     1      49.881   2.641  17.348  0.00  0.00    +0.000 C 
BRANCH  13  15
ATOM     15  O   UNL     1      48.341   2.972  15.502  0.00  0.00    +0.000 OA
ATOM     16  H   UNL     1      48.931   3.750  15.538  0.00  0.00    +0.000 HD
ENDBRANCH  13  15
ENDBRANCH   9  10
ENDBRANCH   8   9
ENDBRANCH   5   8
ENDBRANCH   1   2
BRANCH   1  19
ATOM     17  O   UNL     1      47.823   8.615  12.095  0.00  0.00    +0.000 OA
ATOM     18  C   UNL     1      47.057   8.070  12.886  0.00  0.00    +0.000 C 
ATOM     19  N   UNL     1      47.150   8.248  14.240  0.00  0.00    +0.000 N 
ATOM     20  H   UNL     1      46.617   7.647  14.858  0.00  0.00    +0.000 HD
BRANCH  18  21
ATOM     21  C   UNL     1      45.942   7.234  12.418  0.00  0.00    +0.000 A 
ATOM     22  C   UNL     1      44.919   7.806  11.674  0.00  0.00    +0.000 A 
ATOM     23  S   UNL     1      43.696   6.703  11.229  0.00  0.00    +0.000 S 
ATOM     24  C   UNL     1      44.513   5.412  11.979  0.00  0.00    +0.000 A 
ATOM     25  N   UNL     1      44.008   4.150  11.938  0.00  0.00    +0.000 NA
ATOM     26  C   UNL     1      44.746   3.261  12.514  0.00  0.00    +0.000 A 
ATOM     27  N   UNL     1      45.938   3.522  13.136  0.00  0.00    +0.000 N 
ATOM     28  C   UNL     1      46.450   4.791  13.266  0.00  0.00    +0.000 A 
ATOM     29  O   UNL     1      47.447   5.003  13.947  0.00  0.00    +0.000 OA
ATOM     30  C   UNL     1      45.685   5.822  12.590  0.00  0.00    +0.000 A 
ATOM     31  H   UNL     1      46.454   2.786  13.597  0.00  0.00    +0.000 HD
ENDBRANCH  18  21
ENDBRANCH   1  19
TORSDOF 7
ENDMDL
MODEL 9
REMARK VINA RESULT:    -6.120      2.594      3.416
REMARK INTER + INTRA:          -9.548
REMARK INTER:                  -8.748
REMARK INTRA:                  -0.800
REMARK UNBOUND:                -1.102
REMARK  Name = 
REMARK  7 active torsions:
REMARK  status: ('A' for Active; 'I' for Inactive)
REMARK    1  A    between atoms: C_2  and  C_19
REMARK    2  A    between atoms: N_3  and  C_4
REMARK    3  A    between atoms: C_4  and  C_5
REMARK    4  A    between atoms: C_8  and  C_9
REMARK    5  A    between atoms: C_9  and  C_10
REMARK    6  A    between atoms: C_10  and  N_11
REMARK    7  A    between atoms: C_14  and  O_15
REMARK                            x       y       z     vdW  Elec       q    Type
REMARK                         _______ _______ _______ _____ _____    ______ ____
ROOT
ATOM      1  C   UNL     1      48.866   7.606  15.929  0.00  0.00    +0.000 C 
ENDROOT
BRANCH   1   2
ATOM      2  C   UNL     1      48.188   7.214  14.643  0.00  0.00    +0.000 A 
ATOM      3  C   UNL     1      47.623   5.940  14.502  0.00  0.00    +0.000 A 
ATOM      4  C   UNL     1      46.995   5.566  13.311  0.00  0.00    +0.000 A 
ATOM      5  C   UNL     1      46.923   6.457  12.234  0.00  0.00    +0.000 A 
ATOM      6  C   UNL     1      47.509   7.725  12.368  0.00  0.00    +0.000 A 
ATOM      7  C   UNL     1      48.141   8.098  13.557  0.00  0.00    +0.000 A 
BRANCH   5   8
ATOM      8  C   UNL     1      46.287   6.051  10.924  0.00  0.00    +0.000 C 
BRANCH   8   9
ATOM      9  C   UNL     1      44.906   5.383  11.073  0.00  0.00    +0.000 C 
BRANCH   9  10
ATOM     10  N   UNL     1      44.628   4.418   9.993  0.00  0.00    +0.000 NA
ATOM     11  C   UNL     1      44.794   3.019  10.411  0.00  0.00    +0.000 C 
ATOM     12  C   UNL     1      45.181   2.243   9.155  0.00  0.00    +0.000 C 
ATOM     13  C   UNL     1      45.317   3.300   8.068  0.00  0.00    +0.000 C 
ATOM     14  C   UNL     1      45.538   4.595   8.847  0.00  0.00    +0.000 C 
BRANCH  13  15
ATOM     15  O   UNL     1      44.099   3.369   7.324  0.00  0.00    +0.000 OA
ATOM     16  H   UNL     1      43.752   2.456   7.311  0.00  0.00    +0.000 HD
ENDBRANCH  13  15
ENDBRANCH   9  10
ENDBRANCH   8   9
ENDBRANCH   5   8
ENDBRANCH   1   2
BRANCH   1  19
ATOM     17  O   UNL     1      49.014   5.845  18.127  0.00  0.00    +0.000 OA
ATOM     18  C   UNL     1      49.935   5.864  17.314  0.00  0.00    +0.000 C 
ATOM     19  N   UNL     1      49.954   6.716  16.243  0.00  0.00    +0.000 N 
ATOM     20  H   UNL     1      50.639   6.577  15.509  0.00  0.00    +0.000 HD
BRANCH  18  21
ATOM     21  C   UNL     1      51.116   5.005  17.478  0.00  0.00    +0.000 A 
ATOM     22  C   UNL     1      52.368   5.582  17.649  0.00  0.00    +0.000 A 
ATOM     23  S   UNL     1      53.631   4.446  17.805  0.00  0.00    +0.000 S 
ATOM     24  C   UNL     1      52.544   3.142  17.693  0.00  0.00    +0.000 A 
ATOM     25  N   UNL     1      52.984   1.859  17.788  0.00  0.00    +0.000 NA
ATOM     26  C   UNL     1      52.050   0.968  17.724  0.00  0.00    +0.000 A 
ATOM     27  N   UNL     1      50.719   1.246  17.563  0.00  0.00    +0.000 N 
ATOM     28  C   UNL     1      50.239   2.522  17.389  0.00  0.00    +0.000 A 
ATOM     29  O   UNL     1      49.061   2.721  17.111  0.00  0.00    +0.000 OA
ATOM     30  C   UNL     1      51.241   3.565  17.505  0.00  0.00    +0.000 A 
ATOM     31  H   UNL     1      50.040   0.502  17.488  0.00  0.00    +0.000 HD
ENDBRANCH  18  21
ENDBRANCH   1  19
TORSDOF 7
ENDMDL
