MODEL 1
REMARK VINA RESULT:    -7.332      0.000      0.000
REMARK INTER + INTRA:          -9.777
REMARK INTER:                  -9.261
REMARK INTRA:                  -0.516
REMARK UNBOUND:                -0.516
REMARK  Name = 
REMARK  5 active torsions:
REMARK  status: ('A' for Active; 'I' for Inactive)
REMARK    1  A    between atoms: N_1  and  C_2
REMARK    2  A    between atoms: C_2  and  C_3
REMARK    3  A    between atoms: C_6  and  O_7
REMARK    4  A    between atoms: O_7  and  C_8
REMARK    5  A    between atoms: C_8  and  C_9
REMARK                            x       y       z     vdW  Elec       q    Type
REMARK                         _______ _______ _______ _____ _____    ______ ____
ROOT
ATOM      1  C   UNL     1      46.645   2.307   7.577  0.00  0.00    +0.000 A 
ATOM      2  C   UNL     1      45.786   1.660   8.471  0.00  0.00    +0.000 A 
ATOM      3  C   UNL     1      44.814   2.389   9.154  0.00  0.00    +0.000 A 
ATOM      4  C   UNL     1      44.752   3.752   8.939  0.00  0.00    +0.000 A 
ATOM      5  N   UNL     1      45.550   4.412   8.072  0.00  0.00    +0.000 NA
ATOM      6  C   UNL     1      46.470   3.677   7.412  0.00  0.00    +0.000 A 
ENDROOT
BRANCH   1   7
ATOM      7  C   UNL     1      47.744   1.580   6.855  0.00  0.00    +0.000 C 
BRANCH   7   8
ATOM      8  N   UNL     1      48.710   2.497   6.263  0.00  0.00    +0.000 NA
ATOM      9  H   UNL     1      48.523   3.440   6.601  0.00  0.00    +0.000 HD
ATOM     10  H   UNL     1      48.572   2.523   5.253  0.00  0.00    +0.000 HD
ENDBRANCH   7   8
ENDBRANCH   1   7
BRANCH   4  11
ATOM     11  O   UNL     1      43.799   4.462   9.649  0.00  0.00    +0.000 OA
BRANCH  11  12
ATOM     12  C   UNL     1      43.679   3.968  10.986  0.00  0.00    +0.000 C 
BRANCH  12  13
ATOM     13  C   UNL     1      44.744   4.554  11.887  0.00  0.00    +0.000 A 
ATOM     14  C   UNL     1      45.524   3.697  12.683  0.00  0.00    +0.000 A 
ATOM     15  C   UNL     1      46.574   4.200  13.453  0.00  0.00    +0.000 A 
ATOM     16  C   UNL     1      46.852   5.560  13.423  0.00  0.00    +0.000 A 
ATOM     17  F   UNL     1      47.868   6.042  14.151  0.00  0.00    +0.000 F 
ATOM     18  C   UNL     1      46.099   6.427  12.638  0.00  0.00    +0.000 A 
ATOM     19  C   UNL     1      45.049   5.925  11.867  0.00  0.00    +0.000 A 
ENDBRANCH  12  13
ENDBRANCH  11  12
ENDBRANCH   4  11
TORSDOF 5
ENDMDL
MODEL 2
REMARK VINA RESULT:    -7.212      3.196      5.995
REMARK INTER + INTRA:          -9.625
REMARK INTER:                  -9.172
REMARK INTRA:                  -0.453
REMARK UNBOUND:                -0.516
REMARK  Name = 
REMARK  5 active torsions:
REMARK  status: ('A' for Active; 'I' for Inactive)
REMARK    1  A    between atoms: N_1  and  C_2
REMARK    2  A    between atoms: C_2  and  C_3
REMARK    3  A    between atoms: C_6  and  O_7
REMARK    4  A    between atoms: O_7  and  C_8
REMARK    5  A    between atoms: C_8  and  C_9
REMARK                            x       y       z     vdW  Elec       q    Type
REMARK                         _______ _______ _______ _____ _____    ______ ____
ROOT
ATOM      1  C   UNL     1      46.574   5.547  12.840  0.00  0.00    +0.000 A 
ATOM      2  C   UNL     1      46.414   6.272  11.655  0.00  0.00    +0.000 A 
ATOM      3  C   UNL     1      45.579   5.788  10.649  0.00  0.00    +0.000 A 
ATOM      4  C   UNL     1      44.949   4.576  10.854  0.00  0.00    +0.000 A 
ATOM      5  N   UNL     1      45.062   3.854  11.990  0.00  0.00    +0.000 NA
ATOM      6  C   UNL     1      45.865   4.356  12.952  0.00  0.00    +0.000 A 
ENDROOT
BRANCH   1   7
ATOM      7  C   UNL     1      47.502   5.995  13.933  0.00  0.00    +0.000 C 
BRANCH   7   8
ATOM      8  N   UNL     1      47.490   5.082  15.069  0.00  0.00    +0.000 NA
ATOM      9  H   UNL     1      46.768   5.375  15.723  0.00  0.00    +0.000 HD
ATOM     10  H   UNL     1      48.376   5.159  15.569  0.00  0.00    +0.000 HD
ENDBRANCH   7   8
ENDBRANCH   1   7
BRANCH   4  11
ATOM     11  O   UNL     1      44.147   4.099   9.832  0.00  0.00    +0.000 OA
BRANCH  11  12
ATOM     12  C   UNL     1      44.422   2.722   9.560  0.00  0.00    +0.000 C 
BRANCH  12  13
ATOM     13  C   UNL     1      45.470   2.572   8.479  0.00  0.00    +0.000 A 
ATOM     14  C   UNL     1      46.114   1.333   8.307  0.00  0.00    +0.000 A 
ATOM     15  C   UNL     1      47.016   1.141   7.259  0.00  0.00    +0.000 A 
ATOM     16  C   UNL     1      47.270   2.182   6.377  0.00  0.00    +0.000 A 
ATOM     17  F   UNL     1      48.126   1.993   5.364  0.00  0.00    +0.000 F 
ATOM     18  C   UNL     1      46.641   3.414   6.523  0.00  0.00    +0.000 A 
ATOM     19  C   UNL     1      45.738   3.608   7.569  0.00  0.00    +0.000 A 
ENDBRANCH  12  13
ENDBRANCH  11  12
ENDBRANCH   4  11
TORSDOF 5
ENDMDL
MODEL 3
REMARK VINA RESULT:    -7.045      3.165      6.092
REMARK INTER + INTRA:          -9.415
REMARK INTER:                  -8.955
REMARK INTRA:                  -0.460
REMARK UNBOUND:                -0.516
REMARK  Name = 
REMARK  5 active torsions:
REMARK  status: ('A' for Active; 'I' for Inactive)
REMARK    1  A    between atoms: N_1  and  C_2
REMARK    2  A    between atoms: C_2  and  C_3
REMARK    3  A    between atoms: C_6  and  O_7
REMARK    4  A    between atoms: O_7  and  C_8
REMARK    5  A    between atoms: C_8  and  C_9
REMARK                            x       y       z     vdW  Elec       q    Type
REMARK                         _______ _______ _______ _____ _____    ______ ____
ROOT
ATOM      1  C   UNL     1      46.485   5.554  12.967  0.00  0.00    +0.000 A 
ATOM      2  C   UNL     1      46.454   6.253  11.756  0.00  0.00    +0.000 A 
ATOM      3  C   UNL     1      45.657   5.796  10.707  0.00  0.00    +0.000 A 
ATOM      4  C   UNL     1      44.935   4.634  10.897  0.00  0.00    +0.000 A 
ATOM      5  N   UNL     1      44.923   3.939  12.055  0.00  0.00    +0.000 NA
ATOM      6  C   UNL     1      45.691   4.415  13.058  0.00  0.00    +0.000 A 
ENDROOT
BRANCH   1   7
ATOM      7  C   UNL     1      47.365   5.971  14.109  0.00  0.00    +0.000 C 
BRANCH   7   8
ATOM      8  N   UNL     1      47.697   4.852  14.981  0.00  0.00    +0.000 NA
ATOM      9  H   UNL     1      48.000   5.213  15.884  0.00  0.00    +0.000 HD
ATOM     10  H   UNL     1      48.495   4.350  14.593  0.00  0.00    +0.000 HD
ENDBRANCH   7   8
ENDBRANCH   1   7
BRANCH   4  11
ATOM     11  O   UNL     1      44.173   4.181   9.834  0.00  0.00    +0.000 OA
BRANCH  11  12
ATOM     12  C   UNL     1      44.381   2.784   9.609  0.00  0.00    +0.000 C 
BRANCH  12  13
ATOM     13  C   UNL     1      45.347   2.547   8.468  0.00  0.00    +0.000 A 
ATOM     14  C   UNL     1      45.630   3.594   7.573  0.00  0.00    +0.000 A 
ATOM     15  C   UNL     1      46.586   3.432   6.569  0.00  0.00    +0.000 A 
ATOM     16  C   UNL     1      47.267   2.227   6.462  0.00  0.00    +0.000 A 
ATOM     17  F   UNL     1      48.194   2.077   5.507  0.00  0.00    +0.000 F 
ATOM     18  C   UNL     1      47.009   1.179   7.340  0.00  0.00    +0.000 A 
ATOM     19  C   UNL     1      46.055   1.340   8.345  0.00  0.00    +0.000 A 
ENDBRANCH  12  13
ENDBRANCH  11  12
ENDBRANCH   4  11
TORSDOF 5
ENDMDL
MODEL 4
REMARK VINA RESULT:    -5.904      3.337      6.143
REMARK INTER + INTRA:          -7.972
REMARK INTER:                  -7.583
REMARK INTRA:                  -0.390
REMARK UNBOUND:                -0.516
REMARK  Name = 
REMARK  5 active torsions:
REMARK  status: ('A' for Active; 'I' for Inactive)
REMARK    1  A    between atoms: N_1  and  C_2
REMARK    2  A    between atoms: C_2  and  C_3
REMARK    3  A    between atoms: C_6  and  O_7
REMARK    4  A    between atoms: O_7  and  C_8
REMARK    5  A    between atoms: C_8  and  C_9
REMARK                            x       y       z     vdW  Elec       q    Type
REMARK                         _______ _______ _______ _____ _____    ______ ____
ROOT
ATOM      1  C   UNL     1      47.540   6.281  13.620  0.00  0.00    +0.000 A 
ATOM      2  C   UNL     1      46.696   5.167  13.676  0.00  0.00    +0.000 A 
ATOM      3  C   UNL     1      45.764   4.949  12.662  0.00  0.00    +0.000 A 
ATOM      4  C   UNL     1      45.689   5.871  11.636  0.00  0.00    +0.000 A 
ATOM      5  N   UNL     1      46.497   6.949  11.536  0.00  0.00    +0.000 NA
ATOM      6  C   UNL     1      47.401   7.125  12.524  0.00  0.00    +0.000 A 
ENDROOT
BRANCH   1   7
ATOM      7  C   UNL     1      48.525   6.593  14.711  0.00  0.00    +0.000 C 
BRANCH   7   8
ATOM      8  N   UNL     1      48.047   7.651  15.593  0.00  0.00    +0.000 NA
ATOM      9  H   UNL     1      47.658   7.231  16.435  0.00  0.00    +0.000 HD
ATOM     10  H   UNL     1      47.279   8.144  15.139  0.00  0.00    +0.000 HD
ENDBRANCH   7   8
ENDBRANCH   1   7
BRANCH   4  11
ATOM     11  O   UNL     1      44.737   5.652  10.656  0.00  0.00    +0.000 OA
BRANCH  11  12
ATOM     12  C   UNL     1      44.378   4.269  10.587  0.00  0.00    +0.000 C 
BRANCH  12  13
ATOM     13  C   UNL     1      45.052   3.583   9.419  0.00  0.00    +0.000 A 
ATOM     14  C   UNL     1      45.672   4.359   8.424  0.00  0.00    +0.000 A 
ATOM     15  C   UNL     1      46.381   3.751   7.387  0.00  0.00    +0.000 A 
ATOM     16  C   UNL     1      46.478   2.367   7.345  0.00  0.00    +0.000 A 
ATOM     17  F   UNL     1      47.169   1.784   6.357  0.00  0.00    +0.000 F 
ATOM     18  C   UNL     1      45.878   1.578   8.321  0.00  0.00    +0.000 A 
ATOM     19  C   UNL     1      45.171   2.184   9.360  0.00  0.00    +0.000 A 
ENDBRANCH  12  13
ENDBRANCH  11  12
ENDBRANCH   4  11
TORSDOF 5
ENDMDL
MODEL 5
REMARK VINA RESULT:    -5.617      5.294      7.984
REMARK INTER + INTRA:          -7.611
REMARK INTER:                  -7.318
REMARK INTRA:                  -0.292
REMARK UNBOUND:                -0.516
REMARK  Name = 
REMARK  5 active torsions:
REMARK  status: ('A' for Active; 'I' for Inactive)
REMARK    1  A    between atoms: N_1  and  C_2
REMARK    2  A    between atoms: C_2  and  C_3
REMARK    3  A    between atoms: C_6  and  O_7
REMARK    4  A    between atoms: O_7  and  C_8
REMARK    5  A    between atoms: C_8  and  C_9
REMARK                            x       y       z     vdW  Elec       q    Type
REMARK                         _______ _______ _______ _____ _____    ______ ____
ROOT
ATOM      1  C   UNL     1      48.664   4.403  18.444  0.00  0.00    +0.000 A 
ATOM      2  C   UNL     1      47.995   3.203  18.181  0.00  0.00    +0.000 A 
ATOM      3  C   UNL     1      47.440   2.976  16.923  0.00  0.00    +0.000 A 
ATOM      4  C   UNL     1      47.551   3.974  15.973  0.00  0.00    +0.000 A 
ATOM      5  N   UNL     1      48.204   5.138  16.180  0.00  0.00    +0.000 NA
ATOM      6  C   UNL     1      48.745   5.321  17.404  0.00  0.00    +0.000 A 
ENDROOT
BRANCH   1   7
ATOM      7  C   UNL     1      49.233   4.721  19.798  0.00  0.00    +0.000 C 
BRANCH   7   8
ATOM      8  N   UNL     1      48.578   3.966  20.858  0.00  0.00    +0.000 NA
ATOM      9  H   UNL     1      47.683   4.402  21.072  0.00  0.00    +0.000 HD
ATOM     10  H   UNL     1      49.137   4.029  21.708  0.00  0.00    +0.000 HD
ENDBRANCH   7   8
ENDBRANCH   1   7
BRANCH   4  11
ATOM     11  O   UNL     1      46.969   3.741  14.739  0.00  0.00    +0.000 OA
BRANCH  11  12
ATOM     12  C   UNL     1      46.814   4.958  14.004  0.00  0.00    +0.000 C 
BRANCH  12  13
ATOM     13  C   UNL     1      45.979   4.747  12.760  0.00  0.00    +0.000 A 
ATOM     14  C   UNL     1      45.962   5.737  11.762  0.00  0.00    +0.000 A 
ATOM     15  C   UNL     1      45.276   5.529  10.565  0.00  0.00    +0.000 A 
ATOM     16  C   UNL     1      44.612   4.327  10.358  0.00  0.00    +0.000 A 
ATOM     17  F   UNL     1      43.965   4.122   9.203  0.00  0.00    +0.000 F 
ATOM     18  C   UNL     1      44.620   3.330  11.327  0.00  0.00    +0.000 A 
ATOM     19  C   UNL     1      45.307   3.536  12.524  0.00  0.00    +0.000 A 
ENDBRANCH  12  13
ENDBRANCH  11  12
ENDBRANCH   4  11
TORSDOF 5
ENDMDL
MODEL 6
REMARK VINA RESULT:    -5.580      4.369      6.378
REMARK INTER + INTRA:          -7.564
REMARK INTER:                  -7.179
REMARK INTRA:                  -0.385
REMARK UNBOUND:                -0.516
REMARK  Name = 
REMARK  5 active torsions:
REMARK  status: ('A' for Active; 'I' for Inactive)
REMARK    1  A    between atoms: N_1  and  C_2
REMARK    2  A    between atoms: C_2  and  C_3
REMARK    3  A    between atoms: C_6  and  O_7
REMARK    4  A    between atoms: O_7  and  C_8
REMARK    5  A    between atoms: C_8  and  C_9
REMARK                            x       y       z     vdW  Elec       q    Type
REMARK                         _______ _______ _______ _____ _____    ______ ____
ROOT
ATOM      1  C   UNL     1      45.512   5.440  12.041  0.00  0.00    +0.000 A 
ATOM      2  C   UNL     1      46.423   6.005  12.939  0.00  0.00    +0.000 A 
ATOM      3  C   UNL     1      47.093   5.194  13.854  0.00  0.00    +0.000 A 
ATOM      4  C   UNL     1      46.808   3.842  13.857  0.00  0.00    +0.000 A 
ATOM      5  N   UNL     1      45.949   3.255  12.996  0.00  0.00    +0.000 NA
ATOM      6  C   UNL     1      45.328   4.064  12.110  0.00  0.00    +0.000 A 
ENDROOT
BRANCH   1   7
ATOM      7  C   UNL     1      44.724   6.273  11.071  0.00  0.00    +0.000 C 
BRANCH   7   8
ATOM      8  N   UNL     1      43.356   5.794  10.924  0.00  0.00    +0.000 NA
ATOM      9  H   UNL     1      42.720   6.589  10.960  0.00  0.00    +0.000 HD
ATOM     10  H   UNL     1      43.120   5.204  11.722  0.00  0.00    +0.000 HD
ENDBRANCH   7   8
ENDBRANCH   1   7
BRANCH   4  11
ATOM     11  O   UNL     1      47.462   3.059  14.793  0.00  0.00    +0.000 OA
BRANCH  11  12
ATOM     12  C   UNL     1      47.523   3.716  16.062  0.00  0.00    +0.000 C 
BRANCH  12  13
ATOM     13  C   UNL     1      48.849   3.466  16.747  0.00  0.00    +0.000 A 
ATOM     14  C   UNL     1      49.425   2.184  16.693  0.00  0.00    +0.000 A 
ATOM     15  C   UNL     1      50.689   1.949  17.236  0.00  0.00    +0.000 A 
ATOM     16  C   UNL     1      51.385   2.996  17.826  0.00  0.00    +0.000 A 
ATOM     17  F   UNL     1      52.604   2.774  18.335  0.00  0.00    +0.000 F 
ATOM     18  C   UNL     1      50.839   4.274  17.885  0.00  0.00    +0.000 A 
ATOM     19  C   UNL     1      49.576   4.511  17.342  0.00  0.00    +0.000 A 
ENDBRANCH  12  13
ENDBRANCH  11  12
ENDBRANCH   4  11
TORSDOF 5
ENDMDL
MODEL 7
REMARK VINA RESULT:    -5.261      3.620      5.074
REMARK INTER + INTRA:          -7.161
REMARK INTER:                  -6.882
REMARK INTRA:                  -0.279
REMARK UNBOUND:                -0.516
REMARK  Name = 
REMARK  5 active torsions:
REMARK  status: ('A' for Active; 'I' for Inactive)
REMARK    1  A    between atoms: N_1  and  C_2
REMARK    2  A    between atoms: C_2  and  C_3
REMARK    3  A    between atoms: C_6  and  O_7
REMARK    4  A    between atoms: O_7  and  C_8
REMARK    5  A    between atoms: C_8  and  C_9
REMARK                            x       y       z     vdW  Elec       q    Type
REMARK                         _______ _______ _______ _____ _____    ______ ____
ROOT
ATOM      1  C   UNL     1      44.899   4.343  10.443  0.00  0.00    +0.000 A 
ATOM      2  C   UNL     1      45.537   5.479  10.953  0.00  0.00    +0.000 A 
ATOM      3  C   UNL     1      45.945   5.509  12.285  0.00  0.00    +0.000 A 
ATOM      4  C   UNL     1      45.677   4.406  13.074  0.00  0.00    +0.000 A 
ATOM      5  N   UNL     1      45.081   3.284  12.616  0.00  0.00    +0.000 NA
ATOM      6  C   UNL     1      44.712   3.278  11.317  0.00  0.00    +0.000 A 
ENDROOT
BRANCH   1   7
ATOM      7  C   UNL     1      44.391   4.277   9.031  0.00  0.00    +0.000 C 
BRANCH   7   8
ATOM      8  N   UNL     1      44.366   2.912   8.522  0.00  0.00    +0.000 NA
ATOM      9  H   UNL     1      43.428   2.532   8.636  0.00  0.00    +0.000 HD
ATOM     10  H   UNL     1      44.980   2.331   9.091  0.00  0.00    +0.000 HD
ENDBRANCH   7   8
ENDBRANCH   1   7
BRANCH   4  11
ATOM     11  O   UNL     1      46.064   4.468  14.401  0.00  0.00    +0.000 OA
BRANCH  11  12
ATOM     12  C   UNL     1      47.189   3.621  14.650  0.00  0.00    +0.000 C 
BRANCH  12  13
ATOM     13  C   UNL     1      47.628   3.699  16.096  0.00  0.00    +0.000 A 
ATOM     14  C   UNL     1      48.523   2.739  16.601  0.00  0.00    +0.000 A 
ATOM     15  C   UNL     1      49.016   2.840  17.902  0.00  0.00    +0.000 A 
ATOM     16  C   UNL     1      48.623   3.907  18.700  0.00  0.00    +0.000 A 
ATOM     17  F   UNL     1      49.107   4.012  19.945  0.00  0.00    +0.000 F 
ATOM     18  C   UNL     1      47.745   4.873  18.222  0.00  0.00    +0.000 A 
ATOM     19  C   UNL     1      47.251   4.773  16.920  0.00  0.00    +0.000 A 
ENDBRANCH  12  13
ENDBRANCH  11  12
ENDBRANCH   4  11
TORSDOF 5
ENDMDL
MODEL 8
REMARK VINA RESULT:    -4.731      4.819      6.428
REMARK INTER + INTRA:          -6.491
REMARK INTER:                  -6.129
REMARK INTRA:                  -0.362
REMARK UNBOUND:                -0.516
REMARK  Name = 
REMARK  5 active torsions:
REMARK  status: ('A' for Active; 'I' for Inactive)
REMARK    1  A    between atoms: N_1  and  C_2
REMARK    2  A    between atoms: C_2  and  C_3
REMARK    3  A    between atoms: C_6  and  O_7
REMARK    4  A    between atoms: O_7  and  C_8
REMARK    5  A    between atoms: C_8  and  C_9
REMARK                            x       y       z     vdW  Elec       q    Type
REMARK                         _______ _______ _______ _____ _____    ______ ____
ROOT
ATOM      1  C   UNL     1      45.278   7.893  12.027  0.00  0.00    +0.000 A 
ATOM      2  C   UNL     1      44.889   6.549  12.032  0.00  0.00    +0.000 A 
ATOM      3  C   UNL     1      45.677   5.598  12.678  0.00  0.00    +0.000 A 
ATOM      4  C   UNL     1      46.847   6.021  13.278  0.00  0.00    +0.000 A 
ATOM      5  N   UNL     1      47.249   7.310  13.312  0.00  0.00    +0.000 NA
ATOM      6  C   UNL     1      46.457   8.211  12.692  0.00  0.00    +0.000 A 
ENDROOT
BRANCH   1   7
ATOM      7  C   UNL     1      44.495   8.950  11.302  0.00  0.00    +0.000 C 
BRANCH   7   8
ATOM      8  N   UNL     1      43.152   8.499  10.962  0.00  0.00    +0.000 NA
ATOM      9  H   UNL     1      42.666   8.229  11.816  0.00  0.00    +0.000 HD
ATOM     10  H   UNL     1      43.215   7.656  10.392  0.00  0.00    +0.000 HD
ENDBRANCH   7   8
ENDBRANCH   1   7
BRANCH   4  11
ATOM     11  O   UNL     1      47.630   5.057  13.888  0.00  0.00    +0.000 OA
BRANCH  11  12
ATOM     12  C   UNL     1      46.896   4.360  14.898  0.00  0.00    +0.000 C 
BRANCH  12  13
ATOM     13  C   UNL     1      47.667   4.302  16.199  0.00  0.00    +0.000 A 
ATOM     14  C   UNL     1      48.417   5.418  16.609  0.00  0.00    +0.000 A 
ATOM     15  C   UNL     1      49.062   5.426  17.847  0.00  0.00    +0.000 A 
ATOM     16  C   UNL     1      48.953   4.321  18.681  0.00  0.00    +0.000 A 
ATOM     17  F   UNL     1      49.561   4.334  19.875  0.00  0.00    +0.000 F 
ATOM     18  C   UNL     1      48.212   3.208  18.300  0.00  0.00    +0.000 A 
ATOM     19  C   UNL     1      47.565   3.199  17.063  0.00  0.00    +0.000 A 
ENDBRANCH  12  13
ENDBRANCH  11  12
ENDBRANCH   4  11
TORSDOF 5
ENDMDL
