MODEL 1
REMARK VINA RESULT:    -8.679      0.000      0.000
REMARK INTER + INTRA:         -11.956
REMARK INTER:                 -11.215
REMARK INTRA:                  -0.741
REMARK UNBOUND:                -0.741
REMARK  Name = 
REMARK  5 active torsions:
REMARK  status: ('A' for Active; 'I' for Inactive)
REMARK    1  A    between atoms: C_2  and  C_4
REMARK    2  A    between atoms: C_7  and  N_8
REMARK    3  A    between atoms: N_8  and  C_9
REMARK    4  A    between atoms: C_9  and  C_10
REMARK    5  A    between atoms: C_12  and  C_13
REMARK                            x       y       z     vdW  Elec       q    Type
REMARK                         _______ _______ _______ _____ _____    ______ ____
ROOT
ATOM      1  N   UNL     1      43.778   4.768  10.019  0.00  0.00    +0.000 N 
ATOM      2  H   UNL     1      42.922   5.064   9.553  0.00  0.00    +0.000 HD
ENDROOT
BRANCH   1   6
ATOM      3  C   UNL     1      46.335   2.266   7.789  0.00  0.00    +0.000 A 
ATOM      4  C   UNL     1      45.435   1.699   8.689  0.00  0.00    +0.000 A 
ATOM      5  C   UNL     1      44.553   2.514   9.408  0.00  0.00    +0.000 A 
ATOM      6  C   UNL     1      44.547   3.905   9.242  0.00  0.00    +0.000 A 
ATOM      7  C   UNL     1      45.467   4.459   8.341  0.00  0.00    +0.000 A 
ATOM      8  C   UNL     1      46.360   3.653   7.624  0.00  0.00    +0.000 A 
BRANCH   3  10
ATOM      9  N   UNL     1      48.436   2.056   6.583  0.00  0.00    +0.000 N 
ATOM     10  C   UNL     1      47.305   1.433   7.038  0.00  0.00    +0.000 C 
ATOM     11  O   UNL     1      47.119   0.240   6.844  0.00  0.00    +0.000 OA
ATOM     12  H   UNL     1      49.138   1.459   6.156  0.00  0.00    +0.000 HD
ATOM     13  H   UNL     1      48.734   2.959   6.924  0.00  0.00    +0.000 HD
ENDBRANCH   3  10
ENDBRANCH   1   6
BRANCH   1  14
ATOM     14  C   UNL     1      43.595   4.554  11.452  0.00  0.00    +0.000 C 
BRANCH  14  15
ATOM     15  C   UNL     1      44.835   4.955  12.226  0.00  0.00    +0.000 A 
ATOM     16  C   UNL     1      45.514   6.129  11.883  0.00  0.00    +0.000 A 
ATOM     17  C   UNL     1      46.691   6.490  12.549  0.00  0.00    +0.000 A 
ATOM     18  C   UNL     1      47.137   5.613  13.547  0.00  0.00    +0.000 A 
ATOM     19  C   UNL     1      46.417   4.461  13.822  0.00  0.00    +0.000 A 
ATOM     20  N   UNL     1      45.279   4.114  13.190  0.00  0.00    +0.000 NA
BRANCH  17  21
ATOM     21  C   UNL     1      47.423   7.734  12.216  0.00  0.00    +0.000 A 
ATOM     22  C   UNL     1      46.809   8.992  12.304  0.00  0.00    +0.000 A 
ATOM     23  C   UNL     1      47.531  10.134  11.984  0.00  0.00    +0.000 A 
ATOM     24  N   UNL     1      48.820  10.118  11.590  0.00  0.00    +0.000 NA
ATOM     25  C   UNL     1      49.406   8.908  11.509  0.00  0.00    +0.000 A 
ATOM     26  C   UNL     1      48.763   7.714  11.800  0.00  0.00    +0.000 A 
ENDBRANCH  17  21
ENDBRANCH  14  15
ENDBRANCH   1  14
TORSDOF 5
ENDMDL
MODEL 2
REMARK VINA RESULT:    -8.263      1.900      3.542
REMARK INTER + INTRA:         -11.420
REMARK INTER:                 -10.870
REMARK INTRA:                  -0.550
REMARK UNBOUND:                -0.741
REMARK  Name = 
REMARK  5 active torsions:
REMARK  status: ('A' for Active; 'I' for Inactive)
REMARK    1  A    between atoms: C_2  and  C_4
REMARK    2  A    between atoms: C_7  and  N_8
REMARK    3  A    between atoms: N_8  and  C_9
REMARK    4  A    between atoms: C_9  and  C_10
REMARK    5  A    between atoms: C_12  and  C_13
REMARK                            x       y       z     vdW  Elec       q    Type
REMARK                         _______ _______ _______ _____ _____    ______ ____
ROOT
ATOM      1  N   UNL     1      43.875   4.870  10.080  0.00  0.00    +0.000 N 
ATOM      2  H   UNL     1      42.932   5.015   9.723  0.00  0.00    +0.000 HD
ENDROOT
BRANCH   1   6
ATOM      3  C   UNL     1      46.366   2.321   7.829  0.00  0.00    +0.000 A 
ATOM      4  C   UNL     1      45.486   1.773   8.761  0.00  0.00    +0.000 A 
ATOM      5  C   UNL     1      44.626   2.604   9.488  0.00  0.00    +0.000 A 
ATOM      6  C   UNL     1      44.621   3.991   9.299  0.00  0.00    +0.000 A 
ATOM      7  C   UNL     1      45.519   4.527   8.365  0.00  0.00    +0.000 A 
ATOM      8  C   UNL     1      46.391   3.704   7.639  0.00  0.00    +0.000 A 
BRANCH   3  10
ATOM      9  N   UNL     1      48.396   2.096   6.510  0.00  0.00    +0.000 N 
ATOM     10  C   UNL     1      47.313   1.471   7.068  0.00  0.00    +0.000 C 
ATOM     11  O   UNL     1      47.151   0.264   6.953  0.00  0.00    +0.000 OA
ATOM     12  H   UNL     1      49.089   1.493   6.075  0.00  0.00    +0.000 HD
ATOM     13  H   UNL     1      48.687   3.025   6.781  0.00  0.00    +0.000 HD
ENDBRANCH   3  10
ENDBRANCH   1   6
BRANCH   1  14
ATOM     14  C   UNL     1      43.926   4.833  11.539  0.00  0.00    +0.000 C 
BRANCH  14  15
ATOM     15  C   UNL     1      45.239   5.387  12.054  0.00  0.00    +0.000 A 
ATOM     16  C   UNL     1      45.758   4.919  13.266  0.00  0.00    +0.000 A 
ATOM     17  C   UNL     1      46.942   5.455  13.787  0.00  0.00    +0.000 A 
ATOM     18  C   UNL     1      47.548   6.473  13.039  0.00  0.00    +0.000 A 
ATOM     19  C   UNL     1      46.967   6.894  11.852  0.00  0.00    +0.000 A 
ATOM     20  N   UNL     1      45.833   6.374  11.342  0.00  0.00    +0.000 NA
BRANCH  17  21
ATOM     21  C   UNL     1      47.521   4.969  15.061  0.00  0.00    +0.000 A 
ATOM     22  C   UNL     1      47.342   3.645  15.490  0.00  0.00    +0.000 A 
ATOM     23  C   UNL     1      47.903   3.230  16.690  0.00  0.00    +0.000 A 
ATOM     24  N   UNL     1      48.634   4.031  17.491  0.00  0.00    +0.000 NA
ATOM     25  C   UNL     1      48.805   5.299  17.074  0.00  0.00    +0.000 A 
ATOM     26  C   UNL     1      48.276   5.806  15.896  0.00  0.00    +0.000 A 
ENDBRANCH  17  21
ENDBRANCH  14  15
ENDBRANCH   1  14
TORSDOF 5
ENDMDL
MODEL 3
REMARK VINA RESULT:    -7.664      1.757      2.366
REMARK INTER + INTRA:         -10.645
REMARK INTER:                 -10.079
REMARK INTRA:                  -0.566
REMARK UNBOUND:                -0.741
REMARK  Name = 
REMARK  5 active torsions:
REMARK  status: ('A' for Active; 'I' for Inactive)
REMARK    1  A    between atoms: C_2  and  C_4
REMARK    2  A    between atoms: C_7  and  N_8
REMARK    3  A    between atoms: N_8  and  C_9
REMARK    4  A    between atoms: C_9  and  C_10
REMARK    5  A    between atoms: C_12  and  C_13
REMARK                            x       y       z     vdW  Elec       q    Type
REMARK                         _______ _______ _______ _____ _____    ______ ____
ROOT
ATOM      1  N   UNL     1      43.788   3.897  10.640  0.00  0.00    +0.000 N 
ATOM      2  H   UNL     1      42.869   3.458  10.655  0.00  0.00    +0.000 HD
ENDROOT
BRANCH   1   6
ATOM      3  C   UNL     1      46.421   2.667   7.586  0.00  0.00    +0.000 A 
ATOM      4  C   UNL     1      45.825   1.710   8.405  0.00  0.00    +0.000 A 
ATOM      5  C   UNL     1      44.920   2.100   9.398  0.00  0.00    +0.000 A 
ATOM      6  C   UNL     1      44.586   3.447   9.592  0.00  0.00    +0.000 A 
ATOM      7  C   UNL     1      45.202   4.397   8.766  0.00  0.00    +0.000 A 
ATOM      8  C   UNL     1      46.117   4.017   7.775  0.00  0.00    +0.000 A 
BRANCH   3  10
ATOM      9  N   UNL     1      47.305   2.914   5.334  0.00  0.00    +0.000 N 
ATOM     10  C   UNL     1      47.410   2.289   6.548  0.00  0.00    +0.000 C 
ATOM     11  O   UNL     1      48.292   1.470   6.763  0.00  0.00    +0.000 OA
ATOM     12  H   UNL     1      48.044   2.722   4.664  0.00  0.00    +0.000 HD
ATOM     13  H   UNL     1      46.757   3.752   5.200  0.00  0.00    +0.000 HD
ENDBRANCH   3  10
ENDBRANCH   1   6
BRANCH   1  14
ATOM     14  C   UNL     1      44.330   4.117  11.978  0.00  0.00    +0.000 C 
BRANCH  14  15
ATOM     15  C   UNL     1      44.968   5.488  12.090  0.00  0.00    +0.000 A 
ATOM     16  C   UNL     1      46.177   5.633  12.780  0.00  0.00    +0.000 A 
ATOM     17  C   UNL     1      46.756   6.897  12.942  0.00  0.00    +0.000 A 
ATOM     18  C   UNL     1      46.055   7.979  12.392  0.00  0.00    +0.000 A 
ATOM     19  C   UNL     1      44.855   7.758  11.734  0.00  0.00    +0.000 A 
ATOM     20  N   UNL     1      44.299   6.542  11.567  0.00  0.00    +0.000 NA
BRANCH  17  21
ATOM     21  C   UNL     1      48.041   7.077  13.655  0.00  0.00    +0.000 A 
ATOM     22  C   UNL     1      49.102   7.798  13.085  0.00  0.00    +0.000 A 
ATOM     23  C   UNL     1      50.290   7.944  13.788  0.00  0.00    +0.000 A 
ATOM     24  N   UNL     1      50.499   7.434  15.019  0.00  0.00    +0.000 NA
ATOM     25  C   UNL     1      49.478   6.745  15.562  0.00  0.00    +0.000 A 
ATOM     26  C   UNL     1      48.259   6.540  14.932  0.00  0.00    +0.000 A 
ENDBRANCH  17  21
ENDBRANCH  14  15
ENDBRANCH   1  14
TORSDOF 5
ENDMDL
MODEL 4
REMARK VINA RESULT:    -7.632      2.700      6.676
REMARK INTER + INTRA:         -10.604
REMARK INTER:                  -9.905
REMARK INTRA:                  -0.699
REMARK UNBOUND:                -0.741
REMARK  Name = 
REMARK  5 active torsions:
REMARK  status: ('A' for Active; 'I' for Inactive)
REMARK    1  A    between atoms: C_2  and  C_4
REMARK    2  A    between atoms: C_7  and  N_8
REMARK    3  A    between atoms: N_8  and  C_9
REMARK    4  A    between atoms: C_9  and  C_10
REMARK    5  A    between atoms: C_12  and  C_13
REMARK                            x       y       z     vdW  Elec       q    Type
REMARK                         _______ _______ _______ _____ _____    ______ ____
ROOT
ATOM      1  N   UNL     1      43.673   6.294  12.469  0.00  0.00    +0.000 N 
ATOM      2  H   UNL     1      43.028   6.933  12.931  0.00  0.00    +0.000 HD
ENDROOT
BRANCH   1   6
ATOM      3  C   UNL     1      47.778   6.856  13.245  0.00  0.00    +0.000 A 
ATOM      4  C   UNL     1      47.020   7.920  12.760  0.00  0.00    +0.000 A 
ATOM      5  C   UNL     1      45.648   7.760  12.534  0.00  0.00    +0.000 A 
ATOM      6  C   UNL     1      45.005   6.542  12.790  0.00  0.00    +0.000 A 
ATOM      7  C   UNL     1      45.785   5.480  13.268  0.00  0.00    +0.000 A 
ATOM      8  C   UNL     1      47.160   5.628  13.489  0.00  0.00    +0.000 A 
BRANCH   3  10
ATOM      9  N   UNL     1      50.022   7.126  12.349  0.00  0.00    +0.000 N 
ATOM     10  C   UNL     1      49.239   6.984  13.463  0.00  0.00    +0.000 C 
ATOM     11  O   UNL     1      49.729   6.980  14.584  0.00  0.00    +0.000 OA
ATOM     12  H   UNL     1      51.008   7.310  12.512  0.00  0.00    +0.000 HD
ATOM     13  H   UNL     1      49.643   7.372  11.445  0.00  0.00    +0.000 HD
ENDBRANCH   3  10
ENDBRANCH   1   6
BRANCH   1  14
ATOM     14  C   UNL     1      43.260   5.965  11.108  0.00  0.00    +0.000 C 
BRANCH  14  15
ATOM     15  C   UNL     1      43.636   4.540  10.753  0.00  0.00    +0.000 A 
ATOM     16  C   UNL     1      44.510   4.301   9.687  0.00  0.00    +0.000 A 
ATOM     17  C   UNL     1      44.828   2.991   9.309  0.00  0.00    +0.000 A 
ATOM     18  C   UNL     1      44.218   1.965  10.041  0.00  0.00    +0.000 A 
ATOM     19  C   UNL     1      43.351   2.279  11.076  0.00  0.00    +0.000 A 
ATOM     20  N   UNL     1      43.049   3.538  11.450  0.00  0.00    +0.000 NA
BRANCH  17  21
ATOM     21  C   UNL     1      45.762   2.710   8.194  0.00  0.00    +0.000 A 
ATOM     22  C   UNL     1      46.386   1.461   8.057  0.00  0.00    +0.000 A 
ATOM     23  C   UNL     1      47.254   1.239   6.996  0.00  0.00    +0.000 A 
ATOM     24  N   UNL     1      47.541   2.163   6.058  0.00  0.00    +0.000 NA
ATOM     25  C   UNL     1      46.938   3.359   6.192  0.00  0.00    +0.000 A 
ATOM     26  C   UNL     1      46.064   3.676   7.222  0.00  0.00    +0.000 A 
ENDBRANCH  17  21
ENDBRANCH  14  15
ENDBRANCH   1  14
TORSDOF 5
ENDMDL
MODEL 5
REMARK VINA RESULT:    -7.088      2.649      6.913
REMARK INTER + INTRA:          -9.901
REMARK INTER:                  -9.274
REMARK INTRA:                  -0.627
REMARK UNBOUND:                -0.741
REMARK  Name = 
REMARK  5 active torsions:
REMARK  status: ('A' for Active; 'I' for Inactive)
REMARK    1  A    between atoms: C_2  and  C_4
REMARK    2  A    between atoms: C_7  and  N_8
REMARK    3  A    between atoms: N_8  and  C_9
REMARK    4  A    between atoms: C_9  and  C_10
REMARK    5  A    between atoms: C_12  and  C_13
REMARK                            x       y       z     vdW  Elec       q    Type
REMARK                         _______ _______ _______ _____ _____    ______ ____
ROOT
ATOM      1  N   UNL     1      45.235   6.815  12.631  0.00  0.00    +0.000 N 
ATOM      2  H   UNL     1      44.685   7.222  13.386  0.00  0.00    +0.000 HD
ENDROOT
BRANCH   1   6
ATOM      3  C   UNL     1      49.276   7.990  12.387  0.00  0.00    +0.000 A 
ATOM      4  C   UNL     1      48.278   8.875  11.982  0.00  0.00    +0.000 A 
ATOM      5  C   UNL     1      46.931   8.514  12.093  0.00  0.00    +0.000 A 
ATOM      6  C   UNL     1      46.551   7.270  12.613  0.00  0.00    +0.000 A 
ATOM      7  C   UNL     1      47.567   6.388  13.006  0.00  0.00    +0.000 A 
ATOM      8  C   UNL     1      48.919   6.737  12.890  0.00  0.00    +0.000 A 
BRANCH   3  10
ATOM      9  N   UNL     1      51.558   7.852  13.217  0.00  0.00    +0.000 N 
ATOM     10  C   UNL     1      50.713   8.330  12.251  0.00  0.00    +0.000 C 
ATOM     11  O   UNL     1      51.135   8.992  11.313  0.00  0.00    +0.000 OA
ATOM     12  H   UNL     1      52.550   8.007  13.063  0.00  0.00    +0.000 HD
ATOM     13  H   UNL     1      51.292   7.118  13.857  0.00  0.00    +0.000 HD
ENDBRANCH   3  10
ENDBRANCH   1   6
BRANCH   1  14
ATOM     14  C   UNL     1      44.465   6.643  11.402  0.00  0.00    +0.000 C 
BRANCH  14  15
ATOM     15  C   UNL     1      44.360   5.179  11.024  0.00  0.00    +0.000 A 
ATOM     16  C   UNL     1      45.119   4.685   9.957  0.00  0.00    +0.000 A 
ATOM     17  C   UNL     1      44.998   3.349   9.557  0.00  0.00    +0.000 A 
ATOM     18  C   UNL     1      44.081   2.565  10.269  0.00  0.00    +0.000 A 
ATOM     19  C   UNL     1      43.353   3.129  11.306  0.00  0.00    +0.000 A 
ATOM     20  N   UNL     1      43.474   4.412  11.701  0.00  0.00    +0.000 NA
BRANCH  17  21
ATOM     21  C   UNL     1      45.800   2.797   8.441  0.00  0.00    +0.000 A 
ATOM     22  C   UNL     1      46.135   1.436   8.381  0.00  0.00    +0.000 A 
ATOM     23  C   UNL     1      46.887   0.959   7.316  0.00  0.00    +0.000 A 
ATOM     24  N   UNL     1      47.324   1.733   6.302  0.00  0.00    +0.000 NA
ATOM     25  C   UNL     1      46.998   3.037   6.363  0.00  0.00    +0.000 A 
ATOM     26  C   UNL     1      46.258   3.606   7.390  0.00  0.00    +0.000 A 
ENDBRANCH  17  21
ENDBRANCH  14  15
ENDBRANCH   1  14
TORSDOF 5
ENDMDL
MODEL 6
REMARK VINA RESULT:    -6.911      3.281      7.378
REMARK INTER + INTRA:          -9.672
REMARK INTER:                  -9.141
REMARK INTRA:                  -0.531
REMARK UNBOUND:                -0.741
REMARK  Name = 
REMARK  5 active torsions:
REMARK  status: ('A' for Active; 'I' for Inactive)
REMARK    1  A    between atoms: C_2  and  C_4
REMARK    2  A    between atoms: C_7  and  N_8
REMARK    3  A    between atoms: N_8  and  C_9
REMARK    4  A    between atoms: C_9  and  C_10
REMARK    5  A    between atoms: C_12  and  C_13
REMARK                            x       y       z     vdW  Elec       q    Type
REMARK                         _______ _______ _______ _____ _____    ______ ____
ROOT
ATOM      1  N   UNL     1      47.364   6.622  12.524  0.00  0.00    +0.000 N 
ATOM      2  H   UNL     1      47.801   6.142  11.739  0.00  0.00    +0.000 HD
ENDROOT
BRANCH   1   6
ATOM      3  C   UNL     1      47.960   4.937  16.342  0.00  0.00    +0.000 A 
ATOM      4  C   UNL     1      47.140   4.284  15.424  0.00  0.00    +0.000 A 
ATOM      5  C   UNL     1      46.963   4.811  14.140  0.00  0.00    +0.000 A 
ATOM      6  C   UNL     1      47.601   5.993  13.743  0.00  0.00    +0.000 A 
ATOM      7  C   UNL     1      48.415   6.643  14.682  0.00  0.00    +0.000 A 
ATOM      8  C   UNL     1      48.591   6.127  15.973  0.00  0.00    +0.000 A 
BRANCH   3  10
ATOM      9  N   UNL     1      47.215   4.807  18.653  0.00  0.00    +0.000 N 
ATOM     10  C   UNL     1      48.141   4.423  17.721  0.00  0.00    +0.000 C 
ATOM     11  O   UNL     1      49.064   3.675  18.016  0.00  0.00    +0.000 OA
ATOM     12  H   UNL     1      47.291   4.373  19.568  0.00  0.00    +0.000 HD
ATOM     13  H   UNL     1      46.326   5.215  18.400  0.00  0.00    +0.000 HD
ENDBRANCH   3  10
ENDBRANCH   1   6
BRANCH   1  14
ATOM     14  C   UNL     1      46.056   7.177  12.188  0.00  0.00    +0.000 C 
BRANCH  14  15
ATOM     15  C   UNL     1      45.208   6.164  11.444  0.00  0.00    +0.000 A 
ATOM     16  C   UNL     1      45.806   5.326  10.496  0.00  0.00    +0.000 A 
ATOM     17  C   UNL     1      45.032   4.422   9.760  0.00  0.00    +0.000 A 
ATOM     18  C   UNL     1      43.656   4.421  10.019  0.00  0.00    +0.000 A 
ATOM     19  C   UNL     1      43.134   5.291  10.964  0.00  0.00    +0.000 A 
ATOM     20  N   UNL     1      43.875   6.157  11.683  0.00  0.00    +0.000 NA
BRANCH  17  21
ATOM     21  C   UNL     1      45.641   3.513   8.761  0.00  0.00    +0.000 A 
ATOM     22  C   UNL     1      46.250   4.005   7.596  0.00  0.00    +0.000 A 
ATOM     23  C   UNL     1      46.810   3.119   6.686  0.00  0.00    +0.000 A 
ATOM     24  N   UNL     1      46.816   1.780   6.851  0.00  0.00    +0.000 NA
ATOM     25  C   UNL     1      46.231   1.313   7.970  0.00  0.00    +0.000 A 
ATOM     26  C   UNL     1      45.640   2.120   8.931  0.00  0.00    +0.000 A 
ENDBRANCH  17  21
ENDBRANCH  14  15
ENDBRANCH   1  14
TORSDOF 5
ENDMDL
MODEL 7
REMARK VINA RESULT:    -6.577      1.646      2.018
REMARK INTER + INTRA:          -9.241
REMARK INTER:                  -8.627
REMARK INTRA:                  -0.613
REMARK UNBOUND:                -0.741
REMARK  Name = 
REMARK  5 active torsions:
REMARK  status: ('A' for Active; 'I' for Inactive)
REMARK    1  A    between atoms: C_2  and  C_4
REMARK    2  A    between atoms: C_7  and  N_8
REMARK    3  A    between atoms: N_8  and  C_9
REMARK    4  A    between atoms: C_9  and  C_10
REMARK    5  A    between atoms: C_12  and  C_13
REMARK                            x       y       z     vdW  Elec       q    Type
REMARK                         _______ _______ _______ _____ _____    ______ ____
ROOT
ATOM      1  N   UNL     1      43.306   4.147  11.311  0.00  0.00    +0.000 N 
ATOM      2  H   UNL     1      42.342   3.825  11.255  0.00  0.00    +0.000 HD
ENDROOT
BRANCH   1   6
ATOM      3  C   UNL     1      45.881   2.975   8.186  0.00  0.00    +0.000 A 
ATOM      4  C   UNL     1      45.302   2.002   8.998  0.00  0.00    +0.000 A 
ATOM      5  C   UNL     1      44.415   2.374  10.015  0.00  0.00    +0.000 A 
ATOM      6  C   UNL     1      44.085   3.716  10.240  0.00  0.00    +0.000 A 
ATOM      7  C   UNL     1      44.685   4.683   9.420  0.00  0.00    +0.000 A 
ATOM      8  C   UNL     1      45.581   4.321   8.406  0.00  0.00    +0.000 A 
BRANCH   3  10
ATOM      9  N   UNL     1      46.418   1.751   6.155  0.00  0.00    +0.000 N 
ATOM     10  C   UNL     1      46.851   2.617   7.122  0.00  0.00    +0.000 C 
ATOM     11  O   UNL     1      47.982   3.083   7.095  0.00  0.00    +0.000 OA
ATOM     12  H   UNL     1      47.054   1.588   5.379  0.00  0.00    +0.000 HD
ATOM     13  H   UNL     1      45.441   1.540   6.010  0.00  0.00    +0.000 HD
ENDBRANCH   3  10
ENDBRANCH   1   6
BRANCH   1  14
ATOM     14  C   UNL     1      43.819   4.156  12.678  0.00  0.00    +0.000 C 
BRANCH  14  15
ATOM     15  C   UNL     1      44.937   5.167  12.836  0.00  0.00    +0.000 A 
ATOM     16  C   UNL     1      44.751   6.479  12.384  0.00  0.00    +0.000 A 
ATOM     17  C   UNL     1      45.788   7.415  12.471  0.00  0.00    +0.000 A 
ATOM     18  C   UNL     1      46.996   6.958  13.013  0.00  0.00    +0.000 A 
ATOM     19  C   UNL     1      47.110   5.640  13.427  0.00  0.00    +0.000 A 
ATOM     20  N   UNL     1      46.111   4.738  13.354  0.00  0.00    +0.000 NA
BRANCH  17  21
ATOM     21  C   UNL     1      45.613   8.812  12.014  0.00  0.00    +0.000 A 
ATOM     22  C   UNL     1      44.445   9.230  11.358  0.00  0.00    +0.000 A 
ATOM     23  C   UNL     1      44.322  10.550  10.947  0.00  0.00    +0.000 A 
ATOM     24  N   UNL     1      45.270  11.488  11.147  0.00  0.00    +0.000 NA
ATOM     25  C   UNL     1      46.388  11.083  11.778  0.00  0.00    +0.000 A 
ATOM     26  C   UNL     1      46.604   9.785  12.217  0.00  0.00    +0.000 A 
ENDBRANCH  17  21
ENDBRANCH  14  15
ENDBRANCH   1  14
TORSDOF 5
ENDMDL
MODEL 8
REMARK VINA RESULT:    -6.432      4.289      8.190
REMARK INTER + INTRA:          -9.053
REMARK INTER:                  -8.660
REMARK INTRA:                  -0.393
REMARK UNBOUND:                -0.741
REMARK  Name = 
REMARK  5 active torsions:
REMARK  status: ('A' for Active; 'I' for Inactive)
REMARK    1  A    between atoms: C_2  and  C_4
REMARK    2  A    between atoms: C_7  and  N_8
REMARK    3  A    between atoms: N_8  and  C_9
REMARK    4  A    between atoms: C_9  and  C_10
REMARK    5  A    between atoms: C_12  and  C_13
REMARK                            x       y       z     vdW  Elec       q    Type
REMARK                         _______ _______ _______ _____ _____    ______ ____
ROOT
ATOM      1  N   UNL     1      46.775   4.274  14.545  0.00  0.00    +0.000 N 
ATOM      2  H   UNL     1      46.304   3.391  14.356  0.00  0.00    +0.000 HD
ENDROOT
BRANCH   1   6
ATOM      3  C   UNL     1      48.614   4.523  18.330  0.00  0.00    +0.000 A 
ATOM      4  C   UNL     1      47.888   3.382  17.994  0.00  0.00    +0.000 A 
ATOM      5  C   UNL     1      47.305   3.269  16.727  0.00  0.00    +0.000 A 
ATOM      6  C   UNL     1      47.435   4.284  15.771  0.00  0.00    +0.000 A 
ATOM      7  C   UNL     1      48.160   5.429  16.129  0.00  0.00    +0.000 A 
ATOM      8  C   UNL     1      48.741   5.556  17.398  0.00  0.00    +0.000 A 
BRANCH   3  10
ATOM      9  N   UNL     1      48.612   4.028  20.711  0.00  0.00    +0.000 N 
ATOM     10  C   UNL     1      49.216   4.689  19.675  0.00  0.00    +0.000 C 
ATOM     11  O   UNL     1      50.216   5.370  19.857  0.00  0.00    +0.000 OA
ATOM     12  H   UNL     1      49.087   4.068  21.608  0.00  0.00    +0.000 HD
ATOM     13  H   UNL     1      47.948   3.280  20.565  0.00  0.00    +0.000 HD
ENDBRANCH   3  10
ENDBRANCH   1   6
BRANCH   1  14
ATOM     14  C   UNL     1      46.019   5.430  14.072  0.00  0.00    +0.000 C 
BRANCH  14  15
ATOM     15  C   UNL     1      45.069   5.041  12.956  0.00  0.00    +0.000 A 
ATOM     16  C   UNL     1      45.576   4.468  11.785  0.00  0.00    +0.000 A 
ATOM     17  C   UNL     1      44.723   4.151  10.721  0.00  0.00    +0.000 A 
ATOM     18  C   UNL     1      43.367   4.450  10.899  0.00  0.00    +0.000 A 
ATOM     19  C   UNL     1      42.940   5.031  12.083  0.00  0.00    +0.000 A 
ATOM     20  N   UNL     1      43.755   5.329  13.114  0.00  0.00    +0.000 NA
BRANCH  17  21
ATOM     21  C   UNL     1      45.232   3.531   9.476  0.00  0.00    +0.000 A 
ATOM     22  C   UNL     1      45.318   2.138   9.332  0.00  0.00    +0.000 A 
ATOM     23  C   UNL     1      45.799   1.597   8.148  0.00  0.00    +0.000 A 
ATOM     24  N   UNL     1      46.194   2.339   7.093  0.00  0.00    +0.000 NA
ATOM     25  C   UNL     1      46.108   3.674   7.235  0.00  0.00    +0.000 A 
ATOM     26  C   UNL     1      45.648   4.304   8.382  0.00  0.00    +0.000 A 
ENDBRANCH  17  21
ENDBRANCH  14  15
ENDBRANCH   1  14
TORSDOF 5
ENDMDL
MODEL 9
REMARK VINA RESULT:    -6.142      5.278      7.315
REMARK INTER + INTRA:          -8.678
REMARK INTER:                  -8.244
REMARK INTRA:                  -0.435
REMARK UNBOUND:                -0.741
REMARK  Name = 
REMARK  5 active torsions:
REMARK  status: ('A' for Active; 'I' for Inactive)
REMARK    1  A    between atoms: C_2  and  C_4
REMARK    2  A    between atoms: C_7  and  N_8
REMARK    3  A    between atoms: N_8  and  C_9
REMARK    4  A    between atoms: C_9  and  C_10
REMARK    5  A    between atoms: C_12  and  C_13
REMARK                            x       y       z     vdW  Elec       q    Type
REMARK                         _______ _______ _______ _____ _____    ______ ____
ROOT
ATOM      1  N   UNL     1      47.127   5.345  14.983  0.00  0.00    +0.000 N 
ATOM      2  H   UNL     1      46.856   6.258  15.345  0.00  0.00    +0.000 HD
ENDROOT
BRANCH   1   6
ATOM      3  C   UNL     1      45.015   4.260  11.500  0.00  0.00    +0.000 A 
ATOM      4  C   UNL     1      45.182   5.609  11.809  0.00  0.00    +0.000 A 
ATOM      5  C   UNL     1      45.913   5.984  12.941  0.00  0.00    +0.000 A 
ATOM      6  C   UNL     1      46.496   5.029  13.783  0.00  0.00    +0.000 A 
ATOM      7  C   UNL     1      46.309   3.677  13.463  0.00  0.00    +0.000 A 
ATOM      8  C   UNL     1      45.571   3.290  12.337  0.00  0.00    +0.000 A 
BRANCH   3  10
ATOM      9  N   UNL     1      43.959   4.773   9.370  0.00  0.00    +0.000 N 
ATOM     10  C   UNL     1      44.217   3.828  10.327  0.00  0.00    +0.000 C 
ATOM     11  O   UNL     1      43.819   2.678  10.204  0.00  0.00    +0.000 OA
ATOM     12  H   UNL     1      43.497   4.445   8.527  0.00  0.00    +0.000 HD
ATOM     13  H   UNL     1      44.464   5.647   9.318  0.00  0.00    +0.000 HD
ENDBRANCH   3  10
ENDBRANCH   1   6
BRANCH   1  14
ATOM     14  C   UNL     1      47.310   4.352  16.039  0.00  0.00    +0.000 C 
BRANCH  14  15
ATOM     15  C   UNL     1      48.540   4.660  16.870  0.00  0.00    +0.000 A 
ATOM     16  C   UNL     1      49.522   3.678  17.039  0.00  0.00    +0.000 A 
ATOM     17  C   UNL     1      50.639   3.922  17.846  0.00  0.00    +0.000 A 
ATOM     18  C   UNL     1      50.699   5.176  18.466  0.00  0.00    +0.000 A 
ATOM     19  C   UNL     1      49.680   6.094  18.262  0.00  0.00    +0.000 A 
ATOM     20  N   UNL     1      48.607   5.867  17.478  0.00  0.00    +0.000 NA
BRANCH  17  21
ATOM     21  C   UNL     1      51.701   2.905  18.032  0.00  0.00    +0.000 A 
ATOM     22  C   UNL     1      52.880   3.196  18.733  0.00  0.00    +0.000 A 
ATOM     23  C   UNL     1      53.849   2.213  18.885  0.00  0.00    +0.000 A 
ATOM     24  N   UNL     1      53.730   0.962  18.398  0.00  0.00    +0.000 NA
ATOM     25  C   UNL     1      52.595   0.687  17.727  0.00  0.00    +0.000 A 
ATOM     26  C   UNL     1      51.576   1.605  17.518  0.00  0.00    +0.000 A 
ENDBRANCH  17  21
ENDBRANCH  14  15
ENDBRANCH   1  14
TORSDOF 5
ENDMDL
