MODEL 1
REMARK VINA RESULT:    -8.707      0.000      0.000
REMARK INTER + INTRA:         -11.899
REMARK INTER:                 -11.252
REMARK INTRA:                  -0.648
REMARK UNBOUND:                -0.648
REMARK  Name = 
REMARK  5 active torsions:
REMARK  status: ('A' for Active; 'I' for Inactive)
REMARK    1  A    between atoms: C_2  and  C_4
REMARK    2  A    between atoms: C_7  and  N_8
REMARK    3  A    between atoms: N_8  and  C_9
REMARK    4  A    between atoms: C_9  and  C_10
REMARK    5  A    between atoms: C_14  and  C_15
REMARK                            x       y       z     vdW  Elec       q    Type
REMARK                         _______ _______ _______ _____ _____    ______ ____
ROOT
ATOM      1  C   UNL     1      43.561   4.661  11.072  0.00  0.00    +0.000 C 
ENDROOT
BRANCH   1   2
ATOM      2  C   UNL     1      44.819   4.949  11.859  0.00  0.00    +0.000 A 
ATOM      3  C   UNL     1      45.172   4.120  12.918  0.00  0.00    +0.000 A 
ATOM      4  N   UNL     1      46.252   4.304  13.706  0.00  0.00    +0.000 NA
ATOM      5  C   UNL     1      47.019   5.385  13.439  0.00  0.00    +0.000 A 
ATOM      6  C   UNL     1      46.781   6.307  12.417  0.00  0.00    +0.000 A 
ATOM      7  C   UNL     1      45.641   6.063  11.631  0.00  0.00    +0.000 A 
BRANCH   6   8
ATOM      8  C   UNL     1      47.666   7.464  12.183  0.00  0.00    +0.000 A 
ATOM      9  C   UNL     1      47.167   8.783  12.159  0.00  0.00    +0.000 A 
ATOM     10  C   UNL     1      48.001   9.879  11.931  0.00  0.00    +0.000 A 
ATOM     11  C   UNL     1      49.361   9.684  11.729  0.00  0.00    +0.000 A 
ATOM     12  C   UNL     1      49.872   8.395  11.754  0.00  0.00    +0.000 A 
ATOM     13  F   UNL     1      51.183   8.200  11.559  0.00  0.00    +0.000 F 
ATOM     14  C   UNL     1      49.046   7.299  11.974  0.00  0.00    +0.000 A 
ENDBRANCH   6   8
ENDBRANCH   1   2
BRANCH   1  15
ATOM     15  N   UNL     1      43.768   4.893   9.644  0.00  0.00    +0.000 N 
ATOM     16  H   UNL     1      44.117   5.832   9.468  0.00  0.00    +0.000 HD
BRANCH  15  20
ATOM     17  C   UNL     1      46.188   2.029   7.929  0.00  0.00    +0.000 A 
ATOM     18  C   UNL     1      46.310   3.365   7.570  0.00  0.00    +0.000 A 
ATOM     19  N   UNL     1      45.525   4.350   8.098  0.00  0.00    +0.000 NA
ATOM     20  C   UNL     1      44.598   3.961   8.998  0.00  0.00    +0.000 A 
ATOM     21  C   UNL     1      44.484   2.602   9.335  0.00  0.00    +0.000 A 
ATOM     22  N   UNL     1      45.253   1.605   8.818  0.00  0.00    +0.000 NA
BRANCH  17  24
ATOM     23  N   UNL     1      46.840  -0.300   7.658  0.00  0.00    +0.000 N 
ATOM     24  C   UNL     1      47.110   1.013   7.357  0.00  0.00    +0.000 C 
ATOM     25  O   UNL     1      48.058   1.319   6.648  0.00  0.00    +0.000 OA
ATOM     26  H   UNL     1      47.404  -1.013   7.221  0.00  0.00    +0.000 HD
ATOM     27  H   UNL     1      45.968  -0.547   8.105  0.00  0.00    +0.000 HD
ENDBRANCH  17  24
ENDBRANCH  15  20
ENDBRANCH   1  15
TORSDOF 5
ENDMDL
MODEL 2
REMARK VINA RESULT:    -8.526      4.048      7.198
REMARK INTER + INTRA:         -11.666
REMARK INTER:                 -11.269
REMARK INTRA:                  -0.397
REMARK UNBOUND:                -0.648
REMARK  Name = 
REMARK  5 active torsions:
REMARK  status: ('A' for Active; 'I' for Inactive)
REMARK    1  A    between atoms: C_2  and  C_4
REMARK    2  A    between atoms: C_7  and  N_8
REMARK    3  A    between atoms: N_8  and  C_9
REMARK    4  A    between atoms: C_9  and  C_10
REMARK    5  A    between atoms: C_14  and  C_15
REMARK                            x       y       z     vdW  Elec       q    Type
REMARK                         _______ _______ _______ _____ _____    ______ ____
ROOT
ATOM      1  C   UNL     1      45.946   7.116  12.165  0.00  0.00    +0.000 C 
ENDROOT
BRANCH   1   2
ATOM      2  C   UNL     1      45.197   6.149  11.277  0.00  0.00    +0.000 A 
ATOM      3  C   UNL     1      43.819   6.020  11.409  0.00  0.00    +0.000 A 
ATOM      4  N   UNL     1      43.058   5.166  10.694  0.00  0.00    +0.000 NA
ATOM      5  C   UNL     1      43.706   4.377   9.806  0.00  0.00    +0.000 A 
ATOM      6  C   UNL     1      45.082   4.390   9.573  0.00  0.00    +0.000 A 
ATOM      7  C   UNL     1      45.822   5.301  10.349  0.00  0.00    +0.000 A 
BRANCH   6   8
ATOM      8  C   UNL     1      45.719   3.502   8.582  0.00  0.00    +0.000 A 
ATOM      9  C   UNL     1      46.340   4.014   7.422  0.00  0.00    +0.000 A 
ATOM     10  C   UNL     1      46.937   3.175   6.480  0.00  0.00    +0.000 A 
ATOM     11  C   UNL     1      46.937   1.800   6.677  0.00  0.00    +0.000 A 
ATOM     12  C   UNL     1      46.337   1.278   7.814  0.00  0.00    +0.000 A 
ATOM     13  F   UNL     1      46.333  -0.047   8.010  0.00  0.00    +0.000 F 
ATOM     14  C   UNL     1      45.735   2.107   8.753  0.00  0.00    +0.000 A 
ENDBRANCH   6   8
ENDBRANCH   1   2
BRANCH   1  15
ATOM     15  N   UNL     1      47.292   6.629  12.456  0.00  0.00    +0.000 N 
ATOM     16  H   UNL     1      47.967   7.390  12.467  0.00  0.00    +0.000 HD
BRANCH  15  20
ATOM     17  C   UNL     1      47.450   4.361  15.895  0.00  0.00    +0.000 A 
ATOM     18  C   UNL     1      48.224   5.508  15.768  0.00  0.00    +0.000 A 
ATOM     19  N   UNL     1      48.217   6.286  14.647  0.00  0.00    +0.000 NA
ATOM     20  C   UNL     1      47.417   5.880  13.639  0.00  0.00    +0.000 A 
ATOM     21  C   UNL     1      46.655   4.709  13.785  0.00  0.00    +0.000 A 
ATOM     22  N   UNL     1      46.650   3.918  14.892  0.00  0.00    +0.000 NA
BRANCH  17  24
ATOM     23  N   UNL     1      48.589   3.700  17.942  0.00  0.00    +0.000 N 
ATOM     24  C   UNL     1      47.462   3.586  17.164  0.00  0.00    +0.000 C 
ATOM     25  O   UNL     1      46.521   2.887  17.511  0.00  0.00    +0.000 OA
ATOM     26  H   UNL     1      48.593   3.246  18.843  0.00  0.00    +0.000 HD
ATOM     27  H   UNL     1      49.284   4.401  17.726  0.00  0.00    +0.000 HD
ENDBRANCH  17  24
ENDBRANCH  15  20
ENDBRANCH   1  15
TORSDOF 5
ENDMDL
MODEL 3
REMARK VINA RESULT:    -8.517      2.749      3.834
REMARK INTER + INTRA:         -11.654
REMARK INTER:                 -11.170
REMARK INTRA:                  -0.485
REMARK UNBOUND:                -0.648
REMARK  Name = 
REMARK  5 active torsions:
REMARK  status: ('A' for Active; 'I' for Inactive)
REMARK    1  A    between atoms: C_2  and  C_4
REMARK    2  A    between atoms: C_7  and  N_8
REMARK    3  A    between atoms: N_8  and  C_9
REMARK    4  A    between atoms: C_9  and  C_10
REMARK    5  A    between atoms: C_14  and  C_15
REMARK                            x       y       z     vdW  Elec       q    Type
REMARK                         _______ _______ _______ _____ _____    ______ ____
ROOT
ATOM      1  C   UNL     1      44.069   4.618  11.316  0.00  0.00    +0.000 C 
ENDROOT
BRANCH   1   2
ATOM      2  C   UNL     1      45.269   5.275  11.959  0.00  0.00    +0.000 A 
ATOM      3  C   UNL     1      45.954   6.274  11.278  0.00  0.00    +0.000 A 
ATOM      4  N   UNL     1      47.053   6.903  11.743  0.00  0.00    +0.000 NA
ATOM      5  C   UNL     1      47.513   6.503  12.951  0.00  0.00    +0.000 A 
ATOM      6  C   UNL     1      46.935   5.508  13.742  0.00  0.00    +0.000 A 
ATOM      7  C   UNL     1      45.792   4.890  13.203  0.00  0.00    +0.000 A 
BRANCH   6   8
ATOM      8  C   UNL     1      47.491   5.127  15.054  0.00  0.00    +0.000 A 
ATOM      9  C   UNL     1      48.467   5.916  15.700  0.00  0.00    +0.000 A 
ATOM     10  C   UNL     1      49.000   5.554  16.938  0.00  0.00    +0.000 A 
ATOM     11  C   UNL     1      48.563   4.396  17.569  0.00  0.00    +0.000 A 
ATOM     12  C   UNL     1      47.600   3.611  16.953  0.00  0.00    +0.000 A 
ATOM     13  F   UNL     1      47.175   2.492  17.556  0.00  0.00    +0.000 F 
ATOM     14  C   UNL     1      47.070   3.961  15.717  0.00  0.00    +0.000 A 
ENDBRANCH   6   8
ENDBRANCH   1   2
BRANCH   1  15
ATOM     15  N   UNL     1      44.026   4.890   9.881  0.00  0.00    +0.000 N 
ATOM     16  H   UNL     1      44.250   5.862   9.680  0.00  0.00    +0.000 HD
BRANCH  15  20
ATOM     17  C   UNL     1      46.403   2.301   7.725  0.00  0.00    +0.000 A 
ATOM     18  C   UNL     1      46.394   3.660   7.436  0.00  0.00    +0.000 A 
ATOM     19  N   UNL     1      45.616   4.556   8.111  0.00  0.00    +0.000 NA
ATOM     20  C   UNL     1      44.832   4.055   9.087  0.00  0.00    +0.000 A 
ATOM     21  C   UNL     1      44.847   2.675   9.352  0.00  0.00    +0.000 A 
ATOM     22  N   UNL     1      45.611   1.765   8.689  0.00  0.00    +0.000 NA
BRANCH  17  24
ATOM     23  N   UNL     1      48.414   1.957   6.399  0.00  0.00    +0.000 N 
ATOM     24  C   UNL     1      47.314   1.385   6.989  0.00  0.00    +0.000 C 
ATOM     25  O   UNL     1      47.106   0.183   6.911  0.00  0.00    +0.000 OA
ATOM     26  H   UNL     1      49.088   1.349   5.958  0.00  0.00    +0.000 HD
ATOM     27  H   UNL     1      48.659   2.916   6.607  0.00  0.00    +0.000 HD
ENDBRANCH  17  24
ENDBRANCH  15  20
ENDBRANCH   1  15
TORSDOF 5
ENDMDL
MODEL 4
REMARK VINA RESULT:    -8.434      3.442      6.748
REMARK INTER + INTRA:         -11.546
REMARK INTER:                 -10.785
REMARK INTRA:                  -0.761
REMARK UNBOUND:                -0.648
REMARK  Name = 
REMARK  5 active torsions:
REMARK  status: ('A' for Active; 'I' for Inactive)
REMARK    1  A    between atoms: C_2  and  C_4
REMARK    2  A    between atoms: C_7  and  N_8
REMARK    3  A    between atoms: N_8  and  C_9
REMARK    4  A    between atoms: C_9  and  C_10
REMARK    5  A    between atoms: C_14  and  C_15
REMARK                            x       y       z     vdW  Elec       q    Type
REMARK                         _______ _______ _______ _____ _____    ______ ____
ROOT
ATOM      1  C   UNL     1      43.723   6.470  11.575  0.00  0.00    +0.000 C 
ENDROOT
BRANCH   1   2
ATOM      2  C   UNL     1      43.802   5.040  11.089  0.00  0.00    +0.000 A 
ATOM      3  C   UNL     1      43.076   4.051  11.743  0.00  0.00    +0.000 A 
ATOM      4  N   UNL     1      43.099   2.743  11.415  0.00  0.00    +0.000 NA
ATOM      5  C   UNL     1      43.906   2.390  10.388  0.00  0.00    +0.000 A 
ATOM      6  C   UNL     1      44.697   3.272   9.648  0.00  0.00    +0.000 A 
ATOM      7  C   UNL     1      44.631   4.621  10.038  0.00  0.00    +0.000 A 
BRANCH   6   8
ATOM      8  C   UNL     1      45.552   2.814   8.536  0.00  0.00    +0.000 A 
ATOM      9  C   UNL     1      45.995   3.701   7.532  0.00  0.00    +0.000 A 
ATOM     10  C   UNL     1      46.797   3.269   6.474  0.00  0.00    +0.000 A 
ATOM     11  C   UNL     1      47.186   1.938   6.398  0.00  0.00    +0.000 A 
ATOM     12  C   UNL     1      46.765   1.052   7.379  0.00  0.00    +0.000 A 
ATOM     13  F   UNL     1      47.135  -0.234   7.310  0.00  0.00    +0.000 F 
ATOM     14  C   UNL     1      45.960   1.473   8.431  0.00  0.00    +0.000 A 
ENDBRANCH   6   8
ENDBRANCH   1   2
BRANCH   1  15
ATOM     15  N   UNL     1      44.467   6.645  12.821  0.00  0.00    +0.000 N 
ATOM     16  H   UNL     1      44.351   5.844  13.437  0.00  0.00    +0.000 HD
BRANCH  15  20
ATOM     17  C   UNL     1      48.526   7.306  12.538  0.00  0.00    +0.000 A 
ATOM     18  C   UNL     1      47.621   8.296  12.174  0.00  0.00    +0.000 A 
ATOM     19  N   UNL     1      46.268   8.123  12.238  0.00  0.00    +0.000 NA
ATOM     20  C   UNL     1      45.836   6.920  12.669  0.00  0.00    +0.000 A 
ATOM     21  C   UNL     1      46.770   5.930  13.017  0.00  0.00    +0.000 A 
ATOM     22  N   UNL     1      48.121   6.080  12.958  0.00  0.00    +0.000 NA
BRANCH  17  24
ATOM     23  N   UNL     1      50.626   7.683  13.709  0.00  0.00    +0.000 N 
ATOM     24  C   UNL     1      49.987   7.577  12.497  0.00  0.00    +0.000 C 
ATOM     25  O   UNL     1      50.600   7.695  11.446  0.00  0.00    +0.000 OA
ATOM     26  H   UNL     1      51.629   7.791  13.710  0.00  0.00    +0.000 HD
ATOM     27  H   UNL     1      50.144   7.424  14.559  0.00  0.00    +0.000 HD
ENDBRANCH  17  24
ENDBRANCH  15  20
ENDBRANCH   1  15
TORSDOF 5
ENDMDL
MODEL 5
REMARK VINA RESULT:    -7.876      4.302      7.585
REMARK INTER + INTRA:         -10.826
REMARK INTER:                 -10.218
REMARK INTRA:                  -0.608
REMARK UNBOUND:                -0.648
REMARK  Name = 
REMARK  5 active torsions:
REMARK  status: ('A' for Active; 'I' for Inactive)
REMARK    1  A    between atoms: C_2  and  C_4
REMARK    2  A    between atoms: C_7  and  N_8
REMARK    3  A    between atoms: N_8  and  C_9
REMARK    4  A    between atoms: C_9  and  C_10
REMARK    5  A    between atoms: C_14  and  C_15
REMARK                            x       y       z     vdW  Elec       q    Type
REMARK                         _______ _______ _______ _____ _____    ______ ____
ROOT
ATOM      1  C   UNL     1      45.053   5.642  12.981  0.00  0.00    +0.000 C 
ENDROOT
BRANCH   1   2
ATOM      2  C   UNL     1      44.619   4.580  11.997  0.00  0.00    +0.000 A 
ATOM      3  C   UNL     1      43.490   3.815  12.265  0.00  0.00    +0.000 A 
ATOM      4  N   UNL     1      43.034   2.821  11.475  0.00  0.00    +0.000 NA
ATOM      5  C   UNL     1      43.752   2.557  10.359  0.00  0.00    +0.000 A 
ATOM      6  C   UNL     1      44.909   3.235   9.969  0.00  0.00    +0.000 A 
ATOM      7  C   UNL     1      45.334   4.259  10.834  0.00  0.00    +0.000 A 
BRANCH   6   8
ATOM      8  C   UNL     1      45.639   2.894   8.733  0.00  0.00    +0.000 A 
ATOM      9  C   UNL     1      46.014   3.884   7.799  0.00  0.00    +0.000 A 
ATOM     10  C   UNL     1      46.698   3.562   6.626  0.00  0.00    +0.000 A 
ATOM     11  C   UNL     1      47.035   2.241   6.360  0.00  0.00    +0.000 A 
ATOM     12  C   UNL     1      46.680   1.255   7.268  0.00  0.00    +0.000 A 
ATOM     13  F   UNL     1      47.001  -0.021   7.017  0.00  0.00    +0.000 F 
ATOM     14  C   UNL     1      45.992   1.567   8.435  0.00  0.00    +0.000 A 
ENDBRANCH   6   8
ENDBRANCH   1   2
BRANCH   1  15
ATOM     15  N   UNL     1      46.509   5.747  13.036  0.00  0.00    +0.000 N 
ATOM     16  H   UNL     1      46.823   6.681  12.784  0.00  0.00    +0.000 HD
BRANCH  15  20
ATOM     17  C   UNL     1      48.411   4.749  16.554  0.00  0.00    +0.000 A 
ATOM     18  C   UNL     1      47.344   3.991  16.088  0.00  0.00    +0.000 A 
ATOM     19  N   UNL     1      46.673   4.286  14.936  0.00  0.00    +0.000 NA
ATOM     20  C   UNL     1      47.093   5.375  14.259  0.00  0.00    +0.000 A 
ATOM     21  C   UNL     1      48.165   6.134  14.758  0.00  0.00    +0.000 A 
ATOM     22  N   UNL     1      48.844   5.859  15.904  0.00  0.00    +0.000 NA
BRANCH  17  24
ATOM     23  N   UNL     1      50.329   4.973  18.035  0.00  0.00    +0.000 N 
ATOM     24  C   UNL     1      49.135   4.342  17.788  0.00  0.00    +0.000 C 
ATOM     25  O   UNL     1      48.695   3.495  18.552  0.00  0.00    +0.000 OA
ATOM     26  H   UNL     1      50.803   4.771  18.903  0.00  0.00    +0.000 HD
ATOM     27  H   UNL     1      50.599   5.779  17.488  0.00  0.00    +0.000 HD
ENDBRANCH  17  24
ENDBRANCH  15  20
ENDBRANCH   1  15
TORSDOF 5
ENDMDL
MODEL 6
REMARK VINA RESULT:    -7.594      1.985      2.401
REMARK INTER + INTRA:         -10.461
REMARK INTER:                  -9.786
REMARK INTRA:                  -0.675
REMARK UNBOUND:                -0.648
REMARK  Name = 
REMARK  5 active torsions:
REMARK  status: ('A' for Active; 'I' for Inactive)
REMARK    1  A    between atoms: C_2  and  C_4
REMARK    2  A    between atoms: C_7  and  N_8
REMARK    3  A    between atoms: N_8  and  C_9
REMARK    4  A    between atoms: C_9  and  C_10
REMARK    5  A    between atoms: C_14  and  C_15
REMARK                            x       y       z     vdW  Elec       q    Type
REMARK                         _______ _______ _______ _____ _____    ______ ____
ROOT
ATOM      1  C   UNL     1      44.391   4.040  11.658  0.00  0.00    +0.000 C 
ENDROOT
BRANCH   1   2
ATOM      2  C   UNL     1      44.962   5.421  11.882  0.00  0.00    +0.000 A 
ATOM      3  C   UNL     1      44.259   6.535  11.439  0.00  0.00    +0.000 A 
ATOM      4  N   UNL     1      44.689   7.809  11.557  0.00  0.00    +0.000 NA
ATOM      5  C   UNL     1      45.900   7.987  12.133  0.00  0.00    +0.000 A 
ATOM      6  C   UNL     1      46.719   6.964  12.615  0.00  0.00    +0.000 A 
ATOM      7  C   UNL     1      46.216   5.659  12.463  0.00  0.00    +0.000 A 
BRANCH   6   8
ATOM      8  C   UNL     1      48.029   7.236  13.237  0.00  0.00    +0.000 A 
ATOM      9  C   UNL     1      49.006   8.022  12.589  0.00  0.00    +0.000 A 
ATOM     10  C   UNL     1      50.248   8.274  13.173  0.00  0.00    +0.000 A 
ATOM     11  C   UNL     1      50.544   7.754  14.426  0.00  0.00    +0.000 A 
ATOM     12  C   UNL     1      49.595   6.983  15.081  0.00  0.00    +0.000 A 
ATOM     13  F   UNL     1      49.874   6.478  16.290  0.00  0.00    +0.000 F 
ATOM     14  C   UNL     1      48.358   6.722  14.503  0.00  0.00    +0.000 A 
ENDBRANCH   6   8
ENDBRANCH   1   2
BRANCH   1  15
ATOM     15  N   UNL     1      43.824   3.915  10.317  0.00  0.00    +0.000 N 
ATOM     16  H   UNL     1      43.364   4.774  10.028  0.00  0.00    +0.000 HD
BRANCH  15  20
ATOM     17  C   UNL     1      46.540   2.572   7.522  0.00  0.00    +0.000 A 
ATOM     18  C   UNL     1      46.157   3.907   7.551  0.00  0.00    +0.000 A 
ATOM     19  N   UNL     1      45.252   4.399   8.447  0.00  0.00    +0.000 NA
ATOM     20  C   UNL     1      44.727   3.513   9.318  0.00  0.00    +0.000 A 
ATOM     21  C   UNL     1      45.120   2.165   9.260  0.00  0.00    +0.000 A 
ATOM     22  N   UNL     1      46.016   1.654   8.373  0.00  0.00    +0.000 NA
BRANCH  17  24
ATOM     23  N   UNL     1      47.897   2.981   5.543  0.00  0.00    +0.000 N 
ATOM     24  C   UNL     1      47.571   2.111   6.555  0.00  0.00    +0.000 C 
ATOM     25  O   UNL     1      48.112   1.019   6.649  0.00  0.00    +0.000 OA
ATOM     26  H   UNL     1      48.646   2.725   4.918  0.00  0.00    +0.000 HD
ATOM     27  H   UNL     1      47.564   3.935   5.570  0.00  0.00    +0.000 HD
ENDBRANCH  17  24
ENDBRANCH  15  20
ENDBRANCH   1  15
TORSDOF 5
ENDMDL
MODEL 7
REMARK VINA RESULT:    -7.031      3.793      7.572
REMARK INTER + INTRA:          -9.734
REMARK INTER:                  -9.205
REMARK INTRA:                  -0.529
REMARK UNBOUND:                -0.648
REMARK  Name = 
REMARK  5 active torsions:
REMARK  status: ('A' for Active; 'I' for Inactive)
REMARK    1  A    between atoms: C_2  and  C_4
REMARK    2  A    between atoms: C_7  and  N_8
REMARK    3  A    between atoms: N_8  and  C_9
REMARK    4  A    between atoms: C_9  and  C_10
REMARK    5  A    between atoms: C_14  and  C_15
REMARK                            x       y       z     vdW  Elec       q    Type
REMARK                         _______ _______ _______ _____ _____    ______ ____
ROOT
ATOM      1  C   UNL     1      45.931   7.391  11.781  0.00  0.00    +0.000 C 
ENDROOT
BRANCH   1   2
ATOM      2  C   UNL     1      45.182   6.287  11.072  0.00  0.00    +0.000 A 
ATOM      3  C   UNL     1      43.844   6.061  11.371  0.00  0.00    +0.000 A 
ATOM      4  N   UNL     1      43.092   5.084  10.823  0.00  0.00    +0.000 NA
ATOM      5  C   UNL     1      43.710   4.268   9.938  0.00  0.00    +0.000 A 
ATOM      6  C   UNL     1      45.048   4.370   9.550  0.00  0.00    +0.000 A 
ATOM      7  C   UNL     1      45.780   5.407  10.156  0.00  0.00    +0.000 A 
BRANCH   6   8
ATOM      8  C   UNL     1      45.654   3.445   8.574  0.00  0.00    +0.000 A 
ATOM      9  C   UNL     1      45.796   2.068   8.850  0.00  0.00    +0.000 A 
ATOM     10  C   UNL     1      46.376   1.192   7.931  0.00  0.00    +0.000 A 
ATOM     11  C   UNL     1      46.821   1.669   6.704  0.00  0.00    +0.000 A 
ATOM     12  C   UNL     1      46.685   3.018   6.412  0.00  0.00    +0.000 A 
ATOM     13  F   UNL     1      47.113   3.485   5.232  0.00  0.00    +0.000 F 
ATOM     14  C   UNL     1      46.115   3.898   7.326  0.00  0.00    +0.000 A 
ENDBRANCH   6   8
ENDBRANCH   1   2
BRANCH   1  15
ATOM     15  N   UNL     1      46.288   6.996  13.142  0.00  0.00    +0.000 N 
ATOM     16  H   UNL     1      46.072   6.017  13.313  0.00  0.00    +0.000 HD
BRANCH  15  20
ATOM     17  C   UNL     1      50.148   7.663  14.426  0.00  0.00    +0.000 A 
ATOM     18  C   UNL     1      49.605   8.421  13.397  0.00  0.00    +0.000 A 
ATOM     19  N   UNL     1      48.337   8.232  12.926  0.00  0.00    +0.000 NA
ATOM     20  C   UNL     1      47.620   7.249  13.510  0.00  0.00    +0.000 A 
ATOM     21  C   UNL     1      48.197   6.487  14.540  0.00  0.00    +0.000 A 
ATOM     22  N   UNL     1      49.459   6.656  15.020  0.00  0.00    +0.000 NA
BRANCH  17  24
ATOM     23  N   UNL     1      51.677   7.986  16.292  0.00  0.00    +0.000 N 
ATOM     24  C   UNL     1      51.517   7.956  14.928  0.00  0.00    +0.000 C 
ATOM     25  O   UNL     1      52.460   8.155  14.175  0.00  0.00    +0.000 OA
ATOM     26  H   UNL     1      52.609   8.107  16.659  0.00  0.00    +0.000 HD
ATOM     27  H   UNL     1      50.934   7.662  16.896  0.00  0.00    +0.000 HD
ENDBRANCH  17  24
ENDBRANCH  15  20
ENDBRANCH   1  15
TORSDOF 5
ENDMDL
MODEL 8
REMARK VINA RESULT:    -6.623      4.980      8.188
REMARK INTER + INTRA:          -9.207
REMARK INTER:                  -8.585
REMARK INTRA:                  -0.622
REMARK UNBOUND:                -0.648
REMARK  Name = 
REMARK  5 active torsions:
REMARK  status: ('A' for Active; 'I' for Inactive)
REMARK    1  A    between atoms: C_2  and  C_4
REMARK    2  A    between atoms: C_7  and  N_8
REMARK    3  A    between atoms: N_8  and  C_9
REMARK    4  A    between atoms: C_9  and  C_10
REMARK    5  A    between atoms: C_14  and  C_15
REMARK                            x       y       z     vdW  Elec       q    Type
REMARK                         _______ _______ _______ _____ _____    ______ ____
ROOT
ATOM      1  C   UNL     1      48.026   7.931  14.043  0.00  0.00    +0.000 C 
ENDROOT
BRANCH   1   2
ATOM      2  C   UNL     1      46.881   7.808  13.064  0.00  0.00    +0.000 A 
ATOM      3  C   UNL     1      46.012   8.878  12.885  0.00  0.00    +0.000 A 
ATOM      4  N   UNL     1      44.942   8.865  12.064  0.00  0.00    +0.000 NA
ATOM      5  C   UNL     1      44.707   7.714  11.394  0.00  0.00    +0.000 A 
ATOM      6  C   UNL     1      45.486   6.559  11.483  0.00  0.00    +0.000 A 
ATOM      7  C   UNL     1      46.588   6.634  12.354  0.00  0.00    +0.000 A 
BRANCH   6   8
ATOM      8  C   UNL     1      45.170   5.338  10.717  0.00  0.00    +0.000 A 
ATOM      9  C   UNL     1      45.617   5.163   9.390  0.00  0.00    +0.000 A 
ATOM     10  C   UNL     1      45.313   4.012   8.660  0.00  0.00    +0.000 A 
ATOM     11  C   UNL     1      44.561   3.000   9.243  0.00  0.00    +0.000 A 
ATOM     12  C   UNL     1      44.118   3.152  10.549  0.00  0.00    +0.000 A 
ATOM     13  F   UNL     1      43.392   2.180  11.117  0.00  0.00    +0.000 F 
ATOM     14  C   UNL     1      44.411   4.298  11.279  0.00  0.00    +0.000 A 
ENDBRANCH   6   8
ENDBRANCH   1   2
BRANCH   1  15
ATOM     15  N   UNL     1      48.691   6.645  14.241  0.00  0.00    +0.000 N 
ATOM     16  H   UNL     1      49.668   6.686  13.962  0.00  0.00    +0.000 HD
BRANCH  15  20
ATOM     17  C   UNL     1      48.596   5.225  18.110  0.00  0.00    +0.000 A 
ATOM     18  C   UNL     1      48.160   4.433  17.055  0.00  0.00    +0.000 A 
ATOM     19  N   UNL     1      48.159   4.860  15.758  0.00  0.00    +0.000 NA
ATOM     20  C   UNL     1      48.601   6.116  15.539  0.00  0.00    +0.000 A 
ATOM     21  C   UNL     1      49.023   6.903  16.624  0.00  0.00    +0.000 A 
ATOM     22  N   UNL     1      49.028   6.498  17.923  0.00  0.00    +0.000 NA
BRANCH  17  24
ATOM     23  N   UNL     1      48.377   3.335  19.628  0.00  0.00    +0.000 N 
ATOM     24  C   UNL     1      48.622   4.680  19.493  0.00  0.00    +0.000 C 
ATOM     25  O   UNL     1      48.854   5.383  20.466  0.00  0.00    +0.000 OA
ATOM     26  H   UNL     1      48.463   2.926  20.546  0.00  0.00    +0.000 HD
ATOM     27  H   UNL     1      48.348   2.742  18.810  0.00  0.00    +0.000 HD
ENDBRANCH  17  24
ENDBRANCH  15  20
ENDBRANCH   1  15
TORSDOF 5
ENDMDL
MODEL 9
REMARK VINA RESULT:    -6.440      5.489      7.464
REMARK INTER + INTRA:          -8.971
REMARK INTER:                  -8.423
REMARK INTRA:                  -0.547
REMARK UNBOUND:                -0.648
REMARK  Name = 
REMARK  5 active torsions:
REMARK  status: ('A' for Active; 'I' for Inactive)
REMARK    1  A    between atoms: C_2  and  C_4
REMARK    2  A    between atoms: C_7  and  N_8
REMARK    3  A    between atoms: N_8  and  C_9
REMARK    4  A    between atoms: C_9  and  C_10
REMARK    5  A    between atoms: C_14  and  C_15
REMARK                            x       y       z     vdW  Elec       q    Type
REMARK                         _______ _______ _______ _____ _____    ______ ____
ROOT
ATOM      1  C   UNL     1      46.966   4.024  16.200  0.00  0.00    +0.000 C 
ENDROOT
BRANCH   1   2
ATOM      2  C   UNL     1      48.197   4.254  17.046  0.00  0.00    +0.000 A 
ATOM      3  C   UNL     1      48.268   5.373  17.867  0.00  0.00    +0.000 A 
ATOM      4  N   UNL     1      49.329   5.692  18.637  0.00  0.00    +0.000 NA
ATOM      5  C   UNL     1      50.393   4.859  18.575  0.00  0.00    +0.000 A 
ATOM      6  C   UNL     1      50.468   3.707  17.790  0.00  0.00    +0.000 A 
ATOM      7  C   UNL     1      49.331   3.428  17.010  0.00  0.00    +0.000 A 
BRANCH   6   8
ATOM      8  C   UNL     1      51.663   2.842  17.777  0.00  0.00    +0.000 A 
ATOM      9  C   UNL     1      51.576   1.466  17.478  0.00  0.00    +0.000 A 
ATOM     10  C   UNL     1      52.705   0.645  17.472  0.00  0.00    +0.000 A 
ATOM     11  C   UNL     1      53.954   1.181  17.756  0.00  0.00    +0.000 A 
ATOM     12  C   UNL     1      54.061   2.534  18.046  0.00  0.00    +0.000 A 
ATOM     13  F   UNL     1      55.263   3.057  18.321  0.00  0.00    +0.000 F 
ATOM     14  C   UNL     1      52.940   3.356  18.061  0.00  0.00    +0.000 A 
ENDBRANCH   6   8
ENDBRANCH   1   2
BRANCH   1  15
ATOM     15  N   UNL     1      47.326   3.554  14.863  0.00  0.00    +0.000 N 
ATOM     16  H   UNL     1      47.434   2.543  14.842  0.00  0.00    +0.000 HD
BRANCH  15  20
ATOM     17  C   UNL     1      44.705   4.883  11.972  0.00  0.00    +0.000 A 
ATOM     18  C   UNL     1      45.062   3.542  12.040  0.00  0.00    +0.000 A 
ATOM     19  N   UNL     1      45.935   3.054  12.970  0.00  0.00    +0.000 NA
ATOM     20  C   UNL     1      46.455   3.950  13.834  0.00  0.00    +0.000 A 
ATOM     21  C   UNL     1      46.090   5.303  13.736  0.00  0.00    +0.000 A 
ATOM     22  N   UNL     1      45.226   5.811  12.815  0.00  0.00    +0.000 NA
BRANCH  17  24
ATOM     23  N   UNL     1      43.153   6.581  11.177  0.00  0.00    +0.000 N 
ATOM     24  C   UNL     1      43.706   5.341  10.970  0.00  0.00    +0.000 C 
ATOM     25  O   UNL     1      43.392   4.660  10.005  0.00  0.00    +0.000 OA
ATOM     26  H   UNL     1      42.531   6.948  10.473  0.00  0.00    +0.000 HD
ATOM     27  H   UNL     1      43.538   7.196  11.881  0.00  0.00    +0.000 HD
ENDBRANCH  17  24
ENDBRANCH  15  20
ENDBRANCH   1  15
TORSDOF 5
ENDMDL
