MODEL 1
REMARK VINA RESULT:    -7.153      0.000      0.000
REMARK INTER + INTRA:          -9.708
REMARK INTER:                  -9.035
REMARK INTRA:                  -0.673
REMARK UNBOUND:                -0.673
REMARK  Name = 
REMARK  5 active torsions:
REMARK  status: ('A' for Active; 'I' for Inactive)
REMARK    1  A    between atoms: N_1  and  C_2
REMARK    2  A    between atoms: C_2  and  C_3
REMARK    3  A    between atoms: C_6  and  C_7
REMARK    4  A    between atoms: C_7  and  N_8
REMARK    5  A    between atoms: C_13  and  C_14
REMARK                            x       y       z     vdW  Elec       q    Type
REMARK                         _______ _______ _______ _____ _____    ______ ____
ROOT
ATOM      1  N   UNL     1      44.581   5.103  10.572  0.00  0.00    +0.000 N 
ATOM      2  C   UNL     1      43.817   4.160  11.222  0.00  0.00    +0.000 A 
ATOM      3  C   UNL     1      44.068   2.936  10.644  0.00  0.00    +0.000 A 
ATOM      4  C   UNL     1      44.953   3.150   9.557  0.00  0.00    +0.000 A 
ATOM      5  C   UNL     1      45.536   2.320   8.584  0.00  0.00    +0.000 A 
ATOM      6  C   UNL     1      46.337   2.918   7.608  0.00  0.00    +0.000 A 
ATOM      7  C   UNL     1      46.543   4.295   7.681  0.00  0.00    +0.000 A 
ATOM      8  N   UNL     1      46.032   5.136   8.621  0.00  0.00    +0.000 NA
ATOM      9  C   UNL     1      45.241   4.512   9.517  0.00  0.00    +0.000 A 
ENDROOT
BRANCH   6  10
ATOM     10  C   UNL     1      46.958   2.168   6.489  0.00  0.00    +0.000 C 
ATOM     11  N   UNL     1      47.350   2.857   5.374  0.00  0.00    +0.000 N 
ATOM     12  O   UNL     1      47.133   0.956   6.553  0.00  0.00    +0.000 OA
ATOM     13  H   UNL     1      47.279   3.853   5.246  0.00  0.00    +0.000 HD
ATOM     14  H   UNL     1      47.795   2.321   4.640  0.00  0.00    +0.000 HD
ENDBRANCH   6  10
BRANCH   1  15
ATOM     15  C   UNL     1      44.681   6.500  10.979  0.00  0.00    +0.000 C 
BRANCH  15  19
ATOM     16  C   UNL     1      47.733   8.437  12.115  0.00  0.00    +0.000 C 
ATOM     17  C   UNL     1      47.714   6.960  11.683  0.00  0.00    +0.000 C 
ATOM     18  C   UNL     1      46.724   6.127  12.492  0.00  0.00    +0.000 C 
ATOM     19  C   UNL     1      45.294   6.677  12.391  0.00  0.00    +0.000 C 
ATOM     20  C   UNL     1      45.277   8.143  12.855  0.00  0.00    +0.000 C 
ATOM     21  C   UNL     1      46.307   9.022  12.146  0.00  0.00    +0.000 C 
BRANCH  16  22
ATOM     22  C   UNL     1      48.468   8.649  13.455  0.00  0.00    +0.000 C 
BRANCH  22  23
ATOM     23  N   UNL     1      48.188   9.974  14.004  0.00  0.00    +0.000 NA
ATOM     24  H   UNL     1      48.054   9.914  15.010  0.00  0.00    +0.000 HD
ATOM     25  H   UNL     1      47.317  10.331  13.614  0.00  0.00    +0.000 HD
ENDBRANCH  22  23
ENDBRANCH  16  22
ENDBRANCH  15  19
ENDBRANCH   1  15
TORSDOF 5
ENDMDL
MODEL 2
REMARK VINA RESULT:    -5.882      4.699      6.176
REMARK INTER + INTRA:          -8.102
REMARK INTER:                  -7.652
REMARK INTRA:                  -0.450
REMARK UNBOUND:                -0.673
REMARK  Name = 
REMARK  5 active torsions:
REMARK  status: ('A' for Active; 'I' for Inactive)
REMARK    1  A    between atoms: N_1  and  C_2
REMARK    2  A    between atoms: C_2  and  C_3
REMARK    3  A    between atoms: C_6  and  C_7
REMARK    4  A    between atoms: C_7  and  N_8
REMARK    5  A    between atoms: C_13  and  C_14
REMARK                            x       y       z     vdW  Elec       q    Type
REMARK                         _______ _______ _______ _____ _____    ______ ____
ROOT
ATOM      1  N   UNL     1      47.490   5.414  14.586  0.00  0.00    +0.000 N 
ATOM      2  C   UNL     1      48.043   6.597  14.151  0.00  0.00    +0.000 A 
ATOM      3  C   UNL     1      47.480   6.910  12.935  0.00  0.00    +0.000 A 
ATOM      4  C   UNL     1      46.614   5.845  12.579  0.00  0.00    +0.000 A 
ATOM      5  C   UNL     1      45.799   5.568  11.467  0.00  0.00    +0.000 A 
ATOM      6  C   UNL     1      45.112   4.352  11.447  0.00  0.00    +0.000 A 
ATOM      7  C   UNL     1      45.242   3.505  12.546  0.00  0.00    +0.000 A 
ATOM      8  N   UNL     1      45.987   3.742  13.660  0.00  0.00    +0.000 NA
ATOM      9  C   UNL     1      46.654   4.913  13.613  0.00  0.00    +0.000 A 
ENDROOT
BRANCH   6  10
ATOM     10  C   UNL     1      44.272   3.908  10.306  0.00  0.00    +0.000 C 
ATOM     11  N   UNL     1      44.191   4.710   9.200  0.00  0.00    +0.000 N 
ATOM     12  O   UNL     1      43.670   2.841  10.336  0.00  0.00    +0.000 OA
ATOM     13  H   UNL     1      44.675   5.582   9.072  0.00  0.00    +0.000 HD
ATOM     14  H   UNL     1      43.633   4.366   8.428  0.00  0.00    +0.000 HD
ENDBRANCH   6  10
BRANCH   1  15
ATOM     15  C   UNL     1      47.746   4.821  15.894  0.00  0.00    +0.000 C 
BRANCH  15  19
ATOM     16  C   UNL     1      48.646   4.630  19.569  0.00  0.00    +0.000 C 
ATOM     17  C   UNL     1      47.607   5.578  18.945  0.00  0.00    +0.000 C 
ATOM     18  C   UNL     1      48.197   6.443  17.835  0.00  0.00    +0.000 C 
ATOM     19  C   UNL     1      48.811   5.595  16.712  0.00  0.00    +0.000 C 
ATOM     20  C   UNL     1      49.882   4.664  17.303  0.00  0.00    +0.000 C 
ATOM     21  C   UNL     1      49.384   3.826  18.481  0.00  0.00    +0.000 C 
BRANCH  16  22
ATOM     22  C   UNL     1      49.630   5.367  20.502  0.00  0.00    +0.000 C 
BRANCH  22  23
ATOM     23  N   UNL     1      50.760   4.510  20.856  0.00  0.00    +0.000 NA
ATOM     24  H   UNL     1      50.568   3.548  20.586  0.00  0.00    +0.000 HD
ATOM     25  H   UNL     1      50.889   4.511  21.866  0.00  0.00    +0.000 HD
ENDBRANCH  22  23
ENDBRANCH  16  22
ENDBRANCH  15  19
ENDBRANCH   1  15
TORSDOF 5
ENDMDL
MODEL 3
REMARK VINA RESULT:    -5.871      4.911      8.242
REMARK INTER + INTRA:          -8.089
REMARK INTER:                  -7.622
REMARK INTRA:                  -0.466
REMARK UNBOUND:                -0.673
REMARK  Name = 
REMARK  5 active torsions:
REMARK  status: ('A' for Active; 'I' for Inactive)
REMARK    1  A    between atoms: N_1  and  C_2
REMARK    2  A    between atoms: C_2  and  C_3
REMARK    3  A    between atoms: C_6  and  C_7
REMARK    4  A    between atoms: C_7  and  N_8
REMARK    5  A    between atoms: C_13  and  C_14
REMARK                            x       y       z     vdW  Elec       q    Type
REMARK                         _______ _______ _______ _____ _____    ______ ____
ROOT
ATOM      1  N   UNL     1      48.134   6.547  14.179  0.00  0.00    +0.000 N 
ATOM      2  C   UNL     1      48.624   7.825  14.327  0.00  0.00    +0.000 A 
ATOM      3  C   UNL     1      49.220   7.912  15.564  0.00  0.00    +0.000 A 
ATOM      4  C   UNL     1      49.020   6.672  16.223  0.00  0.00    +0.000 A 
ATOM      5  C   UNL     1      49.355   6.166  17.491  0.00  0.00    +0.000 A 
ATOM      6  C   UNL     1      48.928   4.876  17.814  0.00  0.00    +0.000 A 
ATOM      7  C   UNL     1      48.230   4.153  16.847  0.00  0.00    +0.000 A 
ATOM      8  N   UNL     1      47.913   4.583  15.595  0.00  0.00    +0.000 NA
ATOM      9  C   UNL     1      48.321   5.845  15.349  0.00  0.00    +0.000 A 
ENDROOT
BRANCH   6  10
ATOM     10  C   UNL     1      49.156   4.248  19.139  0.00  0.00    +0.000 C 
ATOM     11  N   UNL     1      48.417   3.148  19.480  0.00  0.00    +0.000 N 
ATOM     12  O   UNL     1      49.995   4.687  19.916  0.00  0.00    +0.000 OA
ATOM     13  H   UNL     1      47.733   2.697  18.895  0.00  0.00    +0.000 HD
ATOM     14  H   UNL     1      48.616   2.726  20.378  0.00  0.00    +0.000 HD
ENDBRANCH   6  10
BRANCH   1  15
ATOM     15  C   UNL     1      47.542   6.034  12.949  0.00  0.00    +0.000 C 
BRANCH  15  19
ATOM     16  C   UNL     1      44.975   4.200  10.848  0.00  0.00    +0.000 C 
ATOM     17  C   UNL     1      45.635   5.544  10.493  0.00  0.00    +0.000 C 
ATOM     18  C   UNL     1      45.441   6.597  11.580  0.00  0.00    +0.000 C 
ATOM     19  C   UNL     1      45.995   6.133  12.934  0.00  0.00    +0.000 C 
ATOM     20  C   UNL     1      45.323   4.809  13.334  0.00  0.00    +0.000 C 
ATOM     21  C   UNL     1      45.402   3.730  12.253  0.00  0.00    +0.000 C 
BRANCH  16  22
ATOM     22  C   UNL     1      43.440   4.241  10.701  0.00  0.00    +0.000 C 
BRANCH  22  23
ATOM     23  N   UNL     1      42.812   3.149  11.443  0.00  0.00    +0.000 NA
ATOM     24  H   UNL     1      42.905   3.307  12.443  0.00  0.00    +0.000 HD
ATOM     25  H   UNL     1      43.292   2.274  11.239  0.00  0.00    +0.000 HD
ENDBRANCH  22  23
ENDBRANCH  16  22
ENDBRANCH  15  19
ENDBRANCH   1  15
TORSDOF 5
ENDMDL
MODEL 4
REMARK VINA RESULT:    -5.454      4.252      6.278
REMARK INTER + INTRA:          -7.562
REMARK INTER:                  -6.917
REMARK INTRA:                  -0.645
REMARK UNBOUND:                -0.673
REMARK  Name = 
REMARK  5 active torsions:
REMARK  status: ('A' for Active; 'I' for Inactive)
REMARK    1  A    between atoms: N_1  and  C_2
REMARK    2  A    between atoms: C_2  and  C_3
REMARK    3  A    between atoms: C_6  and  C_7
REMARK    4  A    between atoms: C_7  and  N_8
REMARK    5  A    between atoms: C_13  and  C_14
REMARK                            x       y       z     vdW  Elec       q    Type
REMARK                         _______ _______ _______ _____ _____    ______ ____
ROOT
ATOM      1  N   UNL     1      48.120   6.939  14.116  0.00  0.00    +0.000 N 
ATOM      2  C   UNL     1      47.682   8.197  13.768  0.00  0.00    +0.000 A 
ATOM      3  C   UNL     1      46.463   8.066  13.143  0.00  0.00    +0.000 A 
ATOM      4  C   UNL     1      46.184   6.680  13.036  0.00  0.00    +0.000 A 
ATOM      5  C   UNL     1      45.135   5.926  12.480  0.00  0.00    +0.000 A 
ATOM      6  C   UNL     1      45.239   4.534  12.518  0.00  0.00    +0.000 A 
ATOM      7  C   UNL     1      46.355   3.974  13.139  0.00  0.00    +0.000 A 
ATOM      8  N   UNL     1      47.376   4.658  13.723  0.00  0.00    +0.000 NA
ATOM      9  C   UNL     1      47.242   5.996  13.629  0.00  0.00    +0.000 A 
ENDROOT
BRANCH   6  10
ATOM     10  C   UNL     1      44.237   3.624  11.909  0.00  0.00    +0.000 C 
ATOM     11  N   UNL     1      43.886   2.488  12.586  0.00  0.00    +0.000 N 
ATOM     12  O   UNL     1      43.716   3.880  10.830  0.00  0.00    +0.000 OA
ATOM     13  H   UNL     1      44.233   2.213  13.490  0.00  0.00    +0.000 HD
ATOM     14  H   UNL     1      43.180   1.902  12.157  0.00  0.00    +0.000 HD
ENDBRANCH   6  10
BRANCH   1  15
ATOM     15  C   UNL     1      49.317   6.677  14.906  0.00  0.00    +0.000 C 
BRANCH  15  19
ATOM     16  C   UNL     1      49.972   4.457  17.906  0.00  0.00    +0.000 C 
ATOM     17  C   UNL     1      48.648   4.552  17.129  0.00  0.00    +0.000 C 
ATOM     18  C   UNL     1      48.109   5.977  17.063  0.00  0.00    +0.000 C 
ATOM     19  C   UNL     1      49.114   6.943  16.420  0.00  0.00    +0.000 C 
ATOM     20  C   UNL     1      50.437   6.898  17.202  0.00  0.00    +0.000 C 
ATOM     21  C   UNL     1      50.995   5.485  17.383  0.00  0.00    +0.000 C 
BRANCH  16  22
ATOM     22  C   UNL     1      49.769   4.578  19.431  0.00  0.00    +0.000 C 
BRANCH  22  23
ATOM     23  N   UNL     1      48.676   3.721  19.886  0.00  0.00    +0.000 NA
ATOM     24  H   UNL     1      48.836   3.430  20.847  0.00  0.00    +0.000 HD
ATOM     25  H   UNL     1      48.649   2.871  19.324  0.00  0.00    +0.000 HD
ENDBRANCH  22  23
ENDBRANCH  16  22
ENDBRANCH  15  19
ENDBRANCH   1  15
TORSDOF 5
ENDMDL
MODEL 5
REMARK VINA RESULT:    -5.315      2.809      4.327
REMARK INTER + INTRA:          -7.386
REMARK INTER:                  -6.794
REMARK INTRA:                  -0.591
REMARK UNBOUND:                -0.673
REMARK  Name = 
REMARK  5 active torsions:
REMARK  status: ('A' for Active; 'I' for Inactive)
REMARK    1  A    between atoms: N_1  and  C_2
REMARK    2  A    between atoms: C_2  and  C_3
REMARK    3  A    between atoms: C_6  and  C_7
REMARK    4  A    between atoms: C_7  and  N_8
REMARK    5  A    between atoms: C_13  and  C_14
REMARK                            x       y       z     vdW  Elec       q    Type
REMARK                         _______ _______ _______ _____ _____    ______ ____
ROOT
ATOM      1  N   UNL     1      47.407   6.171  13.959  0.00  0.00    +0.000 N 
ATOM      2  C   UNL     1      47.489   5.211  14.943  0.00  0.00    +0.000 A 
ATOM      3  C   UNL     1      46.856   4.077  14.486  0.00  0.00    +0.000 A 
ATOM      4  C   UNL     1      46.303   4.379  13.216  0.00  0.00    +0.000 A 
ATOM      5  C   UNL     1      45.533   3.663  12.282  0.00  0.00    +0.000 A 
ATOM      6  C   UNL     1      45.114   4.333  11.130  0.00  0.00    +0.000 A 
ATOM      7  C   UNL     1      45.517   5.656  10.955  0.00  0.00    +0.000 A 
ATOM      8  N   UNL     1      46.291   6.380  11.809  0.00  0.00    +0.000 NA
ATOM      9  C   UNL     1      46.639   5.697  12.918  0.00  0.00    +0.000 A 
ENDROOT
BRANCH   6  10
ATOM     10  C   UNL     1      44.243   3.716  10.099  0.00  0.00    +0.000 C 
ATOM     11  N   UNL     1      43.953   4.433   8.970  0.00  0.00    +0.000 N 
ATOM     12  O   UNL     1      43.797   2.583  10.237  0.00  0.00    +0.000 OA
ATOM     13  H   UNL     1      44.301   5.352   8.755  0.00  0.00    +0.000 HD
ATOM     14  H   UNL     1      43.380   3.974   8.274  0.00  0.00    +0.000 HD
ENDBRANCH   6  10
BRANCH   1  15
ATOM     15  C   UNL     1      48.067   7.470  14.024  0.00  0.00    +0.000 C 
BRANCH  15  19
ATOM     16  C   UNL     1      50.142  10.012  12.130  0.00  0.00    +0.000 C 
ATOM     17  C   UNL     1      49.312   8.880  11.501  0.00  0.00    +0.000 C 
ATOM     18  C   UNL     1      49.697   7.505  12.037  0.00  0.00    +0.000 C 
ATOM     19  C   UNL     1      49.546   7.421  13.563  0.00  0.00    +0.000 C 
ATOM     20  C   UNL     1      50.398   8.519  14.221  0.00  0.00    +0.000 C 
ATOM     21  C   UNL     1      50.127   9.919  13.669  0.00  0.00    +0.000 C 
BRANCH  16  22
ATOM     22  C   UNL     1      51.581  10.066  11.575  0.00  0.00    +0.000 C 
BRANCH  22  23
ATOM     23  N   UNL     1      51.589  10.481  10.173  0.00  0.00    +0.000 NA
ATOM     24  H   UNL     1      50.998  11.300  10.048  0.00  0.00    +0.000 HD
ATOM     25  H   UNL     1      51.191   9.743   9.594  0.00  0.00    +0.000 HD
ENDBRANCH  22  23
ENDBRANCH  16  22
ENDBRANCH  15  19
ENDBRANCH   1  15
TORSDOF 5
ENDMDL
MODEL 6
REMARK VINA RESULT:    -5.285      4.027      5.863
REMARK INTER + INTRA:          -7.349
REMARK INTER:                  -6.923
REMARK INTRA:                  -0.426
REMARK UNBOUND:                -0.673
REMARK  Name = 
REMARK  5 active torsions:
REMARK  status: ('A' for Active; 'I' for Inactive)
REMARK    1  A    between atoms: N_1  and  C_2
REMARK    2  A    between atoms: C_2  and  C_3
REMARK    3  A    between atoms: C_6  and  C_7
REMARK    4  A    between atoms: C_7  and  N_8
REMARK    5  A    between atoms: C_13  and  C_14
REMARK                            x       y       z     vdW  Elec       q    Type
REMARK                         _______ _______ _______ _____ _____    ______ ____
ROOT
ATOM      1  N   UNL     1      47.821   6.152  14.008  0.00  0.00    +0.000 N 
ATOM      2  C   UNL     1      48.444   7.104  13.232  0.00  0.00    +0.000 A 
ATOM      3  C   UNL     1      47.760   7.198  12.042  0.00  0.00    +0.000 A 
ATOM      4  C   UNL     1      46.735   6.219  12.059  0.00  0.00    +0.000 A 
ATOM      5  C   UNL     1      45.748   5.809  11.145  0.00  0.00    +0.000 A 
ATOM      6  C   UNL     1      44.927   4.739  11.505  0.00  0.00    +0.000 A 
ATOM      7  C   UNL     1      45.106   4.167  12.764  0.00  0.00    +0.000 A 
ATOM      8  N   UNL     1      46.019   4.549  13.698  0.00  0.00    +0.000 NA
ATOM      9  C   UNL     1      46.807   5.563  13.286  0.00  0.00    +0.000 A 
ENDROOT
BRANCH   6  10
ATOM     10  C   UNL     1      43.893   4.165  10.608  0.00  0.00    +0.000 C 
ATOM     11  N   UNL     1      43.959   4.441   9.270  0.00  0.00    +0.000 N 
ATOM     12  O   UNL     1      43.000   3.446  11.042  0.00  0.00    +0.000 OA
ATOM     13  H   UNL     1      44.672   4.990   8.820  0.00  0.00    +0.000 HD
ATOM     14  H   UNL     1      43.256   4.013   8.681  0.00  0.00    +0.000 HD
ENDBRANCH   6  10
BRANCH   1  15
ATOM     15  C   UNL     1      48.182   5.856  15.390  0.00  0.00    +0.000 C 
BRANCH  15  19
ATOM     16  C   UNL     1      49.392   6.402  18.939  0.00  0.00    +0.000 C 
ATOM     17  C   UNL     1      48.261   7.180  18.244  0.00  0.00    +0.000 C 
ATOM     18  C   UNL     1      48.715   7.833  16.942  0.00  0.00    +0.000 C 
ATOM     19  C   UNL     1      49.273   6.805  15.948  0.00  0.00    +0.000 C 
ATOM     20  C   UNL     1      50.433   6.038  16.604  0.00  0.00    +0.000 C 
ATOM     21  C   UNL     1      50.075   5.428  17.959  0.00  0.00    +0.000 C 
BRANCH  16  22
ATOM     22  C   UNL     1      50.413   7.334  19.623  0.00  0.00    +0.000 C 
BRANCH  22  23
ATOM     23  N   UNL     1      50.570   6.996  21.036  0.00  0.00    +0.000 NA
ATOM     24  H   UNL     1      50.464   7.829  21.610  0.00  0.00    +0.000 HD
ATOM     25  H   UNL     1      51.512   6.645  21.204  0.00  0.00    +0.000 HD
ENDBRANCH  22  23
ENDBRANCH  16  22
ENDBRANCH  15  19
ENDBRANCH   1  15
TORSDOF 5
ENDMDL
MODEL 7
REMARK VINA RESULT:    -4.752      4.136      7.416
REMARK INTER + INTRA:          -6.674
REMARK INTER:                  -6.223
REMARK INTRA:                  -0.452
REMARK UNBOUND:                -0.673
REMARK  Name = 
REMARK  5 active torsions:
REMARK  status: ('A' for Active; 'I' for Inactive)
REMARK    1  A    between atoms: N_1  and  C_2
REMARK    2  A    between atoms: C_2  and  C_3
REMARK    3  A    between atoms: C_6  and  C_7
REMARK    4  A    between atoms: C_7  and  N_8
REMARK    5  A    between atoms: C_13  and  C_14
REMARK                            x       y       z     vdW  Elec       q    Type
REMARK                         _______ _______ _______ _____ _____    ______ ____
ROOT
ATOM      1  N   UNL     1      47.974   7.577  12.836  0.00  0.00    +0.000 N 
ATOM      2  C   UNL     1      47.385   8.423  13.748  0.00  0.00    +0.000 A 
ATOM      3  C   UNL     1      48.129   9.580  13.798  0.00  0.00    +0.000 A 
ATOM      4  C   UNL     1      49.250   9.404  12.949  0.00  0.00    +0.000 A 
ATOM      5  C   UNL     1      50.364  10.193  12.611  0.00  0.00    +0.000 A 
ATOM      6  C   UNL     1      51.320   9.643  11.755  0.00  0.00    +0.000 A 
ATOM      7  C   UNL     1      51.095   8.361  11.254  0.00  0.00    +0.000 A 
ATOM      8  N   UNL     1      50.018   7.572  11.521  0.00  0.00    +0.000 NA
ATOM      9  C   UNL     1      49.144   8.138  12.377  0.00  0.00    +0.000 A 
ENDROOT
BRANCH   6  10
ATOM     10  C   UNL     1      52.572  10.342  11.372  0.00  0.00    +0.000 C 
ATOM     11  N   UNL     1      53.491   9.673  10.610  0.00  0.00    +0.000 N 
ATOM     12  O   UNL     1      52.785  11.500  11.713  0.00  0.00    +0.000 OA
ATOM     13  H   UNL     1      53.388   8.737  10.255  0.00  0.00    +0.000 HD
ATOM     14  H   UNL     1      54.321  10.187  10.343  0.00  0.00    +0.000 HD
ENDBRANCH   6  10
BRANCH   1  15
ATOM     15  C   UNL     1      47.406   6.300  12.417  0.00  0.00    +0.000 C 
BRANCH  15  19
ATOM     16  C   UNL     1      44.852   3.764  11.232  0.00  0.00    +0.000 C 
ATOM     17  C   UNL     1      45.202   5.086  10.527  0.00  0.00    +0.000 C 
ATOM     18  C   UNL     1      45.030   6.298  11.437  0.00  0.00    +0.000 C 
ATOM     19  C   UNL     1      45.887   6.189  12.706  0.00  0.00    +0.000 C 
ATOM     20  C   UNL     1      45.530   4.894  13.453  0.00  0.00    +0.000 C 
ATOM     21  C   UNL     1      45.595   3.642  12.577  0.00  0.00    +0.000 C 
BRANCH  16  22
ATOM     22  C   UNL     1      43.330   3.571  11.401  0.00  0.00    +0.000 C 
BRANCH  22  23
ATOM     23  N   UNL     1      43.006   2.178  11.699  0.00  0.00    +0.000 NA
ATOM     24  H   UNL     1      42.016   2.087  11.912  0.00  0.00    +0.000 HD
ATOM     25  H   UNL     1      43.512   1.877  12.531  0.00  0.00    +0.000 HD
ENDBRANCH  22  23
ENDBRANCH  16  22
ENDBRANCH  15  19
ENDBRANCH   1  15
TORSDOF 5
ENDMDL
MODEL 8
REMARK VINA RESULT:    -4.630      5.690      8.526
REMARK INTER + INTRA:          -6.521
REMARK INTER:                  -6.067
REMARK INTRA:                  -0.454
REMARK UNBOUND:                -0.673
REMARK  Name = 
REMARK  5 active torsions:
REMARK  status: ('A' for Active; 'I' for Inactive)
REMARK    1  A    between atoms: N_1  and  C_2
REMARK    2  A    between atoms: C_2  and  C_3
REMARK    3  A    between atoms: C_6  and  C_7
REMARK    4  A    between atoms: C_7  and  N_8
REMARK    5  A    between atoms: C_13  and  C_14
REMARK                            x       y       z     vdW  Elec       q    Type
REMARK                         _______ _______ _______ _____ _____    ______ ____
ROOT
ATOM      1  N   UNL     1      47.905   4.496  16.110  0.00  0.00    +0.000 N 
ATOM      2  C   UNL     1      47.529   3.296  16.672  0.00  0.00    +0.000 A 
ATOM      3  C   UNL     1      48.496   2.928  17.579  0.00  0.00    +0.000 A 
ATOM      4  C   UNL     1      49.533   3.893  17.513  0.00  0.00    +0.000 A 
ATOM      5  C   UNL     1      50.775   4.049  18.153  0.00  0.00    +0.000 A 
ATOM      6  C   UNL     1      51.574   5.131  17.776  0.00  0.00    +0.000 A 
ATOM      7  C   UNL     1      51.076   6.014  16.818  0.00  0.00    +0.000 A 
ATOM      8  N   UNL     1      49.868   5.928  16.197  0.00  0.00    +0.000 NA
ATOM      9  C   UNL     1      49.153   4.848  16.573  0.00  0.00    +0.000 A 
ENDROOT
BRANCH   6  10
ATOM     10  C   UNL     1      52.932   5.374  18.323  0.00  0.00    +0.000 C 
ATOM     11  N   UNL     1      54.010   4.863  17.654  0.00  0.00    +0.000 N 
ATOM     12  O   UNL     1      53.099   6.028  19.346  0.00  0.00    +0.000 OA
ATOM     13  H   UNL     1      53.973   4.346  16.791  0.00  0.00    +0.000 HD
ATOM     14  H   UNL     1      54.924   5.070  18.037  0.00  0.00    +0.000 HD
ENDBRANCH   6  10
BRANCH   1  15
ATOM     15  C   UNL     1      47.075   5.267  15.192  0.00  0.00    +0.000 C 
BRANCH  15  19
ATOM     16  C   UNL     1      44.842   5.847  12.186  0.00  0.00    +0.000 C 
ATOM     17  C   UNL     1      44.779   4.636  13.133  0.00  0.00    +0.000 C 
ATOM     18  C   UNL     1      46.114   3.905  13.236  0.00  0.00    +0.000 C 
ATOM     19  C   UNL     1      47.241   4.831  13.714  0.00  0.00    +0.000 C 
ATOM     20  C   UNL     1      47.352   6.032  12.761  0.00  0.00    +0.000 C 
ATOM     21  C   UNL     1      46.028   6.765  12.540  0.00  0.00    +0.000 C 
BRANCH  16  22
ATOM     22  C   UNL     1      44.864   5.432  10.700  0.00  0.00    +0.000 C 
BRANCH  22  23
ATOM     23  N   UNL     1      43.509   5.266  10.180  0.00  0.00    +0.000 NA
ATOM     24  H   UNL     1      43.320   5.967   9.467  0.00  0.00    +0.000 HD
ATOM     25  H   UNL     1      42.833   5.419  10.927  0.00  0.00    +0.000 HD
ENDBRANCH  22  23
ENDBRANCH  16  22
ENDBRANCH  15  19
ENDBRANCH   1  15
TORSDOF 5
ENDMDL
MODEL 9
REMARK VINA RESULT:    -4.528      4.581      8.132
REMARK INTER + INTRA:          -6.391
REMARK INTER:                  -6.048
REMARK INTRA:                  -0.343
REMARK UNBOUND:                -0.673
REMARK  Name = 
REMARK  5 active torsions:
REMARK  status: ('A' for Active; 'I' for Inactive)
REMARK    1  A    between atoms: N_1  and  C_2
REMARK    2  A    between atoms: C_2  and  C_3
REMARK    3  A    between atoms: C_6  and  C_7
REMARK    4  A    between atoms: C_7  and  N_8
REMARK    5  A    between atoms: C_13  and  C_14
REMARK                            x       y       z     vdW  Elec       q    Type
REMARK                         _______ _______ _______ _____ _____    ______ ____
ROOT
ATOM      1  N   UNL     1      47.520   4.756  15.085  0.00  0.00    +0.000 N 
ATOM      2  C   UNL     1      47.134   4.025  16.186  0.00  0.00    +0.000 A 
ATOM      3  C   UNL     1      47.666   4.625  17.304  0.00  0.00    +0.000 A 
ATOM      4  C   UNL     1      48.465   5.712  16.866  0.00  0.00    +0.000 A 
ATOM      5  C   UNL     1      49.273   6.664  17.513  0.00  0.00    +0.000 A 
ATOM      6  C   UNL     1      49.973   7.575  16.720  0.00  0.00    +0.000 A 
ATOM      7  C   UNL     1      49.799   7.513  15.338  0.00  0.00    +0.000 A 
ATOM      8  N   UNL     1      49.003   6.637  14.666  0.00  0.00    +0.000 NA
ATOM      9  C   UNL     1      48.377   5.760  15.477  0.00  0.00    +0.000 A 
ENDROOT
BRANCH   6  10
ATOM     10  C   UNL     1      50.910   8.586  17.270  0.00  0.00    +0.000 C 
ATOM     11  N   UNL     1      51.886   8.173  18.136  0.00  0.00    +0.000 N 
ATOM     12  O   UNL     1      50.830   9.767  16.954  0.00  0.00    +0.000 OA
ATOM     13  H   UNL     1      52.049   7.224  18.425  0.00  0.00    +0.000 HD
ATOM     14  H   UNL     1      52.526   8.882  18.472  0.00  0.00    +0.000 HD
ENDBRANCH   6  10
BRANCH   1  15
ATOM     15  C   UNL     1      47.051   4.503  13.727  0.00  0.00    +0.000 C 
BRANCH  15  19
ATOM     16  C   UNL     1      44.788   5.256  10.782  0.00  0.00    +0.000 C 
ATOM     17  C   UNL     1      45.270   6.274  11.831  0.00  0.00    +0.000 C 
ATOM     18  C   UNL     1      44.918   5.857  13.255  0.00  0.00    +0.000 C 
ATOM     19  C   UNL     1      45.505   4.484  13.613  0.00  0.00    +0.000 C 
ATOM     20  C   UNL     1      45.008   3.437  12.602  0.00  0.00    +0.000 C 
ATOM     21  C   UNL     1      45.249   3.830  11.144  0.00  0.00    +0.000 C 
BRANCH  16  22
ATOM     22  C   UNL     1      43.264   5.323  10.553  0.00  0.00    +0.000 C 
BRANCH  22  23
ATOM     23  N   UNL     1      42.729   6.623  10.951  0.00  0.00    +0.000 NA
ATOM     24  H   UNL     1      41.840   6.503  11.433  0.00  0.00    +0.000 HD
ATOM     25  H   UNL     1      42.539   7.185  10.123  0.00  0.00    +0.000 HD
ENDBRANCH  22  23
ENDBRANCH  16  22
ENDBRANCH  15  19
ENDBRANCH   1  15
TORSDOF 5
ENDMDL
