MODEL 1
REMARK VINA RESULT:    -6.868      0.000      0.000
REMARK INTER + INTRA:         -11.373
REMARK INTER:                 -10.481
REMARK INTRA:                  -0.892
REMARK UNBOUND:                -0.892
REMARK  Name = 
REMARK  10 active torsions:
REMARK  status: ('A' for Active; 'I' for Inactive)
REMARK    1  A    between atoms: C_2  and  C_3
REMARK    2  A    between atoms: C_3  and  N_4
REMARK    3  A    between atoms: C_3  and  C_17
REMARK    4  A    between atoms: N_4  and  C_5
REMARK    5  A    between atoms: C_5  and  C_6
REMARK    6  A    between atoms: C_9  and  C_10
REMARK    7  A    between atoms: C_10  and  C_11
REMARK    8  A    between atoms: C_10  and  C_13
REMARK    9  A    between atoms: C_11  and  O_12
REMARK   10  A    between atoms: C_13  and  O_14
REMARK                            x       y       z     vdW  Elec       q    Type
REMARK                         _______ _______ _______ _____ _____    ______ ____
ROOT
ATOM      1  N   UNL     1      47.339   6.658  11.596  0.00  0.00    +0.000 NA
ATOM      2  H   UNL     1      47.982   6.765  10.814  0.00  0.00    +0.000 HD
ENDROOT
BRANCH   1   3
ATOM      3  C   UNL     1      45.977   7.093  11.172  0.00  0.00    +0.000 C 
BRANCH   3   4
ATOM      4  C   UNL     1      45.046   5.904  11.371  0.00  0.00    +0.000 A 
ATOM      5  C   UNL     1      44.193   5.783  12.463  0.00  0.00    +0.000 A 
ATOM      6  S   UNL     1      43.320   4.320  12.491  0.00  0.00    +0.000 S 
ATOM      7  C   UNL     1      44.031   3.797  11.037  0.00  0.00    +0.000 A 
ATOM      8  N   UNL     1      43.745   2.572  10.520  0.00  0.00    +0.000 NA
ATOM      9  C   UNL     1      44.359   2.299   9.418  0.00  0.00    +0.000 A 
ATOM     10  N   UNL     1      45.214   3.156   8.770  0.00  0.00    +0.000 N 
ATOM     11  C   UNL     1      45.438   4.448   9.197  0.00  0.00    +0.000 A 
ATOM     12  O   UNL     1      46.033   5.270   8.504  0.00  0.00    +0.000 OA
ATOM     13  C   UNL     1      44.873   4.756  10.499  0.00  0.00    +0.000 A 
ATOM     14  H   UNL     1      45.598   2.901   7.871  0.00  0.00    +0.000 HD
ENDBRANCH   3   4
BRANCH   3  16
ATOM     15  N   UNL     1      45.164   9.152  12.639  0.00  0.00    +0.000 NA
ATOM     16  C   UNL     1      45.483   8.241  11.977  0.00  0.00    +0.000 C 
ENDBRANCH   3  16
ENDBRANCH   1   3
BRANCH   1  17
ATOM     17  C   UNL     1      47.834   7.452  12.727  0.00  0.00    +0.000 C 
BRANCH  17  18
ATOM     18  C   UNL     1      48.002   6.625  13.979  0.00  0.00    +0.000 A 
ATOM     19  C   UNL     1      48.780   7.087  15.048  0.00  0.00    +0.000 A 
ATOM     20  C   UNL     1      48.898   6.340  16.226  0.00  0.00    +0.000 A 
ATOM     21  C   UNL     1      48.242   5.107  16.355  0.00  0.00    +0.000 A 
ATOM     22  C   UNL     1      47.431   4.673  15.295  0.00  0.00    +0.000 A 
ATOM     23  C   UNL     1      47.324   5.410  14.117  0.00  0.00    +0.000 A 
BRANCH  21  24
ATOM     24  C   UNL     1      48.410   4.263  17.618  0.00  0.00    +0.000 C 
BRANCH  24  25
ATOM     25  C   UNL     1      47.777   4.951  18.840  0.00  0.00    +0.000 C 
BRANCH  25  26
ATOM     26  O   UNL     1      46.446   5.387  18.575  0.00  0.00    +0.000 OA
ATOM     27  H   UNL     1      46.376   6.303  18.899  0.00  0.00    +0.000 HD
ENDBRANCH  25  26
ENDBRANCH  24  25
BRANCH  24  28
ATOM     28  C   UNL     1      47.850   2.831  17.473  0.00  0.00    +0.000 C 
BRANCH  28  29
ATOM     29  O   UNL     1      46.449   2.789  17.741  0.00  0.00    +0.000 OA
ATOM     30  H   UNL     1      45.986   2.842  16.885  0.00  0.00    +0.000 HD
ENDBRANCH  28  29
ENDBRANCH  24  28
ENDBRANCH  21  24
ENDBRANCH  17  18
ENDBRANCH   1  17
TORSDOF 10
ENDMDL
MODEL 2
REMARK VINA RESULT:    -6.735      4.392      7.989
REMARK INTER + INTRA:         -11.170
REMARK INTER:                 -10.358
REMARK INTRA:                  -0.812
REMARK UNBOUND:                -0.892
REMARK  Name = 
REMARK  10 active torsions:
REMARK  status: ('A' for Active; 'I' for Inactive)
REMARK    1  A    between atoms: C_2  and  C_3
REMARK    2  A    between atoms: C_3  and  N_4
REMARK    3  A    between atoms: C_3  and  C_17
REMARK    4  A    between atoms: N_4  and  C_5
REMARK    5  A    between atoms: C_5  and  C_6
REMARK    6  A    between atoms: C_9  and  C_10
REMARK    7  A    between atoms: C_10  and  C_11
REMARK    8  A    between atoms: C_10  and  C_13
REMARK    9  A    between atoms: C_11  and  O_12
REMARK   10  A    between atoms: C_13  and  O_14
REMARK                            x       y       z     vdW  Elec       q    Type
REMARK                         _______ _______ _______ _____ _____    ______ ____
ROOT
ATOM      1  N   UNL     1      48.111   5.981  16.062  0.00  0.00    +0.000 NA
ATOM      2  H   UNL     1      48.608   6.633  16.665  0.00  0.00    +0.000 HD
ENDROOT
BRANCH   1   3
ATOM      3  C   UNL     1      48.508   4.587  16.418  0.00  0.00    +0.000 C 
BRANCH   3   4
ATOM      4  C   UNL     1      49.628   4.690  17.444  0.00  0.00    +0.000 A 
ATOM      5  C   UNL     1      49.778   5.778  18.299  0.00  0.00    +0.000 A 
ATOM      6  S   UNL     1      51.159   5.683  19.291  0.00  0.00    +0.000 S 
ATOM      7  C   UNL     1      51.603   4.179  18.636  0.00  0.00    +0.000 A 
ATOM      8  N   UNL     1      52.747   3.555  19.028  0.00  0.00    +0.000 NA
ATOM      9  C   UNL     1      52.967   2.425  18.445  0.00  0.00    +0.000 A 
ATOM     10  N   UNL     1      52.129   1.846  17.525  0.00  0.00    +0.000 N 
ATOM     11  C   UNL     1      50.905   2.386  17.190  0.00  0.00    +0.000 A 
ATOM     12  O   UNL     1      50.075   1.764  16.532  0.00  0.00    +0.000 OA
ATOM     13  C   UNL     1      50.673   3.719  17.719  0.00  0.00    +0.000 A 
ATOM     14  H   UNL     1      52.331   0.922  17.170  0.00  0.00    +0.000 HD
ENDBRANCH   3   4
BRANCH   3  16
ATOM     15  N   UNL     1      46.519   3.152  17.436  0.00  0.00    +0.000 NA
ATOM     16  C   UNL     1      47.377   3.819  17.003  0.00  0.00    +0.000 C 
ENDBRANCH   3  16
ENDBRANCH   1   3
BRANCH   1  17
ATOM     17  C   UNL     1      48.428   6.295  14.664  0.00  0.00    +0.000 C 
BRANCH  17  18
ATOM     18  C   UNL     1      47.279   5.991  13.733  0.00  0.00    +0.000 A 
ATOM     19  C   UNL     1      46.822   4.679  13.558  0.00  0.00    +0.000 A 
ATOM     20  C   UNL     1      45.727   4.404  12.730  0.00  0.00    +0.000 A 
ATOM     21  C   UNL     1      45.069   5.441  12.054  0.00  0.00    +0.000 A 
ATOM     22  C   UNL     1      45.508   6.758  12.269  0.00  0.00    +0.000 A 
ATOM     23  C   UNL     1      46.606   7.030  13.083  0.00  0.00    +0.000 A 
BRANCH  21  24
ATOM     24  C   UNL     1      43.907   5.141  11.107  0.00  0.00    +0.000 C 
BRANCH  24  25
ATOM     25  C   UNL     1      43.853   3.648  10.744  0.00  0.00    +0.000 C 
BRANCH  25  26
ATOM     26  O   UNL     1      42.782   2.977  11.404  0.00  0.00    +0.000 OA
ATOM     27  H   UNL     1      41.954   3.298  11.005  0.00  0.00    +0.000 HD
ENDBRANCH  25  26
ENDBRANCH  24  25
BRANCH  24  28
ATOM     28  C   UNL     1      42.539   5.597  11.660  0.00  0.00    +0.000 C 
BRANCH  28  29
ATOM     29  O   UNL     1      42.429   5.340  13.059  0.00  0.00    +0.000 OA
ATOM     30  H   UNL     1      42.198   4.400  13.166  0.00  0.00    +0.000 HD
ENDBRANCH  28  29
ENDBRANCH  24  28
ENDBRANCH  21  24
ENDBRANCH  17  18
ENDBRANCH   1  17
TORSDOF 10
ENDMDL
MODEL 3
REMARK VINA RESULT:    -6.322      4.180      7.760
REMARK INTER + INTRA:         -10.540
REMARK INTER:                  -9.704
REMARK INTRA:                  -0.836
REMARK UNBOUND:                -0.892
REMARK  Name = 
REMARK  10 active torsions:
REMARK  status: ('A' for Active; 'I' for Inactive)
REMARK    1  A    between atoms: C_2  and  C_3
REMARK    2  A    between atoms: C_3  and  N_4
REMARK    3  A    between atoms: C_3  and  C_17
REMARK    4  A    between atoms: N_4  and  C_5
REMARK    5  A    between atoms: C_5  and  C_6
REMARK    6  A    between atoms: C_9  and  C_10
REMARK    7  A    between atoms: C_10  and  C_11
REMARK    8  A    between atoms: C_10  and  C_13
REMARK    9  A    between atoms: C_11  and  O_12
REMARK   10  A    between atoms: C_13  and  O_14
REMARK                            x       y       z     vdW  Elec       q    Type
REMARK                         _______ _______ _______ _____ _____    ______ ____
ROOT
ATOM      1  N   UNL     1      49.154   5.845  15.523  0.00  0.00    +0.000 NA
ATOM      2  H   UNL     1      49.119   4.897  15.154  0.00  0.00    +0.000 HD
ENDROOT
BRANCH   1   3
ATOM      3  C   UNL     1      48.907   5.807  16.993  0.00  0.00    +0.000 C 
BRANCH   3   4
ATOM      4  C   UNL     1      50.123   5.149  17.633  0.00  0.00    +0.000 A 
ATOM      5  C   UNL     1      51.026   5.839  18.435  0.00  0.00    +0.000 A 
ATOM      6  S   UNL     1      52.342   4.891  18.957  0.00  0.00    +0.000 S 
ATOM      7  C   UNL     1      51.750   3.515  18.151  0.00  0.00    +0.000 A 
ATOM      8  N   UNL     1      52.447   2.348  18.156  0.00  0.00    +0.000 NA
ATOM      9  C   UNL     1      51.888   1.387  17.499  0.00  0.00    +0.000 A 
ATOM     10  N   UNL     1      50.677   1.482  16.860  0.00  0.00    +0.000 N 
ATOM     11  C   UNL     1      49.884   2.609  16.930  0.00  0.00    +0.000 A 
ATOM     12  O   UNL     1      48.721   2.614  16.536  0.00  0.00    +0.000 OA
ATOM     13  C   UNL     1      50.527   3.756  17.546  0.00  0.00    +0.000 A 
ATOM     14  H   UNL     1      50.268   0.664  16.431  0.00  0.00    +0.000 HD
ENDBRANCH   3   4
BRANCH   3  16
ATOM     15  N   UNL     1      48.580   8.208  18.079  0.00  0.00    +0.000 NA
ATOM     16  C   UNL     1      48.732   7.169  17.564  0.00  0.00    +0.000 C 
ENDBRANCH   3  16
ENDBRANCH   1   3
BRANCH   1  17
ATOM     17  C   UNL     1      48.154   6.662  14.825  0.00  0.00    +0.000 C 
BRANCH  17  18
ATOM     18  C   UNL     1      47.322   5.851  13.862  0.00  0.00    +0.000 A 
ATOM     19  C   UNL     1      47.030   4.505  14.120  0.00  0.00    +0.000 A 
ATOM     20  C   UNL     1      46.221   3.765  13.248  0.00  0.00    +0.000 A 
ATOM     21  C   UNL     1      45.689   4.361  12.095  0.00  0.00    +0.000 A 
ATOM     22  C   UNL     1      45.952   5.721  11.868  0.00  0.00    +0.000 A 
ATOM     23  C   UNL     1      46.769   6.453  12.728  0.00  0.00    +0.000 A 
BRANCH  21  24
ATOM     24  C   UNL     1      44.848   3.544  11.114  0.00  0.00    +0.000 C 
BRANCH  24  25
ATOM     25  C   UNL     1      43.424   3.321  11.648  0.00  0.00    +0.000 C 
BRANCH  25  26
ATOM     26  O   UNL     1      43.071   1.940  11.664  0.00  0.00    +0.000 OA
ATOM     27  H   UNL     1      43.864   1.446  11.939  0.00  0.00    +0.000 HD
ENDBRANCH  25  26
ENDBRANCH  24  25
BRANCH  24  28
ATOM     28  C   UNL     1      44.789   4.163   9.701  0.00  0.00    +0.000 C 
BRANCH  28  29
ATOM     29  O   UNL     1      43.511   4.742   9.438  0.00  0.00    +0.000 OA
ATOM     30  H   UNL     1      43.236   4.453   8.549  0.00  0.00    +0.000 HD
ENDBRANCH  28  29
ENDBRANCH  24  28
ENDBRANCH  21  24
ENDBRANCH  17  18
ENDBRANCH   1  17
TORSDOF 10
ENDMDL
MODEL 4
REMARK VINA RESULT:    -6.135      3.790      7.578
REMARK INTER + INTRA:         -10.255
REMARK INTER:                  -9.272
REMARK INTRA:                  -0.983
REMARK UNBOUND:                -0.892
REMARK  Name = 
REMARK  10 active torsions:
REMARK  status: ('A' for Active; 'I' for Inactive)
REMARK    1  A    between atoms: C_2  and  C_3
REMARK    2  A    between atoms: C_3  and  N_4
REMARK    3  A    between atoms: C_3  and  C_17
REMARK    4  A    between atoms: N_4  and  C_5
REMARK    5  A    between atoms: C_5  and  C_6
REMARK    6  A    between atoms: C_9  and  C_10
REMARK    7  A    between atoms: C_10  and  C_11
REMARK    8  A    between atoms: C_10  and  C_13
REMARK    9  A    between atoms: C_11  and  O_12
REMARK   10  A    between atoms: C_13  and  O_14
REMARK                            x       y       z     vdW  Elec       q    Type
REMARK                         _______ _______ _______ _____ _____    ______ ____
ROOT
ATOM      1  N   UNL     1      49.036   6.292  14.823  0.00  0.00    +0.000 NA
ATOM      2  H   UNL     1      48.217   5.933  15.310  0.00  0.00    +0.000 HD
ENDROOT
BRANCH   1   3
ATOM      3  C   UNL     1      49.695   7.326  15.672  0.00  0.00    +0.000 C 
BRANCH   3   4
ATOM      4  C   UNL     1      49.033   7.267  17.042  0.00  0.00    +0.000 A 
ATOM      5  C   UNL     1      48.371   8.349  17.613  0.00  0.00    +0.000 A 
ATOM      6  S   UNL     1      47.793   8.047  19.187  0.00  0.00    +0.000 S 
ATOM      7  C   UNL     1      48.385   6.453  19.164  0.00  0.00    +0.000 A 
ATOM      8  N   UNL     1      48.260   5.645  20.251  0.00  0.00    +0.000 NA
ATOM      9  C   UNL     1      48.760   4.465  20.101  0.00  0.00    +0.000 A 
ATOM     10  N   UNL     1      49.349   4.008  18.948  0.00  0.00    +0.000 N 
ATOM     11  C   UNL     1      49.388   4.753  17.787  0.00  0.00    +0.000 A 
ATOM     12  O   UNL     1      49.724   4.266  16.711  0.00  0.00    +0.000 OA
ATOM     13  C   UNL     1      48.957   6.131  17.944  0.00  0.00    +0.000 A 
ATOM     14  H   UNL     1      49.648   3.046  18.881  0.00  0.00    +0.000 HD
ENDBRANCH   3   4
BRANCH   3  16
ATOM     15  N   UNL     1      52.299   6.921  16.003  0.00  0.00    +0.000 NA
ATOM     16  C   UNL     1      51.153   7.076  15.823  0.00  0.00    +0.000 C 
ENDBRANCH   3  16
ENDBRANCH   1   3
BRANCH   1  17
ATOM     17  C   UNL     1      48.615   6.840  13.528  0.00  0.00    +0.000 C 
BRANCH  17  18
ATOM     18  C   UNL     1      47.432   6.103  12.951  0.00  0.00    +0.000 A 
ATOM     19  C   UNL     1      46.859   5.019  13.628  0.00  0.00    +0.000 A 
ATOM     20  C   UNL     1      45.734   4.363  13.113  0.00  0.00    +0.000 A 
ATOM     21  C   UNL     1      45.160   4.780  11.903  0.00  0.00    +0.000 A 
ATOM     22  C   UNL     1      45.715   5.895  11.254  0.00  0.00    +0.000 A 
ATOM     23  C   UNL     1      46.843   6.538  11.759  0.00  0.00    +0.000 A 
BRANCH  21  24
ATOM     24  C   UNL     1      43.963   4.036  11.311  0.00  0.00    +0.000 C 
BRANCH  24  25
ATOM     25  C   UNL     1      44.305   3.428   9.940  0.00  0.00    +0.000 C 
BRANCH  25  26
ATOM     26  O   UNL     1      45.263   2.378  10.047  0.00  0.00    +0.000 OA
ATOM     27  H   UNL     1      45.125   1.953  10.913  0.00  0.00    +0.000 HD
ENDBRANCH  25  26
ENDBRANCH  24  25
BRANCH  24  28
ATOM     28  C   UNL     1      43.402   2.943  12.246  0.00  0.00    +0.000 C 
BRANCH  28  29
ATOM     29  O   UNL     1      43.005   1.784  11.514  0.00  0.00    +0.000 OA
ATOM     30  H   UNL     1      42.911   1.053  12.152  0.00  0.00    +0.000 HD
ENDBRANCH  28  29
ENDBRANCH  24  28
ENDBRANCH  21  24
ENDBRANCH  17  18
ENDBRANCH   1  17
TORSDOF 10
ENDMDL
MODEL 5
REMARK VINA RESULT:    -5.728      3.893      8.084
REMARK INTER + INTRA:          -9.633
REMARK INTER:                  -8.834
REMARK INTRA:                  -0.799
REMARK UNBOUND:                -0.892
REMARK  Name = 
REMARK  10 active torsions:
REMARK  status: ('A' for Active; 'I' for Inactive)
REMARK    1  A    between atoms: C_2  and  C_3
REMARK    2  A    between atoms: C_3  and  N_4
REMARK    3  A    between atoms: C_3  and  C_17
REMARK    4  A    between atoms: N_4  and  C_5
REMARK    5  A    between atoms: C_5  and  C_6
REMARK    6  A    between atoms: C_9  and  C_10
REMARK    7  A    between atoms: C_10  and  C_11
REMARK    8  A    between atoms: C_10  and  C_13
REMARK    9  A    between atoms: C_11  and  O_12
REMARK   10  A    between atoms: C_13  and  O_14
REMARK                            x       y       z     vdW  Elec       q    Type
REMARK                         _______ _______ _______ _____ _____    ______ ____
ROOT
ATOM      1  N   UNL     1      48.058   7.068  15.462  0.00  0.00    +0.000 NA
ATOM      2  H   UNL     1      47.896   8.073  15.432  0.00  0.00    +0.000 HD
ENDROOT
BRANCH   1   3
ATOM      3  C   UNL     1      49.073   6.767  16.513  0.00  0.00    +0.000 C 
BRANCH   3   4
ATOM      4  C   UNL     1      48.600   7.439  17.796  0.00  0.00    +0.000 A 
ATOM      5  C   UNL     1      48.470   6.762  19.004  0.00  0.00    +0.000 A 
ATOM      6  S   UNL     1      47.843   7.723  20.264  0.00  0.00    +0.000 S 
ATOM      7  C   UNL     1      47.736   9.086  19.254  0.00  0.00    +0.000 A 
ATOM      8  N   UNL     1      47.220  10.258  19.712  0.00  0.00    +0.000 NA
ATOM      9  C   UNL     1      47.190  11.208  18.839  0.00  0.00    +0.000 A 
ATOM     10  N   UNL     1      47.659  11.100  17.553  0.00  0.00    +0.000 N 
ATOM     11  C   UNL     1      48.297   9.970  17.086  0.00  0.00    +0.000 A 
ATOM     12  O   UNL     1      48.895   9.955  16.014  0.00  0.00    +0.000 OA
ATOM     13  C   UNL     1      48.237   8.833  17.987  0.00  0.00    +0.000 A 
ATOM     14  H   UNL     1      47.672  11.912  16.952  0.00  0.00    +0.000 HD
ENDBRANCH   3   4
BRANCH   3  16
ATOM     15  N   UNL     1      49.262   4.160  16.977  0.00  0.00    +0.000 NA
ATOM     16  C   UNL     1      49.214   5.306  16.750  0.00  0.00    +0.000 C 
ENDBRANCH   3  16
ENDBRANCH   1   3
BRANCH   1  17
ATOM     17  C   UNL     1      48.501   6.619  14.137  0.00  0.00    +0.000 C 
BRANCH  17  18
ATOM     18  C   UNL     1      47.358   6.111  13.292  0.00  0.00    +0.000 A 
ATOM     19  C   UNL     1      47.031   6.727  12.077  0.00  0.00    +0.000 A 
ATOM     20  C   UNL     1      46.000   6.228  11.273  0.00  0.00    +0.000 A 
ATOM     21  C   UNL     1      45.270   5.099  11.672  0.00  0.00    +0.000 A 
ATOM     22  C   UNL     1      45.633   4.463  12.870  0.00  0.00    +0.000 A 
ATOM     23  C   UNL     1      46.650   4.969  13.677  0.00  0.00    +0.000 A 
BRANCH  21  24
ATOM     24  C   UNL     1      44.109   4.580  10.823  0.00  0.00    +0.000 C 
BRANCH  24  25
ATOM     25  C   UNL     1      44.615   3.741   9.637  0.00  0.00    +0.000 C 
BRANCH  25  26
ATOM     26  O   UNL     1      44.203   4.285   8.386  0.00  0.00    +0.000 OA
ATOM     27  H   UNL     1      43.519   4.952   8.576  0.00  0.00    +0.000 HD
ENDBRANCH  25  26
ENDBRANCH  24  25
BRANCH  24  28
ATOM     28  C   UNL     1      43.074   3.772  11.635  0.00  0.00    +0.000 C 
BRANCH  28  29
ATOM     29  O   UNL     1      43.199   2.371  11.393  0.00  0.00    +0.000 OA
ATOM     30  H   UNL     1      44.078   2.097  11.711  0.00  0.00    +0.000 HD
ENDBRANCH  28  29
ENDBRANCH  24  28
ENDBRANCH  21  24
ENDBRANCH  17  18
ENDBRANCH   1  17
TORSDOF 10
ENDMDL
MODEL 6
REMARK VINA RESULT:    -5.712      3.858      7.925
REMARK INTER + INTRA:          -9.609
REMARK INTER:                  -8.694
REMARK INTRA:                  -0.915
REMARK UNBOUND:                -0.892
REMARK  Name = 
REMARK  10 active torsions:
REMARK  status: ('A' for Active; 'I' for Inactive)
REMARK    1  A    between atoms: C_2  and  C_3
REMARK    2  A    between atoms: C_3  and  N_4
REMARK    3  A    between atoms: C_3  and  C_17
REMARK    4  A    between atoms: N_4  and  C_5
REMARK    5  A    between atoms: C_5  and  C_6
REMARK    6  A    between atoms: C_9  and  C_10
REMARK    7  A    between atoms: C_10  and  C_11
REMARK    8  A    between atoms: C_10  and  C_13
REMARK    9  A    between atoms: C_11  and  O_12
REMARK   10  A    between atoms: C_13  and  O_14
REMARK                            x       y       z     vdW  Elec       q    Type
REMARK                         _______ _______ _______ _____ _____    ______ ____
ROOT
ATOM      1  N   UNL     1      49.005   6.367  14.849  0.00  0.00    +0.000 NA
ATOM      2  H   UNL     1      48.533   5.476  14.992  0.00  0.00    +0.000 HD
ENDROOT
BRANCH   1   3
ATOM      3  C   UNL     1      48.931   7.166  16.106  0.00  0.00    +0.000 C 
BRANCH   3   4
ATOM      4  C   UNL     1      49.372   6.253  17.242  0.00  0.00    +0.000 A 
ATOM      5  C   UNL     1      50.428   5.355  17.129  0.00  0.00    +0.000 A 
ATOM      6  S   UNL     1      50.661   4.393  18.516  0.00  0.00    +0.000 S 
ATOM      7  C   UNL     1      49.375   5.148  19.332  0.00  0.00    +0.000 A 
ATOM      8  N   UNL     1      49.006   4.748  20.578  0.00  0.00    +0.000 NA
ATOM      9  C   UNL     1      48.009   5.400  21.077  0.00  0.00    +0.000 A 
ATOM     10  N   UNL     1      47.366   6.439  20.451  0.00  0.00    +0.000 N 
ATOM     11  C   UNL     1      47.785   6.953  19.241  0.00  0.00    +0.000 A 
ATOM     12  O   UNL     1      47.340   8.006  18.791  0.00  0.00    +0.000 OA
ATOM     13  C   UNL     1      48.816   6.171  18.582  0.00  0.00    +0.000 A 
ATOM     14  H   UNL     1      46.644   6.951  20.937  0.00  0.00    +0.000 HD
ENDBRANCH   3   4
BRANCH   3  16
ATOM     15  N   UNL     1      50.559   9.260  15.970  0.00  0.00    +0.000 NA
ATOM     16  C   UNL     1      49.822   8.356  16.062  0.00  0.00    +0.000 C 
ENDBRANCH   3  16
ENDBRANCH   1   3
BRANCH   1  17
ATOM     17  C   UNL     1      48.368   7.064  13.725  0.00  0.00    +0.000 C 
BRANCH  17  18
ATOM     18  C   UNL     1      47.331   6.212  13.035  0.00  0.00    +0.000 A 
ATOM     19  C   UNL     1      46.805   5.073  13.658  0.00  0.00    +0.000 A 
ATOM     20  C   UNL     1      45.810   4.308  13.037  0.00  0.00    +0.000 A 
ATOM     21  C   UNL     1      45.323   4.669  11.772  0.00  0.00    +0.000 A 
ATOM     22  C   UNL     1      45.825   5.836  11.175  0.00  0.00    +0.000 A 
ATOM     23  C   UNL     1      46.825   6.589  11.787  0.00  0.00    +0.000 A 
BRANCH  21  24
ATOM     24  C   UNL     1      44.274   3.809  11.067  0.00  0.00    +0.000 C 
BRANCH  24  25
ATOM     25  C   UNL     1      44.922   2.862  10.043  0.00  0.00    +0.000 C 
BRANCH  25  26
ATOM     26  O   UNL     1      44.164   2.779   8.840  0.00  0.00    +0.000 OA
ATOM     27  H   UNL     1      44.365   3.577   8.319  0.00  0.00    +0.000 HD
ENDBRANCH  25  26
ENDBRANCH  24  25
BRANCH  24  28
ATOM     28  C   UNL     1      43.391   3.002  12.044  0.00  0.00    +0.000 C 
BRANCH  28  29
ATOM     29  O   UNL     1      43.041   1.730  11.501  0.00  0.00    +0.000 OA
ATOM     30  H   UNL     1      42.187   1.470  11.892  0.00  0.00    +0.000 HD
ENDBRANCH  28  29
ENDBRANCH  24  28
ENDBRANCH  21  24
ENDBRANCH  17  18
ENDBRANCH   1  17
TORSDOF 10
ENDMDL
MODEL 7
REMARK VINA RESULT:    -5.446      4.134      7.563
REMARK INTER + INTRA:          -9.202
REMARK INTER:                  -8.095
REMARK INTRA:                  -1.107
REMARK UNBOUND:                -0.892
REMARK  Name = 
REMARK  10 active torsions:
REMARK  status: ('A' for Active; 'I' for Inactive)
REMARK    1  A    between atoms: C_2  and  C_3
REMARK    2  A    between atoms: C_3  and  N_4
REMARK    3  A    between atoms: C_3  and  C_17
REMARK    4  A    between atoms: N_4  and  C_5
REMARK    5  A    between atoms: C_5  and  C_6
REMARK    6  A    between atoms: C_9  and  C_10
REMARK    7  A    between atoms: C_10  and  C_11
REMARK    8  A    between atoms: C_10  and  C_13
REMARK    9  A    between atoms: C_11  and  O_12
REMARK   10  A    between atoms: C_13  and  O_14
REMARK                            x       y       z     vdW  Elec       q    Type
REMARK                         _______ _______ _______ _____ _____    ______ ____
ROOT
ATOM      1  N   UNL     1      49.916   7.022  13.629  0.00  0.00    +0.000 NA
ATOM      2  H   UNL     1      49.483   6.435  14.339  0.00  0.00    +0.000 HD
ENDROOT
BRANCH   1   3
ATOM      3  C   UNL     1      50.689   8.108  14.297  0.00  0.00    +0.000 C 
BRANCH   3   4
ATOM      4  C   UNL     1      51.628   7.440  15.293  0.00  0.00    +0.000 A 
ATOM      5  C   UNL     1      53.007   7.626  15.280  0.00  0.00    +0.000 A 
ATOM      6  S   UNL     1      53.834   6.700  16.446  0.00  0.00    +0.000 S 
ATOM      7  C   UNL     1      52.386   6.027  17.029  0.00  0.00    +0.000 A 
ATOM      8  N   UNL     1      52.397   5.095  18.019  0.00  0.00    +0.000 NA
ATOM      9  C   UNL     1      51.229   4.662  18.360  0.00  0.00    +0.000 A 
ATOM     10  N   UNL     1      50.047   5.100  17.817  0.00  0.00    +0.000 N 
ATOM     11  C   UNL     1      49.985   6.126  16.897  0.00  0.00    +0.000 A 
ATOM     12  O   UNL     1      48.922   6.650  16.576  0.00  0.00    +0.000 OA
ATOM     13  C   UNL     1      51.276   6.553  16.388  0.00  0.00    +0.000 A 
ATOM     14  H   UNL     1      49.168   4.769  18.190  0.00  0.00    +0.000 HD
ENDBRANCH   3   4
BRANCH   3  16
ATOM     15  N   UNL     1      52.061   9.570  12.555  0.00  0.00    +0.000 NA
ATOM     16  C   UNL     1      51.490   8.901  13.327  0.00  0.00    +0.000 C 
ENDBRANCH   3  16
ENDBRANCH   1   3
BRANCH   1  17
ATOM     17  C   UNL     1      48.866   7.562  12.756  0.00  0.00    +0.000 C 
BRANCH  17  18
ATOM     18  C   UNL     1      47.627   6.700  12.749  0.00  0.00    +0.000 A 
ATOM     19  C   UNL     1      46.603   6.920  11.819  0.00  0.00    +0.000 A 
ATOM     20  C   UNL     1      45.474   6.092  11.784  0.00  0.00    +0.000 A 
ATOM     21  C   UNL     1      45.346   5.026  12.686  0.00  0.00    +0.000 A 
ATOM     22  C   UNL     1      46.398   4.788  13.586  0.00  0.00    +0.000 A 
ATOM     23  C   UNL     1      47.514   5.621  13.630  0.00  0.00    +0.000 A 
BRANCH  21  24
ATOM     24  C   UNL     1      44.093   4.151  12.687  0.00  0.00    +0.000 C 
BRANCH  24  25
ATOM     25  C   UNL     1      42.820   4.998  12.852  0.00  0.00    +0.000 C 
BRANCH  25  26
ATOM     26  O   UNL     1      42.076   5.084  11.640  0.00  0.00    +0.000 OA
ATOM     27  H   UNL     1      42.151   4.219  11.196  0.00  0.00    +0.000 HD
ENDBRANCH  25  26
ENDBRANCH  24  25
BRANCH  24  28
ATOM     28  C   UNL     1      43.972   3.260  11.431  0.00  0.00    +0.000 C 
BRANCH  28  29
ATOM     29  O   UNL     1      42.975   2.253  11.601  0.00  0.00    +0.000 OA
ATOM     30  H   UNL     1      42.978   1.994  12.540  0.00  0.00    +0.000 HD
ENDBRANCH  28  29
ENDBRANCH  24  28
ENDBRANCH  21  24
ENDBRANCH  17  18
ENDBRANCH   1  17
TORSDOF 10
ENDMDL
MODEL 8
REMARK VINA RESULT:    -5.441      3.625      7.351
REMARK INTER + INTRA:          -9.195
REMARK INTER:                  -8.266
REMARK INTRA:                  -0.929
REMARK UNBOUND:                -0.892
REMARK  Name = 
REMARK  10 active torsions:
REMARK  status: ('A' for Active; 'I' for Inactive)
REMARK    1  A    between atoms: C_2  and  C_3
REMARK    2  A    between atoms: C_3  and  N_4
REMARK    3  A    between atoms: C_3  and  C_17
REMARK    4  A    between atoms: N_4  and  C_5
REMARK    5  A    between atoms: C_5  and  C_6
REMARK    6  A    between atoms: C_9  and  C_10
REMARK    7  A    between atoms: C_10  and  C_11
REMARK    8  A    between atoms: C_10  and  C_13
REMARK    9  A    between atoms: C_11  and  O_12
REMARK   10  A    between atoms: C_13  and  O_14
REMARK                            x       y       z     vdW  Elec       q    Type
REMARK                         _______ _______ _______ _____ _____    ______ ____
ROOT
ATOM      1  N   UNL     1      47.163   8.592  14.458  0.00  0.00    +0.000 NA
ATOM      2  H   UNL     1      46.422   9.051  14.985  0.00  0.00    +0.000 HD
ENDROOT
BRANCH   1   3
ATOM      3  C   UNL     1      48.474   9.194  14.834  0.00  0.00    +0.000 C 
BRANCH   3   4
ATOM      4  C   UNL     1      48.720   8.853  16.297  0.00  0.00    +0.000 A 
ATOM      5  C   UNL     1      48.760   9.811  17.305  0.00  0.00    +0.000 A 
ATOM      6  S   UNL     1      49.135   9.176  18.840  0.00  0.00    +0.000 S 
ATOM      7  C   UNL     1      49.241   7.593  18.228  0.00  0.00    +0.000 A 
ATOM      8  N   UNL     1      49.586   6.554  19.034  0.00  0.00    +0.000 NA
ATOM      9  C   UNL     1      49.637   5.409  18.439  0.00  0.00    +0.000 A 
ATOM     10  N   UNL     1      49.344   5.206  17.113  0.00  0.00    +0.000 N 
ATOM     11  C   UNL     1      48.875   6.211  16.292  0.00  0.00    +0.000 A 
ATOM     12  O   UNL     1      48.419   5.981  15.175  0.00  0.00    +0.000 OA
ATOM     13  C   UNL     1      48.926   7.538  16.880  0.00  0.00    +0.000 A 
ATOM     14  H   UNL     1      49.331   4.269  16.737  0.00  0.00    +0.000 HD
ENDBRANCH   3   4
BRANCH   3  16
ATOM     15  N   UNL     1      50.469   8.172  13.410  0.00  0.00    +0.000 NA
ATOM     16  C   UNL     1      49.590   8.656  14.012  0.00  0.00    +0.000 C 
ENDBRANCH   3  16
ENDBRANCH   1   3
BRANCH   1  17
ATOM     17  C   UNL     1      46.887   8.742  13.024  0.00  0.00    +0.000 C 
BRANCH  17  18
ATOM     18  C   UNL     1      46.114   7.574  12.463  0.00  0.00    +0.000 A 
ATOM     19  C   UNL     1      44.808   7.739  11.982  0.00  0.00    +0.000 A 
ATOM     20  C   UNL     1      44.108   6.665  11.421  0.00  0.00    +0.000 A 
ATOM     21  C   UNL     1      44.702   5.397  11.334  0.00  0.00    +0.000 A 
ATOM     22  C   UNL     1      46.025   5.252  11.779  0.00  0.00    +0.000 A 
ATOM     23  C   UNL     1      46.717   6.318  12.351  0.00  0.00    +0.000 A 
BRANCH  21  24
ATOM     24  C   UNL     1      43.923   4.209  10.769  0.00  0.00    +0.000 C 
BRANCH  24  25
ATOM     25  C   UNL     1      44.835   3.280   9.950  0.00  0.00    +0.000 C 
BRANCH  25  26
ATOM     26  O   UNL     1      44.159   2.728   8.824  0.00  0.00    +0.000 OA
ATOM     27  H   UNL     1      43.204   2.766   9.016  0.00  0.00    +0.000 HD
ENDBRANCH  25  26
ENDBRANCH  24  25
BRANCH  24  28
ATOM     28  C   UNL     1      43.182   3.396  11.853  0.00  0.00    +0.000 C 
BRANCH  28  29
ATOM     29  O   UNL     1      43.121   2.011  11.516  0.00  0.00    +0.000 OA
ATOM     30  H   UNL     1      43.641   1.885  10.701  0.00  0.00    +0.000 HD
ENDBRANCH  28  29
ENDBRANCH  24  28
ENDBRANCH  21  24
ENDBRANCH  17  18
ENDBRANCH   1  17
TORSDOF 10
ENDMDL
MODEL 9
REMARK VINA RESULT:    -5.324      4.156      7.773
REMARK INTER + INTRA:          -9.017
REMARK INTER:                  -8.521
REMARK INTRA:                  -0.497
REMARK UNBOUND:                -0.892
REMARK  Name = 
REMARK  10 active torsions:
REMARK  status: ('A' for Active; 'I' for Inactive)
REMARK    1  A    between atoms: C_2  and  C_3
REMARK    2  A    between atoms: C_3  and  N_4
REMARK    3  A    between atoms: C_3  and  C_17
REMARK    4  A    between atoms: N_4  and  C_5
REMARK    5  A    between atoms: C_5  and  C_6
REMARK    6  A    between atoms: C_9  and  C_10
REMARK    7  A    between atoms: C_10  and  C_11
REMARK    8  A    between atoms: C_10  and  C_13
REMARK    9  A    between atoms: C_11  and  O_12
REMARK   10  A    between atoms: C_13  and  O_14
REMARK                            x       y       z     vdW  Elec       q    Type
REMARK                         _______ _______ _______ _____ _____    ______ ____
ROOT
ATOM      1  N   UNL     1      49.445   6.873  14.195  0.00  0.00    +0.000 NA
ATOM      2  H   UNL     1      49.278   5.920  13.876  0.00  0.00    +0.000 HD
ENDROOT
BRANCH   1   3
ATOM      3  C   UNL     1      49.374   6.910  15.684  0.00  0.00    +0.000 C 
BRANCH   3   4
ATOM      4  C   UNL     1      50.759   6.552  16.207  0.00  0.00    +0.000 A 
ATOM      5  C   UNL     1      51.903   7.273  15.881  0.00  0.00    +0.000 A 
ATOM      6  S   UNL     1      53.335   6.615  16.529  0.00  0.00    +0.000 S 
ATOM      7  C   UNL     1      52.485   5.352  17.287  0.00  0.00    +0.000 A 
ATOM      8  N   UNL     1      53.141   4.386  17.982  0.00  0.00    +0.000 NA
ATOM      9  C   UNL     1      52.376   3.484  18.499  0.00  0.00    +0.000 A 
ATOM     10  N   UNL     1      51.006   3.478  18.407  0.00  0.00    +0.000 N 
ATOM     11  C   UNL     1      50.296   4.501  17.813  0.00  0.00    +0.000 A 
ATOM     12  O   UNL     1      49.075   4.594  17.918  0.00  0.00    +0.000 OA
ATOM     13  C   UNL     1      51.116   5.468  17.106  0.00  0.00    +0.000 A 
ATOM     14  H   UNL     1      50.470   2.780  18.903  0.00  0.00    +0.000 HD
ENDBRANCH   3   4
BRANCH   3  16
ATOM     15  N   UNL     1      48.657   9.280  16.643  0.00  0.00    +0.000 NA
ATOM     16  C   UNL     1      48.993   8.255  16.190  0.00  0.00    +0.000 C 
ENDBRANCH   3  16
ENDBRANCH   1   3
BRANCH   1  17
ATOM     17  C   UNL     1      48.449   7.759  13.581  0.00  0.00    +0.000 C 
BRANCH  17  18
ATOM     18  C   UNL     1      47.292   6.994  12.984  0.00  0.00    +0.000 A 
ATOM     19  C   UNL     1      47.065   5.654  13.321  0.00  0.00    +0.000 A 
ATOM     20  C   UNL     1      45.966   4.959  12.801  0.00  0.00    +0.000 A 
ATOM     21  C   UNL     1      45.072   5.594  11.926  0.00  0.00    +0.000 A 
ATOM     22  C   UNL     1      45.285   6.949  11.629  0.00  0.00    +0.000 A 
ATOM     23  C   UNL     1      46.386   7.637  12.135  0.00  0.00    +0.000 A 
BRANCH  21  24
ATOM     24  C   UNL     1      43.901   4.825  11.315  0.00  0.00    +0.000 C 
BRANCH  24  25
ATOM     25  C   UNL     1      44.291   3.372  10.995  0.00  0.00    +0.000 C 
BRANCH  25  26
ATOM     26  O   UNL     1      43.262   2.453  11.352  0.00  0.00    +0.000 OA
ATOM     27  H   UNL     1      42.723   2.881  12.042  0.00  0.00    +0.000 HD
ENDBRANCH  25  26
ENDBRANCH  24  25
BRANCH  24  28
ATOM     28  C   UNL     1      42.633   4.847  12.196  0.00  0.00    +0.000 C 
BRANCH  28  29
ATOM     29  O   UNL     1      42.802   5.693  13.333  0.00  0.00    +0.000 OA
ATOM     30  H   UNL     1      43.260   5.173  14.018  0.00  0.00    +0.000 HD
ENDBRANCH  28  29
ENDBRANCH  24  28
ENDBRANCH  21  24
ENDBRANCH  17  18
ENDBRANCH   1  17
TORSDOF 10
ENDMDL
