MODEL 1
REMARK VINA RESULT:    -6.997      0.000      0.000
REMARK INTER + INTRA:         -11.467
REMARK INTER:                 -10.269
REMARK INTRA:                  -1.198
REMARK UNBOUND:                -1.198
REMARK  Name = 
REMARK  9 active torsions:
REMARK  status: ('A' for Active; 'I' for Inactive)
REMARK    1  A    between atoms: C_1  and  O_2
REMARK    2  A    between atoms: O_2  and  C_3
REMARK    3  A    between atoms: C_10  and  C_11
REMARK    4  A    between atoms: N_13  and  C_14
REMARK    5  A    between atoms: C_14  and  C_15
REMARK    6  A    between atoms: C_18  and  N_19
REMARK    7  A    between atoms: N_19  and  C_20
REMARK    8  A    between atoms: C_20  and  C_21
REMARK    9  A    between atoms: C_21  and  N_22
REMARK                            x       y       z     vdW  Elec       q    Type
REMARK                         _______ _______ _______ _____ _____    ______ ____
ROOT
ATOM      1  C   UNL     1      47.461   8.399  13.615  0.00  0.00    +0.000 C 
ENDROOT
BRANCH   1   2
ATOM      2  C   UNL     1      46.536   7.705  12.655  0.00  0.00    +0.000 A 
ATOM      3  C   UNL     1      47.024   6.733  11.776  0.00  0.00    +0.000 A 
ATOM      4  C   UNL     1      46.149   6.026  10.947  0.00  0.00    +0.000 A 
ATOM      5  C   UNL     1      44.769   6.242  11.011  0.00  0.00    +0.000 A 
ATOM      6  C   UNL     1      44.304   7.303  11.792  0.00  0.00    +0.000 A 
ATOM      7  C   UNL     1      45.175   8.022  12.617  0.00  0.00    +0.000 A 
BRANCH   5   8
ATOM      8  N   UNL     1      43.826   5.483  10.301  0.00  0.00    +0.000 N 
ATOM      9  H   UNL     1      44.019   5.539   9.302  0.00  0.00    +0.000 HD
BRANCH   8  10
ATOM     10  C   UNL     1      43.615   4.089  10.734  0.00  0.00    +0.000 C 
BRANCH  10  11
ATOM     11  C   UNL     1      44.629   3.128  10.058  0.00  0.00    +0.000 C 
BRANCH  11  12
ATOM     12  N   UNL     1      44.333   2.712   8.669  0.00  0.00    +0.000 NA
ATOM     13  C   UNL     1      44.939   1.378   8.409  0.00  0.00    +0.000 C 
ATOM     14  C   UNL     1      46.477   1.398   8.261  0.00  0.00    +0.000 C 
ATOM     15  O   UNL     1      46.901   2.335   7.262  0.00  0.00    +0.000 OA
ATOM     16  C   UNL     1      46.397   3.645   7.540  0.00  0.00    +0.000 C 
ATOM     17  C   UNL     1      44.863   3.637   7.643  0.00  0.00    +0.000 C 
ENDBRANCH  11  12
ENDBRANCH  10  11
ENDBRANCH   8  10
ENDBRANCH   5   8
ENDBRANCH   1   2
BRANCH   1  20
ATOM     18  C   UNL     1      48.982   6.960  14.872  0.00  0.00    +0.000 C 
ATOM     19  O   UNL     1      49.849   7.100  14.012  0.00  0.00    +0.000 OA
ATOM     20  N   UNL     1      47.764   7.570  14.751  0.00  0.00    +0.000 N 
ATOM     21  H   UNL     1      47.035   7.411  15.434  0.00  0.00    +0.000 HD
BRANCH  18  29
ATOM     22  C   UNL     1      47.361   4.261  16.289  0.00  0.00    +0.000 A 
ATOM     23  N   UNL     1      46.903   3.276  17.090  0.00  0.00    +0.000 NA
ATOM     24  C   UNL     1      47.568   3.020  18.219  0.00  0.00    +0.000 A 
ATOM     25  N   UNL     1      48.661   3.634  18.660  0.00  0.00    +0.000 NA
ATOM     26  C   UNL     1      49.078   4.616  17.845  0.00  0.00    +0.000 A 
ATOM     27  S   UNL     1      50.469   5.499  18.252  0.00  0.00    +0.000 S 
ATOM     28  C   UNL     1      50.317   6.466  16.866  0.00  0.00    +0.000 A 
ATOM     29  C   UNL     1      49.220   6.148  16.071  0.00  0.00    +0.000 A 
ATOM     30  C   UNL     1      48.493   5.017  16.646  0.00  0.00    +0.000 A 
BRANCH  22  32
ATOM     31  C   UNL     1      47.117   3.644  14.033  0.00  0.00    +0.000 C 
ATOM     32  O   UNL     1      46.704   4.497  15.099  0.00  0.00    +0.000 OA
ENDBRANCH  22  32
ENDBRANCH  18  29
ENDBRANCH   1  20
TORSDOF 8
ENDMDL
MODEL 2
REMARK VINA RESULT:    -6.667      2.105      2.588
REMARK INTER + INTRA:         -10.983
REMARK INTER:                  -9.955
REMARK INTRA:                  -1.028
REMARK UNBOUND:                -1.198
REMARK  Name = 
REMARK  9 active torsions:
REMARK  status: ('A' for Active; 'I' for Inactive)
REMARK    1  A    between atoms: C_1  and  O_2
REMARK    2  A    between atoms: O_2  and  C_3
REMARK    3  A    between atoms: C_10  and  C_11
REMARK    4  A    between atoms: N_13  and  C_14
REMARK    5  A    between atoms: C_14  and  C_15
REMARK    6  A    between atoms: C_18  and  N_19
REMARK    7  A    between atoms: N_19  and  C_20
REMARK    8  A    between atoms: C_20  and  C_21
REMARK    9  A    between atoms: C_21  and  N_22
REMARK                            x       y       z     vdW  Elec       q    Type
REMARK                         _______ _______ _______ _____ _____    ______ ____
ROOT
ATOM      1  C   UNL     1      48.741   7.643  15.369  0.00  0.00    +0.000 C 
ENDROOT
BRANCH   1   2
ATOM      2  C   UNL     1      48.040   7.086  14.162  0.00  0.00    +0.000 A 
ATOM      3  C   UNL     1      47.520   5.788  14.180  0.00  0.00    +0.000 A 
ATOM      4  C   UNL     1      46.791   5.304  13.091  0.00  0.00    +0.000 A 
ATOM      5  C   UNL     1      46.528   6.118  11.984  0.00  0.00    +0.000 A 
ATOM      6  C   UNL     1      47.161   7.362  11.918  0.00  0.00    +0.000 A 
ATOM      7  C   UNL     1      47.900   7.849  12.999  0.00  0.00    +0.000 A 
BRANCH   5   8
ATOM      8  N   UNL     1      45.701   5.740  10.915  0.00  0.00    +0.000 N 
ATOM      9  H   UNL     1      46.271   5.493  10.108  0.00  0.00    +0.000 HD
BRANCH   8  10
ATOM     10  C   UNL     1      44.672   4.718  11.185  0.00  0.00    +0.000 C 
BRANCH  10  11
ATOM     11  C   UNL     1      45.047   3.357  10.540  0.00  0.00    +0.000 C 
BRANCH  11  12
ATOM     12  N   UNL     1      44.350   2.995   9.286  0.00  0.00    +0.000 NA
ATOM     13  C   UNL     1      44.711   1.605   8.898  0.00  0.00    +0.000 C 
ATOM     14  C   UNL     1      46.147   1.453   8.349  0.00  0.00    +0.000 C 
ATOM     15  O   UNL     1      46.395   2.348   7.257  0.00  0.00    +0.000 OA
ATOM     16  C   UNL     1      46.133   3.704   7.637  0.00  0.00    +0.000 C 
ATOM     17  C   UNL     1      44.690   3.868   8.141  0.00  0.00    +0.000 C 
ENDBRANCH  11  12
ENDBRANCH  10  11
ENDBRANCH   8  10
ENDBRANCH   5   8
ENDBRANCH   1   2
BRANCH   1  20
ATOM     18  C   UNL     1      49.702   6.140  17.036  0.00  0.00    +0.000 C 
ATOM     19  O   UNL     1      48.730   6.308  17.770  0.00  0.00    +0.000 OA
ATOM     20  N   UNL     1      49.788   6.769  15.825  0.00  0.00    +0.000 N 
ATOM     21  H   UNL     1      50.613   6.670  15.248  0.00  0.00    +0.000 HD
BRANCH  18  29
ATOM     22  C   UNL     1      50.133   2.715  16.970  0.00  0.00    +0.000 A 
ATOM     23  N   UNL     1      50.544   1.440  17.128  0.00  0.00    +0.000 NA
ATOM     24  C   UNL     1      51.745   1.226  17.671  0.00  0.00    +0.000 A 
ATOM     25  N   UNL     1      52.611   2.145  18.083  0.00  0.00    +0.000 NA
ATOM     26  C   UNL     1      52.163   3.400  17.923  0.00  0.00    +0.000 A 
ATOM     27  S   UNL     1      53.148   4.701  18.387  0.00  0.00    +0.000 S 
ATOM     28  C   UNL     1      51.962   5.825  17.928  0.00  0.00    +0.000 A 
ATOM     29  C   UNL     1      50.803   5.248  17.419  0.00  0.00    +0.000 A 
ATOM     30  C   UNL     1      50.936   3.792  17.389  0.00  0.00    +0.000 A 
BRANCH  22  32
ATOM     31  C   UNL     1      47.810   2.916  17.269  0.00  0.00    +0.000 C 
ATOM     32  O   UNL     1      48.913   2.942  16.366  0.00  0.00    +0.000 OA
ENDBRANCH  22  32
ENDBRANCH  18  29
ENDBRANCH   1  20
TORSDOF 8
ENDMDL
MODEL 3
REMARK VINA RESULT:    -6.448      2.209      3.508
REMARK INTER + INTRA:         -10.661
REMARK INTER:                  -9.543
REMARK INTRA:                  -1.118
REMARK UNBOUND:                -1.198
REMARK  Name = 
REMARK  9 active torsions:
REMARK  status: ('A' for Active; 'I' for Inactive)
REMARK    1  A    between atoms: C_1  and  O_2
REMARK    2  A    between atoms: O_2  and  C_3
REMARK    3  A    between atoms: C_10  and  C_11
REMARK    4  A    between atoms: N_13  and  C_14
REMARK    5  A    between atoms: C_14  and  C_15
REMARK    6  A    between atoms: C_18  and  N_19
REMARK    7  A    between atoms: N_19  and  C_20
REMARK    8  A    between atoms: C_20  and  C_21
REMARK    9  A    between atoms: C_21  and  N_22
REMARK                            x       y       z     vdW  Elec       q    Type
REMARK                         _______ _______ _______ _____ _____    ______ ____
ROOT
ATOM      1  C   UNL     1      47.373   3.454  14.954  0.00  0.00    +0.000 C 
ENDROOT
BRANCH   1   2
ATOM      2  C   UNL     1      46.767   4.157  13.771  0.00  0.00    +0.000 A 
ATOM      3  C   UNL     1      47.186   5.445  13.420  0.00  0.00    +0.000 A 
ATOM      4  C   UNL     1      46.688   6.060  12.269  0.00  0.00    +0.000 A 
ATOM      5  C   UNL     1      45.800   5.389  11.423  0.00  0.00    +0.000 A 
ATOM      6  C   UNL     1      45.287   4.161  11.850  0.00  0.00    +0.000 A 
ATOM      7  C   UNL     1      45.773   3.543  13.005  0.00  0.00    +0.000 A 
BRANCH   5   8
ATOM      8  N   UNL     1      45.359   5.897  10.192  0.00  0.00    +0.000 N 
ATOM      9  H   UNL     1      46.066   6.517   9.800  0.00  0.00    +0.000 HD
BRANCH   8  10
ATOM     10  C   UNL     1      44.877   4.925   9.192  0.00  0.00    +0.000 C 
BRANCH  10  11
ATOM     11  C   UNL     1      46.042   4.400   8.310  0.00  0.00    +0.000 C 
BRANCH  11  12
ATOM     12  N   UNL     1      45.675   3.564   7.145  0.00  0.00    +0.000 NA
ATOM     13  C   UNL     1      45.227   2.225   7.614  0.00  0.00    +0.000 C 
ATOM     14  C   UNL     1      46.368   1.318   8.127  0.00  0.00    +0.000 C 
ATOM     15  O   UNL     1      47.410   1.175   7.153  0.00  0.00    +0.000 OA
ATOM     16  C   UNL     1      47.914   2.454   6.750  0.00  0.00    +0.000 C 
ATOM     17  C   UNL     1      46.789   3.342   6.197  0.00  0.00    +0.000 C 
ENDBRANCH  11  12
ENDBRANCH  10  11
ENDBRANCH   8  10
ENDBRANCH   5   8
ENDBRANCH   1   2
BRANCH   1  20
ATOM     18  C   UNL     1      47.389   4.223  17.271  0.00  0.00    +0.000 C 
ATOM     19  O   UNL     1      46.673   3.281  17.605  0.00  0.00    +0.000 OA
ATOM     20  N   UNL     1      47.782   4.384  15.971  0.00  0.00    +0.000 N 
ATOM     21  H   UNL     1      48.328   5.189  15.691  0.00  0.00    +0.000 HD
BRANCH  18  29
ATOM     22  C   UNL     1      50.518   5.378  18.166  0.00  0.00    +0.000 A 
ATOM     23  N   UNL     1      51.588   5.943  18.761  0.00  0.00    +0.000 NA
ATOM     24  C   UNL     1      51.375   6.792  19.771  0.00  0.00    +0.000 A 
ATOM     25  N   UNL     1      50.200   7.159  20.271  0.00  0.00    +0.000 NA
ATOM     26  C   UNL     1      49.161   6.566  19.663  0.00  0.00    +0.000 A 
ATOM     27  S   UNL     1      47.582   6.930  20.170  0.00  0.00    +0.000 S 
ATOM     28  C   UNL     1      46.919   5.858  19.034  0.00  0.00    +0.000 A 
ATOM     29  C   UNL     1      47.867   5.204  18.253  0.00  0.00    +0.000 A 
ATOM     30  C   UNL     1      49.212   5.652  18.612  0.00  0.00    +0.000 A 
BRANCH  22  32
ATOM     31  C   UNL     1      50.961   3.179  17.462  0.00  0.00    +0.000 C 
ATOM     32  O   UNL     1      50.732   4.537  17.092  0.00  0.00    +0.000 OA
ENDBRANCH  22  32
ENDBRANCH  18  29
ENDBRANCH   1  20
TORSDOF 8
ENDMDL
MODEL 4
REMARK VINA RESULT:    -6.360      1.358      1.815
REMARK INTER + INTRA:         -10.532
REMARK INTER:                  -9.478
REMARK INTRA:                  -1.054
REMARK UNBOUND:                -1.198
REMARK  Name = 
REMARK  9 active torsions:
REMARK  status: ('A' for Active; 'I' for Inactive)
REMARK    1  A    between atoms: C_1  and  O_2
REMARK    2  A    between atoms: O_2  and  C_3
REMARK    3  A    between atoms: C_10  and  C_11
REMARK    4  A    between atoms: N_13  and  C_14
REMARK    5  A    between atoms: C_14  and  C_15
REMARK    6  A    between atoms: C_18  and  N_19
REMARK    7  A    between atoms: N_19  and  C_20
REMARK    8  A    between atoms: C_20  and  C_21
REMARK    9  A    between atoms: C_21  and  N_22
REMARK                            x       y       z     vdW  Elec       q    Type
REMARK                         _______ _______ _______ _____ _____    ______ ____
ROOT
ATOM      1  C   UNL     1      48.804   8.471  13.830  0.00  0.00    +0.000 C 
ENDROOT
BRANCH   1   2
ATOM      2  C   UNL     1      47.561   8.231  13.020  0.00  0.00    +0.000 A 
ATOM      3  C   UNL     1      47.507   7.183  12.095  0.00  0.00    +0.000 A 
ATOM      4  C   UNL     1      46.322   6.906  11.409  0.00  0.00    +0.000 A 
ATOM      5  C   UNL     1      45.157   7.637  11.665  0.00  0.00    +0.000 A 
ATOM      6  C   UNL     1      45.254   8.762  12.488  0.00  0.00    +0.000 A 
ATOM      7  C   UNL     1      46.439   9.051  13.170  0.00  0.00    +0.000 A 
BRANCH   5   8
ATOM      8  N   UNL     1      43.906   7.333  11.106  0.00  0.00    +0.000 N 
ATOM      9  H   UNL     1      43.950   7.422  10.092  0.00  0.00    +0.000 HD
BRANCH   8  10
ATOM     10  C   UNL     1      43.275   6.063  11.511  0.00  0.00    +0.000 C 
BRANCH  10  11
ATOM     11  C   UNL     1      43.523   4.950  10.459  0.00  0.00    +0.000 C 
BRANCH  11  12
ATOM     12  N   UNL     1      44.888   4.381  10.395  0.00  0.00    +0.000 NA
ATOM     13  C   UNL     1      45.427   4.533   9.016  0.00  0.00    +0.000 C 
ATOM     14  C   UNL     1      44.792   3.580   7.979  0.00  0.00    +0.000 C 
ATOM     15  O   UNL     1      44.880   2.211   8.394  0.00  0.00    +0.000 OA
ATOM     16  C   UNL     1      44.290   2.027   9.686  0.00  0.00    +0.000 C 
ATOM     17  C   UNL     1      44.951   2.942  10.730  0.00  0.00    +0.000 C 
ENDBRANCH  11  12
ENDBRANCH  10  11
ENDBRANCH   8  10
ENDBRANCH   5   8
ENDBRANCH   1   2
BRANCH   1  20
ATOM     18  C   UNL     1      48.788   7.633  16.123  0.00  0.00    +0.000 C 
ATOM     19  O   UNL     1      48.392   8.722  16.535  0.00  0.00    +0.000 OA
ATOM     20  N   UNL     1      49.020   7.424  14.792  0.00  0.00    +0.000 N 
ATOM     21  H   UNL     1      49.395   6.544  14.464  0.00  0.00    +0.000 HD
BRANCH  18  29
ATOM     22  C   UNL     1      47.528   4.424  16.317  0.00  0.00    +0.000 A 
ATOM     23  N   UNL     1      47.161   3.177  16.677  0.00  0.00    +0.000 NA
ATOM     24  C   UNL     1      47.705   2.651  17.777  0.00  0.00    +0.000 A 
ATOM     25  N   UNL     1      48.594   3.224  18.581  0.00  0.00    +0.000 NA
ATOM     26  C   UNL     1      48.925   4.467  18.199  0.00  0.00    +0.000 A 
ATOM     27  S   UNL     1      50.059   5.343  19.109  0.00  0.00    +0.000 S 
ATOM     28  C   UNL     1      49.915   6.687  18.082  0.00  0.00    +0.000 A 
ATOM     29  C   UNL     1      49.013   6.507  17.038  0.00  0.00    +0.000 A 
ATOM     30  C   UNL     1      48.440   5.163  17.092  0.00  0.00    +0.000 A 
BRANCH  22  32
ATOM     31  C   UNL     1      46.987   4.038  14.061  0.00  0.00    +0.000 C 
ATOM     32  O   UNL     1      47.003   4.953  15.155  0.00  0.00    +0.000 OA
ENDBRANCH  22  32
ENDBRANCH  18  29
ENDBRANCH   1  20
TORSDOF 8
ENDMDL
MODEL 5
REMARK VINA RESULT:    -6.281      2.664      3.394
REMARK INTER + INTRA:         -10.416
REMARK INTER:                  -9.286
REMARK INTRA:                  -1.130
REMARK UNBOUND:                -1.198
REMARK  Name = 
REMARK  9 active torsions:
REMARK  status: ('A' for Active; 'I' for Inactive)
REMARK    1  A    between atoms: C_1  and  O_2
REMARK    2  A    between atoms: O_2  and  C_3
REMARK    3  A    between atoms: C_10  and  C_11
REMARK    4  A    between atoms: N_13  and  C_14
REMARK    5  A    between atoms: C_14  and  C_15
REMARK    6  A    between atoms: C_18  and  N_19
REMARK    7  A    between atoms: N_19  and  C_20
REMARK    8  A    between atoms: C_20  and  C_21
REMARK    9  A    between atoms: C_21  and  N_22
REMARK                            x       y       z     vdW  Elec       q    Type
REMARK                         _______ _______ _______ _____ _____    ______ ____
ROOT
ATOM      1  C   UNL     1      48.777   6.962  14.372  0.00  0.00    +0.000 C 
ENDROOT
BRANCH   1   2
ATOM      2  C   UNL     1      47.697   6.399  13.491  0.00  0.00    +0.000 A 
ATOM      3  C   UNL     1      46.944   5.296  13.908  0.00  0.00    +0.000 A 
ATOM      4  C   UNL     1      45.882   4.830  13.129  0.00  0.00    +0.000 A 
ATOM      5  C   UNL     1      45.523   5.481  11.944  0.00  0.00    +0.000 A 
ATOM      6  C   UNL     1      46.359   6.495  11.470  0.00  0.00    +0.000 A 
ATOM      7  C   UNL     1      47.429   6.960  12.239  0.00  0.00    +0.000 A 
BRANCH   5   8
ATOM      8  N   UNL     1      44.395   5.144  11.179  0.00  0.00    +0.000 N 
ATOM      9  H   UNL     1      44.466   5.565  10.254  0.00  0.00    +0.000 HD
BRANCH   8  10
ATOM     10  C   UNL     1      44.035   3.715  11.098  0.00  0.00    +0.000 C 
BRANCH  10  11
ATOM     11  C   UNL     1      45.007   2.941  10.168  0.00  0.00    +0.000 C 
BRANCH  11  12
ATOM     12  N   UNL     1      44.506   2.587   8.822  0.00  0.00    +0.000 NA
ATOM     13  C   UNL     1      45.105   1.295   8.391  0.00  0.00    +0.000 C 
ATOM     14  C   UNL     1      46.598   1.386   8.004  0.00  0.00    +0.000 C 
ATOM     15  O   UNL     1      46.826   2.390   7.007  0.00  0.00    +0.000 OA
ATOM     16  C   UNL     1      46.331   3.663   7.438  0.00  0.00    +0.000 C 
ATOM     17  C   UNL     1      44.834   3.586   7.781  0.00  0.00    +0.000 C 
ENDBRANCH  11  12
ENDBRANCH  10  11
ENDBRANCH   8  10
ENDBRANCH   5   8
ENDBRANCH   1   2
BRANCH   1  20
ATOM     18  C   UNL     1      49.036   6.439  16.743  0.00  0.00    +0.000 C 
ATOM     19  O   UNL     1      50.041   5.773  16.502  0.00  0.00    +0.000 OA
ATOM     20  N   UNL     1      48.346   7.063  15.740  0.00  0.00    +0.000 N 
ATOM     21  H   UNL     1      47.490   7.566  15.936  0.00  0.00    +0.000 HD
BRANCH  18  29
ATOM     22  C   UNL     1      47.686   9.097  18.486  0.00  0.00    +0.000 A 
ATOM     23  N   UNL     1      47.215   9.955  19.414  0.00  0.00    +0.000 NA
ATOM     24  C   UNL     1      47.022   9.500  20.655  0.00  0.00    +0.000 A 
ATOM     25  N   UNL     1      47.241   8.267  21.097  0.00  0.00    +0.000 NA
ATOM     26  C   UNL     1      47.722   7.446  20.150  0.00  0.00    +0.000 A 
ATOM     27  S   UNL     1      48.049   5.827  20.540  0.00  0.00    +0.000 S 
ATOM     28  C   UNL     1      48.594   5.508  18.965  0.00  0.00    +0.000 A 
ATOM     29  C   UNL     1      48.543   6.608  18.116  0.00  0.00    +0.000 A 
ATOM     30  C   UNL     1      47.992   7.764  18.820  0.00  0.00    +0.000 A 
BRANCH  22  32
ATOM     31  C   UNL     1      49.048  10.283  16.980  0.00  0.00    +0.000 C 
ATOM     32  O   UNL     1      47.842   9.551  17.192  0.00  0.00    +0.000 OA
ENDBRANCH  22  32
ENDBRANCH  18  29
ENDBRANCH   1  20
TORSDOF 8
ENDMDL
MODEL 6
REMARK VINA RESULT:    -6.270      1.690      2.117
REMARK INTER + INTRA:         -10.399
REMARK INTER:                  -9.463
REMARK INTRA:                  -0.936
REMARK UNBOUND:                -1.198
REMARK  Name = 
REMARK  9 active torsions:
REMARK  status: ('A' for Active; 'I' for Inactive)
REMARK    1  A    between atoms: C_1  and  O_2
REMARK    2  A    between atoms: O_2  and  C_3
REMARK    3  A    between atoms: C_10  and  C_11
REMARK    4  A    between atoms: N_13  and  C_14
REMARK    5  A    between atoms: C_14  and  C_15
REMARK    6  A    between atoms: C_18  and  N_19
REMARK    7  A    between atoms: N_19  and  C_20
REMARK    8  A    between atoms: C_20  and  C_21
REMARK    9  A    between atoms: C_21  and  N_22
REMARK                            x       y       z     vdW  Elec       q    Type
REMARK                         _______ _______ _______ _____ _____    ______ ____
ROOT
ATOM      1  C   UNL     1      47.938   7.560  13.725  0.00  0.00    +0.000 C 
ENDROOT
BRANCH   1   2
ATOM      2  C   UNL     1      46.947   6.484  13.379  0.00  0.00    +0.000 A 
ATOM      3  C   UNL     1      47.266   5.136  13.572  0.00  0.00    +0.000 A 
ATOM      4  C   UNL     1      46.311   4.143  13.335  0.00  0.00    +0.000 A 
ATOM      5  C   UNL     1      45.010   4.478  12.946  0.00  0.00    +0.000 A 
ATOM      6  C   UNL     1      44.740   5.811  12.629  0.00  0.00    +0.000 A 
ATOM      7  C   UNL     1      45.693   6.809  12.854  0.00  0.00    +0.000 A 
BRANCH   5   8
ATOM      8  N   UNL     1      43.971   3.544  12.812  0.00  0.00    +0.000 N 
ATOM      9  H   UNL     1      43.230   3.753  13.480  0.00  0.00    +0.000 HD
BRANCH   8  10
ATOM     10  C   UNL     1      43.432   3.321  11.457  0.00  0.00    +0.000 C 
BRANCH  10  11
ATOM     11  C   UNL     1      44.567   3.035  10.439  0.00  0.00    +0.000 C 
BRANCH  11  12
ATOM     12  N   UNL     1      44.160   2.770   9.040  0.00  0.00    +0.000 NA
ATOM     13  C   UNL     1      44.742   1.477   8.589  0.00  0.00    +0.000 C 
ATOM     14  C   UNL     1      46.263   1.524   8.323  0.00  0.00    +0.000 C 
ATOM     15  O   UNL     1      46.608   2.567   7.402  0.00  0.00    +0.000 OA
ATOM     16  C   UNL     1      46.129   3.836   7.861  0.00  0.00    +0.000 C 
ATOM     17  C   UNL     1      44.608   3.805   8.083  0.00  0.00    +0.000 C 
ENDBRANCH  11  12
ENDBRANCH  10  11
ENDBRANCH   8  10
ENDBRANCH   5   8
ENDBRANCH   1   2
BRANCH   1  20
ATOM     18  C   UNL     1      49.503   7.250  15.574  0.00  0.00    +0.000 C 
ATOM     19  O   UNL     1      50.399   6.954  14.787  0.00  0.00    +0.000 OA
ATOM     20  N   UNL     1      48.248   7.563  15.129  0.00  0.00    +0.000 N 
ATOM     21  H   UNL     1      47.500   7.755  15.783  0.00  0.00    +0.000 HD
BRANCH  18  29
ATOM     22  C   UNL     1      49.320   4.907  18.103  0.00  0.00    +0.000 A 
ATOM     23  N   UNL     1      49.261   4.241  19.276  0.00  0.00    +0.000 NA
ATOM     24  C   UNL     1      49.536   4.912  20.397  0.00  0.00    +0.000 A 
ATOM     25  N   UNL     1      49.874   6.193  20.500  0.00  0.00    +0.000 NA
ATOM     26  C   UNL     1      49.909   6.825  19.316  0.00  0.00    +0.000 A 
ATOM     27  S   UNL     1      50.334   8.467  19.262  0.00  0.00    +0.000 S 
ATOM     28  C   UNL     1      50.134   8.512  17.577  0.00  0.00    +0.000 A 
ATOM     29  C   UNL     1      49.743   7.297  17.022  0.00  0.00    +0.000 A 
ATOM     30  C   UNL     1      49.637   6.277  18.063  0.00  0.00    +0.000 A 
BRANCH  22  32
ATOM     31  C   UNL     1      47.794   3.597  16.886  0.00  0.00    +0.000 C 
ATOM     32  O   UNL     1      49.082   4.206  16.938  0.00  0.00    +0.000 OA
ENDBRANCH  22  32
ENDBRANCH  18  29
ENDBRANCH   1  20
TORSDOF 8
ENDMDL
MODEL 7
REMARK VINA RESULT:    -6.234      3.195      8.697
REMARK INTER + INTRA:         -10.347
REMARK INTER:                  -9.122
REMARK INTRA:                  -1.225
REMARK UNBOUND:                -1.198
REMARK  Name = 
REMARK  9 active torsions:
REMARK  status: ('A' for Active; 'I' for Inactive)
REMARK    1  A    between atoms: C_1  and  O_2
REMARK    2  A    between atoms: O_2  and  C_3
REMARK    3  A    between atoms: C_10  and  C_11
REMARK    4  A    between atoms: N_13  and  C_14
REMARK    5  A    between atoms: C_14  and  C_15
REMARK    6  A    between atoms: C_18  and  N_19
REMARK    7  A    between atoms: N_19  and  C_20
REMARK    8  A    between atoms: C_20  and  C_21
REMARK    9  A    between atoms: C_21  and  N_22
REMARK                            x       y       z     vdW  Elec       q    Type
REMARK                         _______ _______ _______ _____ _____    ______ ____
ROOT
ATOM      1  C   UNL     1      47.290   3.260  16.778  0.00  0.00    +0.000 C 
ENDROOT
BRANCH   1   2
ATOM      2  C   UNL     1      48.742   3.236  17.164  0.00  0.00    +0.000 A 
ATOM      3  C   UNL     1      49.518   2.095  16.938  0.00  0.00    +0.000 A 
ATOM      4  C   UNL     1      50.888   2.106  17.214  0.00  0.00    +0.000 A 
ATOM      5  C   UNL     1      51.517   3.266  17.677  0.00  0.00    +0.000 A 
ATOM      6  C   UNL     1      50.715   4.355  18.025  0.00  0.00    +0.000 A 
ATOM      7  C   UNL     1      49.343   4.349  17.761  0.00  0.00    +0.000 A 
BRANCH   5   8
ATOM      8  N   UNL     1      52.905   3.383  17.856  0.00  0.00    +0.000 N 
ATOM      9  H   UNL     1      53.389   3.058  17.021  0.00  0.00    +0.000 HD
BRANCH   8  10
ATOM     10  C   UNL     1      53.421   4.689  18.307  0.00  0.00    +0.000 C 
BRANCH  10  11
ATOM     11  C   UNL     1      54.165   5.427  17.163  0.00  0.00    +0.000 C 
BRANCH  11  12
ATOM     12  N   UNL     1      54.142   6.907  17.194  0.00  0.00    +0.000 NA
ATOM     13  C   UNL     1      52.733   7.383  17.179  0.00  0.00    +0.000 C 
ATOM     14  C   UNL     1      52.024   7.225  15.816  0.00  0.00    +0.000 C 
ATOM     15  O   UNL     1      52.764   7.848  14.758  0.00  0.00    +0.000 OA
ATOM     16  C   UNL     1      54.102   7.341  14.701  0.00  0.00    +0.000 C 
ATOM     17  C   UNL     1      54.825   7.538  16.043  0.00  0.00    +0.000 C 
ENDBRANCH  11  12
ENDBRANCH  10  11
ENDBRANCH   8  10
ENDBRANCH   5   8
ENDBRANCH   1   2
BRANCH   1  20
ATOM     18  C   UNL     1      46.972   4.190  14.544  0.00  0.00    +0.000 C 
ATOM     19  O   UNL     1      47.210   3.095  14.037  0.00  0.00    +0.000 OA
ATOM     20  N   UNL     1      46.993   4.359  15.900  0.00  0.00    +0.000 N 
ATOM     21  H   UNL     1      46.848   5.273  16.310  0.00  0.00    +0.000 HD
BRANCH  18  29
ATOM     22  C   UNL     1      44.203   5.093  12.689  0.00  0.00    +0.000 A 
ATOM     23  N   UNL     1      43.315   5.656  11.843  0.00  0.00    +0.000 NA
ATOM     24  C   UNL     1      43.643   6.812  11.260  0.00  0.00    +0.000 A 
ATOM     25  N   UNL     1      44.771   7.495  11.420  0.00  0.00    +0.000 NA
ATOM     26  C   UNL     1      45.635   6.898  12.256  0.00  0.00    +0.000 A 
ATOM     27  S   UNL     1      47.125   7.641  12.584  0.00  0.00    +0.000 S 
ATOM     28  C   UNL     1      47.590   6.367  13.603  0.00  0.00    +0.000 A 
ATOM     29  C   UNL     1      46.639   5.357  13.717  0.00  0.00    +0.000 A 
ATOM     30  C   UNL     1      45.453   5.691  12.931  0.00  0.00    +0.000 A 
BRANCH  22  32
ATOM     31  C   UNL     1      43.706   2.807  12.453  0.00  0.00    +0.000 C 
ATOM     32  O   UNL     1      43.848   3.923  13.330  0.00  0.00    +0.000 OA
ENDBRANCH  22  32
ENDBRANCH  18  29
ENDBRANCH   1  20
TORSDOF 8
ENDMDL
MODEL 8
REMARK VINA RESULT:    -6.007      1.859      2.649
REMARK INTER + INTRA:         -10.014
REMARK INTER:                  -8.999
REMARK INTRA:                  -1.015
REMARK UNBOUND:                -1.198
REMARK  Name = 
REMARK  9 active torsions:
REMARK  status: ('A' for Active; 'I' for Inactive)
REMARK    1  A    between atoms: C_1  and  O_2
REMARK    2  A    between atoms: O_2  and  C_3
REMARK    3  A    between atoms: C_10  and  C_11
REMARK    4  A    between atoms: N_13  and  C_14
REMARK    5  A    between atoms: C_14  and  C_15
REMARK    6  A    between atoms: C_18  and  N_19
REMARK    7  A    between atoms: N_19  and  C_20
REMARK    8  A    between atoms: C_20  and  C_21
REMARK    9  A    between atoms: C_21  and  N_22
REMARK                            x       y       z     vdW  Elec       q    Type
REMARK                         _______ _______ _______ _____ _____    ______ ____
ROOT
ATOM      1  C   UNL     1      49.073   8.103  12.844  0.00  0.00    +0.000 C 
ENDROOT
BRANCH   1   2
ATOM      2  C   UNL     1      47.663   7.588  12.922  0.00  0.00    +0.000 A 
ATOM      3  C   UNL     1      46.585   8.413  12.586  0.00  0.00    +0.000 A 
ATOM      4  C   UNL     1      45.284   7.906  12.573  0.00  0.00    +0.000 A 
ATOM      5  C   UNL     1      45.037   6.557  12.850  0.00  0.00    +0.000 A 
ATOM      6  C   UNL     1      46.098   5.776  13.313  0.00  0.00    +0.000 A 
ATOM      7  C   UNL     1      47.402   6.279  13.338  0.00  0.00    +0.000 A 
BRANCH   5   8
ATOM      8  N   UNL     1      43.774   5.955  12.734  0.00  0.00    +0.000 N 
ATOM      9  H   UNL     1      43.152   6.316  13.455  0.00  0.00    +0.000 HD
BRANCH   8  10
ATOM     10  C   UNL     1      43.134   5.976  11.405  0.00  0.00    +0.000 C 
BRANCH  10  11
ATOM     11  C   UNL     1      43.438   4.677  10.612  0.00  0.00    +0.000 C 
BRANCH  11  12
ATOM     12  N   UNL     1      44.835   4.189  10.635  0.00  0.00    +0.000 NA
ATOM     13  C   UNL     1      45.574   4.740   9.468  0.00  0.00    +0.000 C 
ATOM     14  C   UNL     1      45.189   4.102   8.114  0.00  0.00    +0.000 C 
ATOM     15  O   UNL     1      45.314   2.674   8.147  0.00  0.00    +0.000 OA
ATOM     16  C   UNL     1      44.540   2.116   9.215  0.00  0.00    +0.000 C 
ATOM     17  C   UNL     1      44.953   2.716  10.569  0.00  0.00    +0.000 C 
ENDBRANCH  11  12
ENDBRANCH  10  11
ENDBRANCH   8  10
ENDBRANCH   5   8
ENDBRANCH   1   2
BRANCH   1  20
ATOM     18  C   UNL     1      50.285   7.867  14.950  0.00  0.00    +0.000 C 
ATOM     19  O   UNL     1      49.844   8.946  15.343  0.00  0.00    +0.000 OA
ATOM     20  N   UNL     1      49.953   7.376  13.718  0.00  0.00    +0.000 N 
ATOM     21  H   UNL     1      50.359   6.514  13.377  0.00  0.00    +0.000 HD
BRANCH  18  29
ATOM     22  C   UNL     1      49.785   5.151  17.021  0.00  0.00    +0.000 A 
ATOM     23  N   UNL     1      49.874   4.160  17.933  0.00  0.00    +0.000 NA
ATOM     24  C   UNL     1      51.068   3.907  18.476  0.00  0.00    +0.000 A 
ATOM     25  N   UNL     1      52.212   4.530  18.216  0.00  0.00    +0.000 NA
ATOM     26  C   UNL     1      52.082   5.517  17.316  0.00  0.00    +0.000 A 
ATOM     27  S   UNL     1      53.449   6.411  16.857  0.00  0.00    +0.000 S 
ATOM     28  C   UNL     1      52.525   7.380  15.815  0.00  0.00    +0.000 A 
ATOM     29  C   UNL     1      51.173   7.054  15.790  0.00  0.00    +0.000 A 
ATOM     30  C   UNL     1      50.913   5.916  16.670  0.00  0.00    +0.000 A 
BRANCH  22  32
ATOM     31  C   UNL     1      47.616   4.336  16.620  0.00  0.00    +0.000 C 
ATOM     32  O   UNL     1      48.563   5.384  16.424  0.00  0.00    +0.000 OA
ENDBRANCH  22  32
ENDBRANCH  18  29
ENDBRANCH   1  20
TORSDOF 8
ENDMDL
MODEL 9
REMARK VINA RESULT:    -5.918      5.715      7.503
REMARK INTER + INTRA:          -9.884
REMARK INTER:                  -8.960
REMARK INTRA:                  -0.924
REMARK UNBOUND:                -1.198
REMARK  Name = 
REMARK  9 active torsions:
REMARK  status: ('A' for Active; 'I' for Inactive)
REMARK    1  A    between atoms: C_1  and  O_2
REMARK    2  A    between atoms: O_2  and  C_3
REMARK    3  A    between atoms: C_10  and  C_11
REMARK    4  A    between atoms: N_13  and  C_14
REMARK    5  A    between atoms: C_14  and  C_15
REMARK    6  A    between atoms: C_18  and  N_19
REMARK    7  A    between atoms: N_19  and  C_20
REMARK    8  A    between atoms: C_20  and  C_21
REMARK    9  A    between atoms: C_21  and  N_22
REMARK                            x       y       z     vdW  Elec       q    Type
REMARK                         _______ _______ _______ _____ _____    ______ ____
ROOT
ATOM      1  C   UNL     1      51.178   9.220  11.226  0.00  0.00    +0.000 C 
ENDROOT
BRANCH   1   2
ATOM      2  C   UNL     1      49.794   8.827  11.658  0.00  0.00    +0.000 A 
ATOM      3  C   UNL     1      49.515   7.510  12.037  0.00  0.00    +0.000 A 
ATOM      4  C   UNL     1      48.251   7.166  12.524  0.00  0.00    +0.000 A 
ATOM      5  C   UNL     1      47.257   8.137  12.686  0.00  0.00    +0.000 A 
ATOM      6  C   UNL     1      47.500   9.418  12.184  0.00  0.00    +0.000 A 
ATOM      7  C   UNL     1      48.758   9.766  11.686  0.00  0.00    +0.000 A 
BRANCH   5   8
ATOM      8  N   UNL     1      46.012   7.887  13.284  0.00  0.00    +0.000 N 
ATOM      9  H   UNL     1      45.626   8.755  13.654  0.00  0.00    +0.000 HD
BRANCH   8  10
ATOM     10  C   UNL     1      45.015   7.148  12.487  0.00  0.00    +0.000 C 
BRANCH  10  11
ATOM     11  C   UNL     1      44.898   5.674  12.957  0.00  0.00    +0.000 C 
BRANCH  11  12
ATOM     12  N   UNL     1      45.511   4.643  12.089  0.00  0.00    +0.000 NA
ATOM     13  C   UNL     1      45.125   4.890  10.674  0.00  0.00    +0.000 C 
ATOM     14  C   UNL     1      43.655   4.542  10.348  0.00  0.00    +0.000 C 
ATOM     15  O   UNL     1      43.335   3.195  10.717  0.00  0.00    +0.000 OA
ATOM     16  C   UNL     1      43.622   2.960  12.100  0.00  0.00    +0.000 C 
ATOM     17  C   UNL     1      45.095   3.262  12.418  0.00  0.00    +0.000 C 
ENDBRANCH  11  12
ENDBRANCH  10  11
ENDBRANCH   8  10
ENDBRANCH   5   8
ENDBRANCH   1   2
BRANCH   1  20
ATOM     18  C   UNL     1      52.847   8.137   9.810  0.00  0.00    +0.000 C 
ATOM     19  O   UNL     1      52.997   9.174   9.166  0.00  0.00    +0.000 OA
ATOM     20  N   UNL     1      51.961   8.074  10.849  0.00  0.00    +0.000 N 
ATOM     21  H   UNL     1      51.803   7.204  11.342  0.00  0.00    +0.000 HD
BRANCH  18  29
ATOM     22  C   UNL     1      53.211   6.187   6.984  0.00  0.00    +0.000 A 
ATOM     23  N   UNL     1      53.480   5.223   6.079  0.00  0.00    +0.000 NA
ATOM     24  C   UNL     1      54.279   4.217   6.446  0.00  0.00    +0.000 A 
ATOM     25  N   UNL     1      54.860   4.049   7.629  0.00  0.00    +0.000 NA
ATOM     26  C   UNL     1      54.558   5.019   8.506  0.00  0.00    +0.000 A 
ATOM     27  S   UNL     1      55.225   4.966  10.066  0.00  0.00    +0.000 S 
ATOM     28  C   UNL     1      54.412   6.388  10.513  0.00  0.00    +0.000 A 
ATOM     29  C   UNL     1      53.624   6.929   9.502  0.00  0.00    +0.000 A 
ATOM     30  C   UNL     1      53.735   6.123   8.289  0.00  0.00    +0.000 A 
BRANCH  22  32
ATOM     31  C   UNL     1      53.127   8.245   5.851  0.00  0.00    +0.000 C 
ATOM     32  O   UNL     1      52.424   7.252   6.594  0.00  0.00    +0.000 OA
ENDBRANCH  22  32
ENDBRANCH  18  29
ENDBRANCH   1  20
TORSDOF 8
ENDMDL
