MODEL 1
REMARK VINA RESULT:    -7.487      0.000      0.000
REMARK INTER + INTRA:         -10.202
REMARK INTER:                  -9.675
REMARK INTRA:                  -0.527
REMARK UNBOUND:                -0.527
REMARK  Name = 
REMARK  6 active torsions:
REMARK  status: ('A' for Active; 'I' for Inactive)
REMARK    1  A    between atoms: N_1  and  C_2
REMARK    2  A    between atoms: C_2  and  C_3
REMARK    3  A    between atoms: C_6  and  C_7
REMARK    4  A    between atoms: C_7  and  C_8
REMARK    5  A    between atoms: C_8  and  C_9
REMARK    6  A    between atoms: C_13  and  N_14
REMARK                            x       y       z     vdW  Elec       q    Type
REMARK                         _______ _______ _______ _____ _____    ______ ____
ROOT
ATOM      1  C   UNL     1      44.147   2.890  10.416  0.00  0.00    +0.000 C 
ENDROOT
BRANCH   1   5
ATOM      2  C   UNL     1      46.628   2.755   6.846  0.00  0.00    +0.000 A 
ATOM      3  C   UNL     1      46.053   3.961   7.262  0.00  0.00    +0.000 A 
ATOM      4  C   UNL     1      45.262   4.018   8.412  0.00  0.00    +0.000 A 
ATOM      5  C   UNL     1      44.997   2.864   9.160  0.00  0.00    +0.000 A 
ATOM      6  C   UNL     1      45.599   1.662   8.760  0.00  0.00    +0.000 A 
ATOM      7  C   UNL     1      46.402   1.607   7.614  0.00  0.00    +0.000 A 
BRANCH   2   8
ATOM      8  C   UNL     1      47.446   2.696   5.582  0.00  0.00    +0.000 C 
BRANCH   8   9
ATOM      9  N   UNL     1      48.571   1.772   5.703  0.00  0.00    +0.000 NA
ATOM     10  H   UNL     1      48.866   1.488   4.772  0.00  0.00    +0.000 HD
ATOM     11  H   UNL     1      48.248   0.930   6.176  0.00  0.00    +0.000 HD
ENDBRANCH   8   9
ENDBRANCH   2   8
ENDBRANCH   1   5
BRANCH   1  12
ATOM     12  C   UNL     1      43.924   4.291  11.004  0.00  0.00    +0.000 C 
BRANCH  12  13
ATOM     13  C   UNL     1      45.055   4.782  11.875  0.00  0.00    +0.000 A 
ATOM     14  C   UNL     1      45.726   5.952  11.532  0.00  0.00    +0.000 A 
ATOM     15  C   UNL     1      46.848   6.319  12.267  0.00  0.00    +0.000 A 
ATOM     16  C   UNL     1      47.269   5.503  13.311  0.00  0.00    +0.000 A 
ATOM     17  C   UNL     1      46.544   4.357  13.595  0.00  0.00    +0.000 A 
ATOM     18  N   UNL     1      45.460   3.986  12.895  0.00  0.00    +0.000 NA
BRANCH  17  19
ATOM     19  N   UNL     1      46.954   3.494  14.608  0.00  0.00    +0.000 N 
ATOM     20  H   UNL     1      47.633   3.929  15.220  0.00  0.00    +0.000 HD
ATOM     21  H   UNL     1      46.113   3.213  15.109  0.00  0.00    +0.000 HD
ENDBRANCH  17  19
ENDBRANCH  12  13
ENDBRANCH   1  12
TORSDOF 6
ENDMDL
MODEL 2
REMARK VINA RESULT:    -7.193      1.516      2.450
REMARK INTER + INTRA:          -9.822
REMARK INTER:                  -9.412
REMARK INTRA:                  -0.410
REMARK UNBOUND:                -0.527
REMARK  Name = 
REMARK  6 active torsions:
REMARK  status: ('A' for Active; 'I' for Inactive)
REMARK    1  A    between atoms: N_1  and  C_2
REMARK    2  A    between atoms: C_2  and  C_3
REMARK    3  A    between atoms: C_6  and  C_7
REMARK    4  A    between atoms: C_7  and  C_8
REMARK    5  A    between atoms: C_8  and  C_9
REMARK    6  A    between atoms: C_13  and  N_14
REMARK                            x       y       z     vdW  Elec       q    Type
REMARK                         _______ _______ _______ _____ _____    ______ ____
ROOT
ATOM      1  C   UNL     1      44.187   2.934  10.416  0.00  0.00    +0.000 C 
ENDROOT
BRANCH   1   5
ATOM      2  C   UNL     1      46.587   2.753   6.794  0.00  0.00    +0.000 A 
ATOM      3  C   UNL     1      46.388   1.605   7.569  0.00  0.00    +0.000 A 
ATOM      4  C   UNL     1      45.612   1.649   8.729  0.00  0.00    +0.000 A 
ATOM      5  C   UNL     1      45.039   2.850   9.165  0.00  0.00    +0.000 A 
ATOM      6  C   UNL     1      45.213   3.994   8.372  0.00  0.00    +0.000 A 
ATOM      7  C   UNL     1      45.981   3.947   7.202  0.00  0.00    +0.000 A 
BRANCH   2   8
ATOM      8  C   UNL     1      47.459   2.703   5.567  0.00  0.00    +0.000 C 
BRANCH   8   9
ATOM      9  N   UNL     1      48.571   1.770   5.725  0.00  0.00    +0.000 NA
ATOM     10  H   UNL     1      49.168   2.091   6.483  0.00  0.00    +0.000 HD
ATOM     11  H   UNL     1      49.137   1.795   4.878  0.00  0.00    +0.000 HD
ENDBRANCH   8   9
ENDBRANCH   2   8
ENDBRANCH   1   5
BRANCH   1  12
ATOM     12  C   UNL     1      44.962   3.298  11.691  0.00  0.00    +0.000 C 
BRANCH  12  13
ATOM     13  C   UNL     1      45.177   4.780  11.881  0.00  0.00    +0.000 A 
ATOM     14  C   UNL     1      46.210   5.223  12.702  0.00  0.00    +0.000 A 
ATOM     15  C   UNL     1      46.312   6.583  12.971  0.00  0.00    +0.000 A 
ATOM     16  C   UNL     1      45.377   7.453  12.425  0.00  0.00    +0.000 A 
ATOM     17  C   UNL     1      44.381   6.936  11.612  0.00  0.00    +0.000 A 
ATOM     18  N   UNL     1      44.265   5.626  11.343  0.00  0.00    +0.000 NA
BRANCH  17  19
ATOM     19  N   UNL     1      43.402   7.770  11.075  0.00  0.00    +0.000 N 
ATOM     20  H   UNL     1      43.576   7.970  10.097  0.00  0.00    +0.000 HD
ATOM     21  H   UNL     1      42.511   7.300  11.217  0.00  0.00    +0.000 HD
ENDBRANCH  17  19
ENDBRANCH  12  13
ENDBRANCH   1  12
TORSDOF 6
ENDMDL
MODEL 3
REMARK VINA RESULT:    -7.017      1.615      6.101
REMARK INTER + INTRA:          -9.594
REMARK INTER:                  -9.045
REMARK INTRA:                  -0.549
REMARK UNBOUND:                -0.527
REMARK  Name = 
REMARK  6 active torsions:
REMARK  status: ('A' for Active; 'I' for Inactive)
REMARK    1  A    between atoms: N_1  and  C_2
REMARK    2  A    between atoms: C_2  and  C_3
REMARK    3  A    between atoms: C_6  and  C_7
REMARK    4  A    between atoms: C_7  and  C_8
REMARK    5  A    between atoms: C_8  and  C_9
REMARK    6  A    between atoms: C_13  and  N_14
REMARK                            x       y       z     vdW  Elec       q    Type
REMARK                         _______ _______ _______ _____ _____    ______ ____
ROOT
ATOM      1  C   UNL     1      44.049   4.503  10.210  0.00  0.00    +0.000 C 
ENDROOT
BRANCH   1   5
ATOM      2  C   UNL     1      46.942   6.018  13.082  0.00  0.00    +0.000 A 
ATOM      3  C   UNL     1      46.086   4.967  13.428  0.00  0.00    +0.000 A 
ATOM      4  C   UNL     1      45.158   4.468  12.511  0.00  0.00    +0.000 A 
ATOM      5  C   UNL     1      45.040   5.025  11.232  0.00  0.00    +0.000 A 
ATOM      6  C   UNL     1      45.920   6.056  10.875  0.00  0.00    +0.000 A 
ATOM      7  C   UNL     1      46.857   6.551  11.790  0.00  0.00    +0.000 A 
BRANCH   2   8
ATOM      8  C   UNL     1      47.910   6.578  14.091  0.00  0.00    +0.000 C 
BRANCH   8   9
ATOM      9  N   UNL     1      48.057   5.702  15.251  0.00  0.00    +0.000 NA
ATOM     10  H   UNL     1      47.160   5.266  15.451  0.00  0.00    +0.000 HD
ATOM     11  H   UNL     1      48.289   6.275  16.061  0.00  0.00    +0.000 HD
ENDBRANCH   8   9
ENDBRANCH   2   8
ENDBRANCH   1   5
BRANCH   1  12
ATOM     12  C   UNL     1      44.175   3.002   9.909  0.00  0.00    +0.000 C 
BRANCH  12  13
ATOM     13  C   UNL     1      45.244   2.663   8.899  0.00  0.00    +0.000 A 
ATOM     14  C   UNL     1      45.708   3.650   8.034  0.00  0.00    +0.000 A 
ATOM     15  C   UNL     1      46.594   3.291   7.024  0.00  0.00    +0.000 A 
ATOM     16  C   UNL     1      46.977   1.961   6.902  0.00  0.00    +0.000 A 
ATOM     17  C   UNL     1      46.476   1.037   7.805  0.00  0.00    +0.000 A 
ATOM     18  N   UNL     1      45.619   1.365   8.785  0.00  0.00    +0.000 NA
BRANCH  17  19
ATOM     19  N   UNL     1      46.807  -0.311   7.694  0.00  0.00    +0.000 N 
ATOM     20  H   UNL     1      46.428  -0.721   6.849  0.00  0.00    +0.000 HD
ATOM     21  H   UNL     1      47.822  -0.365   7.724  0.00  0.00    +0.000 HD
ENDBRANCH  17  19
ENDBRANCH  12  13
ENDBRANCH   1  12
TORSDOF 6
ENDMDL
MODEL 4
REMARK VINA RESULT:    -7.011      1.367      6.276
REMARK INTER + INTRA:          -9.587
REMARK INTER:                  -9.034
REMARK INTRA:                  -0.553
REMARK UNBOUND:                -0.527
REMARK  Name = 
REMARK  6 active torsions:
REMARK  status: ('A' for Active; 'I' for Inactive)
REMARK    1  A    between atoms: N_1  and  C_2
REMARK    2  A    between atoms: C_2  and  C_3
REMARK    3  A    between atoms: C_6  and  C_7
REMARK    4  A    between atoms: C_7  and  C_8
REMARK    5  A    between atoms: C_8  and  C_9
REMARK    6  A    between atoms: C_13  and  N_14
REMARK                            x       y       z     vdW  Elec       q    Type
REMARK                         _______ _______ _______ _____ _____    ______ ____
ROOT
ATOM      1  C   UNL     1      44.222   3.812   9.959  0.00  0.00    +0.000 C 
ENDROOT
BRANCH   1   5
ATOM      2  C   UNL     1      46.754   5.647  12.982  0.00  0.00    +0.000 A 
ATOM      3  C   UNL     1      46.143   4.412  13.226  0.00  0.00    +0.000 A 
ATOM      4  C   UNL     1      45.335   3.810  12.259  0.00  0.00    +0.000 A 
ATOM      5  C   UNL     1      45.090   4.440  11.033  0.00  0.00    +0.000 A 
ATOM      6  C   UNL     1      45.727   5.663  10.777  0.00  0.00    +0.000 A 
ATOM      7  C   UNL     1      46.546   6.261  11.742  0.00  0.00    +0.000 A 
BRANCH   2   8
ATOM      8  C   UNL     1      47.591   6.307  14.047  0.00  0.00    +0.000 C 
BRANCH   8   9
ATOM      9  N   UNL     1      47.878   5.401  15.156  0.00  0.00    +0.000 NA
ATOM     10  H   UNL     1      48.725   5.711  15.625  0.00  0.00    +0.000 HD
ATOM     11  H   UNL     1      48.078   4.477  14.774  0.00  0.00    +0.000 HD
ENDBRANCH   8   9
ENDBRANCH   2   8
ENDBRANCH   1   5
BRANCH   1  12
ATOM     12  C   UNL     1      44.714   4.051   8.524  0.00  0.00    +0.000 C 
BRANCH  12  13
ATOM     13  C   UNL     1      45.626   2.970   7.996  0.00  0.00    +0.000 A 
ATOM     14  C   UNL     1      45.437   1.653   8.407  0.00  0.00    +0.000 A 
ATOM     15  C   UNL     1      46.364   0.693   8.018  0.00  0.00    +0.000 A 
ATOM     16  C   UNL     1      47.453   1.078   7.245  0.00  0.00    +0.000 A 
ATOM     17  C   UNL     1      47.569   2.407   6.871  0.00  0.00    +0.000 A 
ATOM     18  N   UNL     1      46.685   3.348   7.239  0.00  0.00    +0.000 NA
BRANCH  17  19
ATOM     19  N   UNL     1      48.664   2.841   6.128  0.00  0.00    +0.000 N 
ATOM     20  H   UNL     1      48.722   2.367   5.235  0.00  0.00    +0.000 HD
ATOM     21  H   UNL     1      48.562   3.847   6.021  0.00  0.00    +0.000 HD
ENDBRANCH  17  19
ENDBRANCH  12  13
ENDBRANCH   1  12
TORSDOF 6
ENDMDL
MODEL 5
REMARK VINA RESULT:    -6.253      1.889      2.574
REMARK INTER + INTRA:          -8.607
REMARK INTER:                  -8.138
REMARK INTRA:                  -0.468
REMARK UNBOUND:                -0.527
REMARK  Name = 
REMARK  6 active torsions:
REMARK  status: ('A' for Active; 'I' for Inactive)
REMARK    1  A    between atoms: N_1  and  C_2
REMARK    2  A    between atoms: C_2  and  C_3
REMARK    3  A    between atoms: C_6  and  C_7
REMARK    4  A    between atoms: C_7  and  C_8
REMARK    5  A    between atoms: C_8  and  C_9
REMARK    6  A    between atoms: C_13  and  N_14
REMARK                            x       y       z     vdW  Elec       q    Type
REMARK                         _______ _______ _______ _____ _____    ______ ____
ROOT
ATOM      1  C   UNL     1      43.382   4.297  11.820  0.00  0.00    +0.000 C 
ENDROOT
BRANCH   1   5
ATOM      2  C   UNL     1      45.559   3.162   8.230  0.00  0.00    +0.000 A 
ATOM      3  C   UNL     1      45.486   4.505   8.618  0.00  0.00    +0.000 A 
ATOM      4  C   UNL     1      44.797   4.879   9.773  0.00  0.00    +0.000 A 
ATOM      5  C   UNL     1      44.134   3.926  10.557  0.00  0.00    +0.000 A 
ATOM      6  C   UNL     1      44.234   2.578  10.185  0.00  0.00    +0.000 A 
ATOM      7  C   UNL     1      44.934   2.200   9.033  0.00  0.00    +0.000 A 
BRANCH   2   8
ATOM      8  C   UNL     1      46.270   2.773   6.960  0.00  0.00    +0.000 C 
BRANCH   8   9
ATOM      9  N   UNL     1      46.868   3.926   6.294  0.00  0.00    +0.000 NA
ATOM     10  H   UNL     1      47.708   3.627   5.805  0.00  0.00    +0.000 HD
ATOM     11  H   UNL     1      47.168   4.591   7.006  0.00  0.00    +0.000 HD
ENDBRANCH   8   9
ENDBRANCH   2   8
ENDBRANCH   1   5
BRANCH   1  12
ATOM     12  C   UNL     1      44.268   4.467  13.062  0.00  0.00    +0.000 C 
BRANCH  12  13
ATOM     13  C   UNL     1      45.286   5.576  12.947  0.00  0.00    +0.000 A 
ATOM     14  C   UNL     1      46.642   5.274  13.039  0.00  0.00    +0.000 A 
ATOM     15  C   UNL     1      47.559   6.318  13.065  0.00  0.00    +0.000 A 
ATOM     16  C   UNL     1      47.095   7.627  13.010  0.00  0.00    +0.000 A 
ATOM     17  C   UNL     1      45.730   7.847  12.913  0.00  0.00    +0.000 A 
ATOM     18  N   UNL     1      44.831   6.851  12.889  0.00  0.00    +0.000 NA
BRANCH  17  19
ATOM     19  N   UNL     1      45.223   9.144  12.892  0.00  0.00    +0.000 N 
ATOM     20  H   UNL     1      44.217   9.154  13.014  0.00  0.00    +0.000 HD
ATOM     21  H   UNL     1      45.702   9.655  13.629  0.00  0.00    +0.000 HD
ENDBRANCH  17  19
ENDBRANCH  12  13
ENDBRANCH   1  12
TORSDOF 6
ENDMDL
MODEL 6
REMARK VINA RESULT:    -6.218      1.810      6.656
REMARK INTER + INTRA:          -8.562
REMARK INTER:                  -8.064
REMARK INTRA:                  -0.498
REMARK UNBOUND:                -0.527
REMARK  Name = 
REMARK  6 active torsions:
REMARK  status: ('A' for Active; 'I' for Inactive)
REMARK    1  A    between atoms: N_1  and  C_2
REMARK    2  A    between atoms: C_2  and  C_3
REMARK    3  A    between atoms: C_6  and  C_7
REMARK    4  A    between atoms: C_7  and  C_8
REMARK    5  A    between atoms: C_8  and  C_9
REMARK    6  A    between atoms: C_13  and  N_14
REMARK                            x       y       z     vdW  Elec       q    Type
REMARK                         _______ _______ _______ _____ _____    ______ ____
ROOT
ATOM      1  C   UNL     1      45.967   6.234  10.965  0.00  0.00    +0.000 C 
ENDROOT
BRANCH   1   5
ATOM      2  C   UNL     1      47.286   4.934  14.901  0.00  0.00    +0.000 A 
ATOM      3  C   UNL     1      46.270   4.243  14.231  0.00  0.00    +0.000 A 
ATOM      4  C   UNL     1      45.845   4.646  12.964  0.00  0.00    +0.000 A 
ATOM      5  C   UNL     1      46.401   5.771  12.343  0.00  0.00    +0.000 A 
ATOM      6  C   UNL     1      47.440   6.445  13.001  0.00  0.00    +0.000 A 
ATOM      7  C   UNL     1      47.874   6.035  14.267  0.00  0.00    +0.000 A 
BRANCH   2   8
ATOM      8  C   UNL     1      47.709   4.516  16.285  0.00  0.00    +0.000 C 
BRANCH   8   9
ATOM      9  N   UNL     1      46.757   3.588  16.890  0.00  0.00    +0.000 NA
ATOM     10  H   UNL     1      45.939   4.108  17.199  0.00  0.00    +0.000 HD
ATOM     11  H   UNL     1      47.181   3.189  17.726  0.00  0.00    +0.000 HD
ENDBRANCH   8   9
ENDBRANCH   2   8
ENDBRANCH   1   5
BRANCH   1  12
ATOM     12  C   UNL     1      44.741   5.499  10.404  0.00  0.00    +0.000 C 
BRANCH  12  13
ATOM     13  C   UNL     1      45.078   4.369   9.461  0.00  0.00    +0.000 A 
ATOM     14  C   UNL     1      44.713   3.067   9.792  0.00  0.00    +0.000 A 
ATOM     15  C   UNL     1      45.146   2.025   8.980  0.00  0.00    +0.000 A 
ATOM     16  C   UNL     1      45.936   2.313   7.874  0.00  0.00    +0.000 A 
ATOM     17  C   UNL     1      46.252   3.635   7.606  0.00  0.00    +0.000 A 
ATOM     18  N   UNL     1      45.845   4.654   8.380  0.00  0.00    +0.000 NA
BRANCH  17  19
ATOM     19  N   UNL     1      47.071   3.963   6.528  0.00  0.00    +0.000 N 
ATOM     20  H   UNL     1      48.051   3.837   6.752  0.00  0.00    +0.000 HD
ATOM     21  H   UNL     1      46.778   3.375   5.751  0.00  0.00    +0.000 HD
ENDBRANCH  17  19
ENDBRANCH  12  13
ENDBRANCH   1  12
TORSDOF 6
ENDMDL
MODEL 7
REMARK VINA RESULT:    -6.192      1.191      1.727
REMARK INTER + INTRA:          -8.528
REMARK INTER:                  -7.936
REMARK INTRA:                  -0.593
REMARK UNBOUND:                -0.527
REMARK  Name = 
REMARK  6 active torsions:
REMARK  status: ('A' for Active; 'I' for Inactive)
REMARK    1  A    between atoms: N_1  and  C_2
REMARK    2  A    between atoms: C_2  and  C_3
REMARK    3  A    between atoms: C_6  and  C_7
REMARK    4  A    between atoms: C_7  and  C_8
REMARK    5  A    between atoms: C_8  and  C_9
REMARK    6  A    between atoms: C_13  and  N_14
REMARK                            x       y       z     vdW  Elec       q    Type
REMARK                         _______ _______ _______ _____ _____    ______ ____
ROOT
ATOM      1  C   UNL     1      44.127   5.331  10.205  0.00  0.00    +0.000 C 
ENDROOT
BRANCH   1   5
ATOM      2  C   UNL     1      46.277   2.403   7.814  0.00  0.00    +0.000 A 
ATOM      3  C   UNL     1      45.164   2.019   8.569  0.00  0.00    +0.000 A 
ATOM      4  C   UNL     1      44.461   2.952   9.334  0.00  0.00    +0.000 A 
ATOM      5  C   UNL     1      44.870   4.290   9.390  0.00  0.00    +0.000 A 
ATOM      6  C   UNL     1      45.967   4.681   8.608  0.00  0.00    +0.000 A 
ATOM      7  C   UNL     1      46.665   3.748   7.832  0.00  0.00    +0.000 A 
BRANCH   2   8
ATOM      8  C   UNL     1      47.053   1.381   7.025  0.00  0.00    +0.000 C 
BRANCH   8   9
ATOM      9  N   UNL     1      46.871   0.031   7.552  0.00  0.00    +0.000 NA
ATOM     10  H   UNL     1      46.529  -0.571   6.808  0.00  0.00    +0.000 HD
ATOM     11  H   UNL     1      46.142   0.058   8.263  0.00  0.00    +0.000 HD
ENDBRANCH   8   9
ENDBRANCH   2   8
ENDBRANCH   1   5
BRANCH   1  12
ATOM     12  C   UNL     1      44.056   5.029  11.709  0.00  0.00    +0.000 C 
BRANCH  12  13
ATOM     13  C   UNL     1      45.314   5.373  12.468  0.00  0.00    +0.000 A 
ATOM     14  C   UNL     1      46.147   6.383  11.994  0.00  0.00    +0.000 A 
ATOM     15  C   UNL     1      47.366   6.597  12.627  0.00  0.00    +0.000 A 
ATOM     16  C   UNL     1      47.719   5.791  13.703  0.00  0.00    +0.000 A 
ATOM     17  C   UNL     1      46.834   4.810  14.121  0.00  0.00    +0.000 A 
ATOM     18  N   UNL     1      45.655   4.588  13.520  0.00  0.00    +0.000 NA
BRANCH  17  19
ATOM     19  N   UNL     1      47.166   3.957  15.171  0.00  0.00    +0.000 N 
ATOM     20  H   UNL     1      46.437   3.926  15.873  0.00  0.00    +0.000 HD
ATOM     21  H   UNL     1      47.340   3.044  14.759  0.00  0.00    +0.000 HD
ENDBRANCH  17  19
ENDBRANCH  12  13
ENDBRANCH   1  12
TORSDOF 6
ENDMDL
MODEL 8
REMARK VINA RESULT:    -5.712      2.866      6.730
REMARK INTER + INTRA:          -7.909
REMARK INTER:                  -7.553
REMARK INTRA:                  -0.356
REMARK UNBOUND:                -0.527
REMARK  Name = 
REMARK  6 active torsions:
REMARK  status: ('A' for Active; 'I' for Inactive)
REMARK    1  A    between atoms: N_1  and  C_2
REMARK    2  A    between atoms: C_2  and  C_3
REMARK    3  A    between atoms: C_6  and  C_7
REMARK    4  A    between atoms: C_7  and  C_8
REMARK    5  A    between atoms: C_8  and  C_9
REMARK    6  A    between atoms: C_13  and  N_14
REMARK                            x       y       z     vdW  Elec       q    Type
REMARK                         _______ _______ _______ _____ _____    ______ ____
ROOT
ATOM      1  C   UNL     1      45.548   5.330  11.682  0.00  0.00    +0.000 C 
ENDROOT
BRANCH   1   5
ATOM      2  C   UNL     1      47.143   9.343  12.192  0.00  0.00    +0.000 A 
ATOM      3  C   UNL     1      45.761   9.130  12.170  0.00  0.00    +0.000 A 
ATOM      4  C   UNL     1      45.238   7.844  12.015  0.00  0.00    +0.000 A 
ATOM      5  C   UNL     1      46.082   6.740  11.847  0.00  0.00    +0.000 A 
ATOM      6  C   UNL     1      47.468   6.950  11.902  0.00  0.00    +0.000 A 
ATOM      7  C   UNL     1      47.992   8.238  12.068  0.00  0.00    +0.000 A 
BRANCH   2   8
ATOM      8  C   UNL     1      47.697  10.739  12.318  0.00  0.00    +0.000 C 
BRANCH   8   9
ATOM      9  N   UNL     1      48.216  11.001  13.658  0.00  0.00    +0.000 NA
ATOM     10  H   UNL     1      48.439  11.990  13.739  0.00  0.00    +0.000 HD
ATOM     11  H   UNL     1      49.094  10.496  13.769  0.00  0.00    +0.000 HD
ENDBRANCH   8   9
ENDBRANCH   2   8
ENDBRANCH   1   5
BRANCH   1  12
ATOM     12  C   UNL     1      44.582   5.148  10.502  0.00  0.00    +0.000 C 
BRANCH  12  13
ATOM     13  C   UNL     1      45.017   4.103   9.504  0.00  0.00    +0.000 A 
ATOM     14  C   UNL     1      44.764   2.759   9.763  0.00  0.00    +0.000 A 
ATOM     15  C   UNL     1      45.287   1.802   8.901  0.00  0.00    +0.000 A 
ATOM     16  C   UNL     1      46.053   2.215   7.818  0.00  0.00    +0.000 A 
ATOM     17  C   UNL     1      46.257   3.571   7.622  0.00  0.00    +0.000 A 
ATOM     18  N   UNL     1      45.762   4.509   8.446  0.00  0.00    +0.000 NA
BRANCH  17  19
ATOM     19  N   UNL     1      47.049   4.024   6.570  0.00  0.00    +0.000 N 
ATOM     20  H   UNL     1      48.035   3.902   6.765  0.00  0.00    +0.000 HD
ATOM     21  H   UNL     1      46.756   3.509   5.744  0.00  0.00    +0.000 HD
ENDBRANCH  17  19
ENDBRANCH  12  13
ENDBRANCH   1  12
TORSDOF 6
ENDMDL
MODEL 9
REMARK VINA RESULT:    -5.574      2.022      2.787
REMARK INTER + INTRA:          -7.730
REMARK INTER:                  -7.265
REMARK INTRA:                  -0.465
REMARK UNBOUND:                -0.527
REMARK  Name = 
REMARK  6 active torsions:
REMARK  status: ('A' for Active; 'I' for Inactive)
REMARK    1  A    between atoms: N_1  and  C_2
REMARK    2  A    between atoms: C_2  and  C_3
REMARK    3  A    between atoms: C_6  and  C_7
REMARK    4  A    between atoms: C_7  and  C_8
REMARK    5  A    between atoms: C_8  and  C_9
REMARK    6  A    between atoms: C_13  and  N_14
REMARK                            x       y       z     vdW  Elec       q    Type
REMARK                         _______ _______ _______ _____ _____    ______ ____
ROOT
ATOM      1  C   UNL     1      44.233   5.271  12.081  0.00  0.00    +0.000 C 
ENDROOT
BRANCH   1   5
ATOM      2  C   UNL     1      45.585   3.762   8.232  0.00  0.00    +0.000 A 
ATOM      3  C   UNL     1      46.039   4.998   8.706  0.00  0.00    +0.000 A 
ATOM      4  C   UNL     1      45.618   5.488   9.944  0.00  0.00    +0.000 A 
ATOM      5  C   UNL     1      44.707   4.771  10.729  0.00  0.00    +0.000 A 
ATOM      6  C   UNL     1      44.276   3.518  10.268  0.00  0.00    +0.000 A 
ATOM      7  C   UNL     1      44.707   3.022   9.032  0.00  0.00    +0.000 A 
BRANCH   2   8
ATOM      8  C   UNL     1      46.013   3.261   6.877  0.00  0.00    +0.000 C 
BRANCH   8   9
ATOM      9  N   UNL     1      47.454   3.391   6.677  0.00  0.00    +0.000 NA
ATOM     10  H   UNL     1      47.845   2.472   6.487  0.00  0.00    +0.000 HD
ATOM     11  H   UNL     1      47.873   3.711   7.549  0.00  0.00    +0.000 HD
ENDBRANCH   8   9
ENDBRANCH   2   8
ENDBRANCH   1   5
BRANCH   1  12
ATOM     12  C   UNL     1      45.326   5.328  13.157  0.00  0.00    +0.000 C 
BRANCH  12  13
ATOM     13  C   UNL     1      46.267   6.501  13.021  0.00  0.00    +0.000 A 
ATOM     14  C   UNL     1      45.746   7.783  12.872  0.00  0.00    +0.000 A 
ATOM     15  C   UNL     1      46.620   8.833  12.615  0.00  0.00    +0.000 A 
ATOM     16  C   UNL     1      47.980   8.569  12.503  0.00  0.00    +0.000 A 
ATOM     17  C   UNL     1      48.423   7.267  12.671  0.00  0.00    +0.000 A 
ATOM     18  N   UNL     1      47.593   6.240  12.917  0.00  0.00    +0.000 NA
BRANCH  17  19
ATOM     19  N   UNL     1      49.773   6.954  12.531  0.00  0.00    +0.000 N 
ATOM     20  H   UNL     1      49.960   6.487  11.652  0.00  0.00    +0.000 HD
ATOM     21  H   UNL     1      50.283   7.830  12.615  0.00  0.00    +0.000 HD
ENDBRANCH  17  19
ENDBRANCH  12  13
ENDBRANCH   1  12
TORSDOF 6
ENDMDL
